data_str_m2_o1_o5_pcu_sym.87
_audit_creation_date              2020-01-03
_audit_creation_method            'Materials Studio'
_symmetry_space_group_name_H-M    'P1'
_symmetry_Int_Tables_number       1
_symmetry_cell_setting            triclinic
loop_
_symmetry_equiv_pos_as_xyz
  x,y,z
_cell_length_a                    32.9105
_cell_length_b                    28.9364
_cell_length_c                    27.2376
_cell_angle_alpha                 88.5088
_cell_angle_beta                  94.4926
_cell_angle_gamma                 89.1142
loop_
_atom_site_label
_atom_site_type_symbol
_atom_site_fract_x
_atom_site_fract_y
_atom_site_fract_z
_atom_site_U_iso_or_equiv
_atom_site_adp_type
_atom_site_occupancy
C1     C     0.08769   0.16697   0.17079   0.00000  Uiso   1.00
C2     C     0.01909   0.20587   0.15867   0.00000  Uiso   1.00
C3     C     0.29097   0.16558   0.17247   0.00000  Uiso   1.00
C4     C     0.04335   0.16814   0.17858   0.00000  Uiso   1.00
C5     C     0.14021   0.02766   0.13472   0.00000  Uiso   1.00
C6     C     0.19421   0.30759   0.19716   0.00000  Uiso   1.00
C7     C     0.18945   0.02340   0.20189   0.00000  Uiso   1.00
C8     C     0.13876   0.31071   0.13521   0.00000  Uiso   1.00
C9     C     0.09409   0.04629   0.06578   0.00000  Uiso   1.00
C10    C     0.07598   0.09010   0.04046   0.00000  Uiso   1.00
C11    C     0.23417   0.26368   0.25693   0.00000  Uiso   1.00
C12    C     0.24597   0.16624   0.16833   0.00000  Uiso   1.00
C13    C     0.27312   0.27540   0.28807   0.00000  Uiso   1.00
C14    C     0.19570   0.02517   0.28726   0.00000  Uiso   1.00
C15    C     0.18687   0.06082   0.32478   0.00000  Uiso   1.00
C16    C     0.10977   0.26906   0.06785   0.00000  Uiso   1.00
C17    C     0.07694   0.28060   0.02600   0.00000  Uiso   1.00
C18    C     0.16611   0.16713   0.07361   0.00000  Uiso   1.00
C19    C     0.16520   0.16653   0.25950   0.00000  Uiso   1.00
C20    C     0.16522   0.16792   0.02169   0.00000  Uiso   1.00
C21    C     0.16481   0.16719   0.31126   0.00000  Uiso   1.00
C22    C     0.02347   0.13183   0.20361   0.00000  Uiso   1.00
C23    C     0.31174   0.19753   0.14449   0.00000  Uiso   1.00
C24    C     0.31416   0.13643   0.20724   0.00000  Uiso   1.00
Cu25   Cu    0.16667   0.21355   0.16667   0.00000  Uiso   1.00
Cu26   Cu    0.16667   0.11978   0.16667   0.00000  Uiso   1.00
H27    H     0.03351   0.04881   0.15810   0.00000  Uiso   1.00
H28    H     0.23653   0.22643   0.25068   0.00000  Uiso   1.00
H29    H     0.20703   0.26879   0.27812   0.00000  Uiso   1.00
H30    H     0.28442   0.30982   0.27735   0.00000  Uiso   1.00
H31    H     0.26693   0.27620   0.32738   0.00000  Uiso   1.00
H32    H     0.29742   0.24902   0.28396   0.00000  Uiso   1.00
H33    H     0.22221   0.00583   0.30457   0.00000  Uiso   1.00
H34    H     0.16856   0.00248   0.28300   0.00000  Uiso   1.00
H35    H     0.15633   0.07651   0.31523   0.00000  Uiso   1.00
H36    H     0.18674   0.04384   0.02848   0.00000  Uiso   1.00
H37    H     0.21093   0.08720   0.32670   0.00000  Uiso   1.00
H38    H     0.23947   0.21404   0.03729   0.00000  Uiso   1.00
H39    H     0.10400   0.23208   0.07481   0.00000  Uiso   1.00
H40    H     0.14025   0.27539   0.05397   0.00000  Uiso   1.00
H41    H     0.08578   0.30979   0.00222   0.00000  Uiso   1.00
H42    H     0.07311   0.25061   0.00142   0.00000  Uiso   1.00
H43    H     0.04712   0.28810   0.04039   0.00000  Uiso   1.00
H44    H     0.25587   0.15833   0.30261   0.00000  Uiso   1.00
H45    H     0.06855   0.29861   0.22999   0.00000  Uiso   1.00
H46    H     0.06801   0.02341   0.06989   0.00000  Uiso   1.00
H47    H     0.11772   0.03183   0.04337   0.00000  Uiso   1.00
H48    H     0.10030   0.11394   0.03127   0.00000  Uiso   1.00
H49    H     0.05825   0.08110   0.00615   0.00000  Uiso   1.00
H50    H     0.05528   0.10777   0.06462   0.00000  Uiso   1.00
N51    N     0.16667   0.28402   0.16667   0.00000  Uiso   1.00
N52    N     0.16667   0.04931   0.16667   0.00000  Uiso   1.00
O53    O     0.10655   0.20625   0.16666   0.00000  Uiso   1.00
O54    O     0.02790   0.05027   0.26092   0.00000  Uiso   1.00
O55    O     0.05951   0.04810   0.17908   0.00000  Uiso   1.00
O56    O     0.26812   0.27116   0.10709   0.00000  Uiso   1.00
O57    O     0.32044   0.23913   0.05757   0.00000  Uiso   1.00
O58    O     0.25387   0.19361   0.06290   0.00000  Uiso   1.00
O59    O     0.28304   0.06409   0.25309   0.00000  Uiso   1.00
O60    O     0.32230   0.11827   0.30452   0.00000  Uiso   1.00
O61    O     0.24969   0.14280   0.27101   0.00000  Uiso   1.00
O62    O     0.02874   0.29451   0.13145   0.00000  Uiso   1.00
O63    O     0.32701   0.27942   0.20465   0.00000  Uiso   1.00
O64    O     0.22679   0.12709   0.16667   0.00000  Uiso   1.00
O65    O     0.07184   0.26920   0.21281   0.00000  Uiso   1.00
O66    O     0.11022   0.05729   0.11265   0.00000  Uiso   1.00
O67    O     0.23241   0.28800   0.21104   0.00000  Uiso   1.00
O68    O     0.20673   0.04606   0.24245   0.00000  Uiso   1.00
O69    O     0.10372   0.29123   0.11271   0.00000  Uiso   1.00
O70    O     0.22679   0.20625   0.16667   0.00000  Uiso   1.00
O71    O     0.10655   0.12709   0.16666   0.00000  Uiso   1.00
O72    O     0.16667   0.20625   0.09613   0.00000  Uiso   1.00
O73    O     0.16667   0.12708   0.23720   0.00000  Uiso   1.00
O74    O     0.16667   0.20625   0.23720   0.00000  Uiso   1.00
O75    O     0.16667   0.12708   0.09613   0.00000  Uiso   1.00
O76    O     0.09012   0.09297   0.25394   0.00000  Uiso   1.00
S77    S     0.05044   0.08044   0.22711   0.00000  Uiso   1.00
S78    S     0.28844   0.22744   0.09202   0.00000  Uiso   1.00
S79    S     0.29243   0.11407   0.26023   0.00000  Uiso   1.00
S80    S     0.02851   0.26367   0.17648   0.00000  Uiso   1.00
C81    C     0.42102   0.16697   0.17079   0.00000  Uiso   1.00
C82    C     0.35242   0.20587   0.15867   0.00000  Uiso   1.00
C83    C     0.62430   0.16558   0.17247   0.00000  Uiso   1.00
C84    C     0.37668   0.16814   0.17858   0.00000  Uiso   1.00
C85    C     0.47354   0.02766   0.13472   0.00000  Uiso   1.00
C86    C     0.52754   0.30759   0.19716   0.00000  Uiso   1.00
C87    C     0.52278   0.02340   0.20189   0.00000  Uiso   1.00
C88    C     0.47210   0.31071   0.13521   0.00000  Uiso   1.00
C89    C     0.42742   0.04629   0.06578   0.00000  Uiso   1.00
C90    C     0.40932   0.09010   0.04046   0.00000  Uiso   1.00
C91    C     0.56750   0.26368   0.25693   0.00000  Uiso   1.00
C92    C     0.57930   0.16624   0.16833   0.00000  Uiso   1.00
C93    C     0.60646   0.27540   0.28807   0.00000  Uiso   1.00
C94    C     0.52904   0.02517   0.28726   0.00000  Uiso   1.00
C95    C     0.52020   0.06082   0.32478   0.00000  Uiso   1.00
C96    C     0.44310   0.26906   0.06785   0.00000  Uiso   1.00
C97    C     0.41028   0.28060   0.02600   0.00000  Uiso   1.00
C98    C     0.49945   0.16713   0.07361   0.00000  Uiso   1.00
C99    C     0.49854   0.16653   0.25950   0.00000  Uiso   1.00
C100   C     0.49855   0.16792   0.02169   0.00000  Uiso   1.00
C101   C     0.49814   0.16719   0.31126   0.00000  Uiso   1.00
C102   C     0.35680   0.13183   0.20361   0.00000  Uiso   1.00
C103   C     0.64507   0.19753   0.14449   0.00000  Uiso   1.00
C104   C     0.64749   0.13643   0.20724   0.00000  Uiso   1.00
Cu105  Cu    0.50000   0.21355   0.16667   0.00000  Uiso   1.00
Cu106  Cu    0.50000   0.11978   0.16667   0.00000  Uiso   1.00
H107   H     0.36685   0.04881   0.15810   0.00000  Uiso   1.00
H108   H     0.56987   0.22643   0.25068   0.00000  Uiso   1.00
H109   H     0.54036   0.26879   0.27812   0.00000  Uiso   1.00
H110   H     0.61775   0.30982   0.27735   0.00000  Uiso   1.00
H111   H     0.60027   0.27620   0.32738   0.00000  Uiso   1.00
H112   H     0.63076   0.24902   0.28396   0.00000  Uiso   1.00
H113   H     0.55554   0.00583   0.30457   0.00000  Uiso   1.00
H114   H     0.50190   0.00248   0.28300   0.00000  Uiso   1.00
H115   H     0.48966   0.07651   0.31523   0.00000  Uiso   1.00
H116   H     0.52007   0.04384   0.02848   0.00000  Uiso   1.00
H117   H     0.54427   0.08720   0.32670   0.00000  Uiso   1.00
H118   H     0.57280   0.21404   0.03729   0.00000  Uiso   1.00
H119   H     0.43733   0.23208   0.07481   0.00000  Uiso   1.00
H120   H     0.47358   0.27539   0.05397   0.00000  Uiso   1.00
H121   H     0.41911   0.30979   0.00222   0.00000  Uiso   1.00
H122   H     0.40644   0.25061   0.00142   0.00000  Uiso   1.00
H123   H     0.38045   0.28810   0.04039   0.00000  Uiso   1.00
H124   H     0.58920   0.15833   0.30261   0.00000  Uiso   1.00
H125   H     0.40188   0.29861   0.22999   0.00000  Uiso   1.00
H126   H     0.40134   0.02341   0.06989   0.00000  Uiso   1.00
H127   H     0.45105   0.03183   0.04337   0.00000  Uiso   1.00
H128   H     0.43364   0.11394   0.03127   0.00000  Uiso   1.00
H129   H     0.39159   0.08110   0.00615   0.00000  Uiso   1.00
H130   H     0.38861   0.10777   0.06462   0.00000  Uiso   1.00
N131   N     0.50000   0.28402   0.16667   0.00000  Uiso   1.00
N132   N     0.50000   0.04931   0.16667   0.00000  Uiso   1.00
O133   O     0.43988   0.20625   0.16666   0.00000  Uiso   1.00
O134   O     0.36123   0.05027   0.26092   0.00000  Uiso   1.00
O135   O     0.39284   0.04810   0.17908   0.00000  Uiso   1.00
O136   O     0.60145   0.27116   0.10709   0.00000  Uiso   1.00
O137   O     0.65377   0.23913   0.05757   0.00000  Uiso   1.00
O138   O     0.58721   0.19361   0.06290   0.00000  Uiso   1.00
O139   O     0.61637   0.06409   0.25309   0.00000  Uiso   1.00
O140   O     0.65563   0.11827   0.30452   0.00000  Uiso   1.00
O141   O     0.58302   0.14280   0.27101   0.00000  Uiso   1.00
O142   O     0.36208   0.29451   0.13145   0.00000  Uiso   1.00
O143   O     0.66034   0.27942   0.20465   0.00000  Uiso   1.00
O144   O     0.56012   0.12709   0.16667   0.00000  Uiso   1.00
O145   O     0.40517   0.26920   0.21281   0.00000  Uiso   1.00
O146   O     0.44356   0.05729   0.11265   0.00000  Uiso   1.00
O147   O     0.56575   0.28800   0.21104   0.00000  Uiso   1.00
O148   O     0.54007   0.04606   0.24245   0.00000  Uiso   1.00
O149   O     0.43705   0.29123   0.11271   0.00000  Uiso   1.00
O150   O     0.56012   0.20625   0.16667   0.00000  Uiso   1.00
O151   O     0.43988   0.12709   0.16666   0.00000  Uiso   1.00
O152   O     0.50000   0.20625   0.09613   0.00000  Uiso   1.00
O153   O     0.50000   0.12708   0.23720   0.00000  Uiso   1.00
O154   O     0.50000   0.20625   0.23720   0.00000  Uiso   1.00
O155   O     0.50000   0.12708   0.09613   0.00000  Uiso   1.00
O156   O     0.42346   0.09297   0.25394   0.00000  Uiso   1.00
S157   S     0.38378   0.08044   0.22711   0.00000  Uiso   1.00
S158   S     0.62178   0.22744   0.09202   0.00000  Uiso   1.00
S159   S     0.62577   0.11407   0.26023   0.00000  Uiso   1.00
S160   S     0.36184   0.26367   0.17648   0.00000  Uiso   1.00
C161   C     0.75435   0.16697   0.17079   0.00000  Uiso   1.00
C162   C     0.68575   0.20587   0.15867   0.00000  Uiso   1.00
C163   C     0.95763   0.16558   0.17247   0.00000  Uiso   1.00
C164   C     0.71001   0.16814   0.17858   0.00000  Uiso   1.00
C165   C     0.80687   0.02766   0.13472   0.00000  Uiso   1.00
C166   C     0.86087   0.30759   0.19716   0.00000  Uiso   1.00
C167   C     0.85611   0.02340   0.20189   0.00000  Uiso   1.00
C168   C     0.80543   0.31071   0.13521   0.00000  Uiso   1.00
C169   C     0.76076   0.04629   0.06578   0.00000  Uiso   1.00
C170   C     0.74265   0.09010   0.04046   0.00000  Uiso   1.00
C171   C     0.90084   0.26368   0.25693   0.00000  Uiso   1.00
C172   C     0.91264   0.16624   0.16833   0.00000  Uiso   1.00
C173   C     0.93979   0.27540   0.28807   0.00000  Uiso   1.00
C174   C     0.86237   0.02517   0.28726   0.00000  Uiso   1.00
C175   C     0.85354   0.06082   0.32478   0.00000  Uiso   1.00
C176   C     0.77643   0.26906   0.06785   0.00000  Uiso   1.00
C177   C     0.74361   0.28060   0.02600   0.00000  Uiso   1.00
C178   C     0.83278   0.16713   0.07361   0.00000  Uiso   1.00
C179   C     0.83187   0.16653   0.25950   0.00000  Uiso   1.00
C180   C     0.83189   0.16792   0.02169   0.00000  Uiso   1.00
C181   C     0.83147   0.16719   0.31126   0.00000  Uiso   1.00
C182   C     0.69014   0.13183   0.20361   0.00000  Uiso   1.00
C183   C     0.97840   0.19753   0.14449   0.00000  Uiso   1.00
C184   C     0.98083   0.13643   0.20724   0.00000  Uiso   1.00
Cu185  Cu    0.83333   0.21355   0.16667   0.00000  Uiso   1.00
Cu186  Cu    0.83333   0.11978   0.16667   0.00000  Uiso   1.00
H187   H     0.70018   0.04881   0.15810   0.00000  Uiso   1.00
H188   H     0.90320   0.22643   0.25068   0.00000  Uiso   1.00
H189   H     0.87369   0.26879   0.27812   0.00000  Uiso   1.00
H190   H     0.95109   0.30982   0.27735   0.00000  Uiso   1.00
H191   H     0.93360   0.27620   0.32738   0.00000  Uiso   1.00
H192   H     0.96409   0.24902   0.28396   0.00000  Uiso   1.00
H193   H     0.88887   0.00583   0.30457   0.00000  Uiso   1.00
H194   H     0.83523   0.00248   0.28300   0.00000  Uiso   1.00
H195   H     0.82300   0.07651   0.31523   0.00000  Uiso   1.00
H196   H     0.85341   0.04384   0.02848   0.00000  Uiso   1.00
H197   H     0.87760   0.08720   0.32670   0.00000  Uiso   1.00
H198   H     0.90614   0.21404   0.03729   0.00000  Uiso   1.00
H199   H     0.77067   0.23208   0.07481   0.00000  Uiso   1.00
H200   H     0.80692   0.27539   0.05397   0.00000  Uiso   1.00
H201   H     0.75245   0.30979   0.00222   0.00000  Uiso   1.00
H202   H     0.73977   0.25061   0.00142   0.00000  Uiso   1.00
H203   H     0.71378   0.28810   0.04039   0.00000  Uiso   1.00
H204   H     0.92254   0.15833   0.30261   0.00000  Uiso   1.00
H205   H     0.73521   0.29861   0.22999   0.00000  Uiso   1.00
H206   H     0.73468   0.02341   0.06989   0.00000  Uiso   1.00
H207   H     0.78438   0.03183   0.04337   0.00000  Uiso   1.00
H208   H     0.76697   0.11394   0.03127   0.00000  Uiso   1.00
H209   H     0.72492   0.08110   0.00615   0.00000  Uiso   1.00
H210   H     0.72194   0.10777   0.06462   0.00000  Uiso   1.00
N211   N     0.83333   0.28402   0.16667   0.00000  Uiso   1.00
N212   N     0.83333   0.04931   0.16667   0.00000  Uiso   1.00
O213   O     0.77321   0.20625   0.16666   0.00000  Uiso   1.00
O214   O     0.69456   0.05027   0.26092   0.00000  Uiso   1.00
O215   O     0.72618   0.04810   0.17908   0.00000  Uiso   1.00
O216   O     0.93479   0.27116   0.10709   0.00000  Uiso   1.00
O217   O     0.98711   0.23913   0.05757   0.00000  Uiso   1.00
O218   O     0.92054   0.19361   0.06290   0.00000  Uiso   1.00
O219   O     0.94970   0.06409   0.25309   0.00000  Uiso   1.00
O220   O     0.98897   0.11827   0.30452   0.00000  Uiso   1.00
O221   O     0.91635   0.14280   0.27101   0.00000  Uiso   1.00
O222   O     0.69541   0.29451   0.13145   0.00000  Uiso   1.00
O223   O     0.99368   0.27942   0.20465   0.00000  Uiso   1.00
O224   O     0.89345   0.12709   0.16667   0.00000  Uiso   1.00
O225   O     0.73850   0.26920   0.21281   0.00000  Uiso   1.00
O226   O     0.77689   0.05729   0.11265   0.00000  Uiso   1.00
O227   O     0.89908   0.28800   0.21104   0.00000  Uiso   1.00
O228   O     0.87340   0.04606   0.24245   0.00000  Uiso   1.00
O229   O     0.77039   0.29123   0.11271   0.00000  Uiso   1.00
O230   O     0.89345   0.20625   0.16667   0.00000  Uiso   1.00
O231   O     0.77321   0.12709   0.16666   0.00000  Uiso   1.00
O232   O     0.83333   0.20625   0.09613   0.00000  Uiso   1.00
O233   O     0.83333   0.12708   0.23720   0.00000  Uiso   1.00
O234   O     0.83333   0.20625   0.23720   0.00000  Uiso   1.00
O235   O     0.83333   0.12708   0.09613   0.00000  Uiso   1.00
O236   O     0.75679   0.09297   0.25394   0.00000  Uiso   1.00
S237   S     0.71711   0.08044   0.22711   0.00000  Uiso   1.00
S238   S     0.95511   0.22744   0.09202   0.00000  Uiso   1.00
S239   S     0.95910   0.11407   0.26023   0.00000  Uiso   1.00
S240   S     0.69518   0.26367   0.17648   0.00000  Uiso   1.00
C241   C     0.08769   0.50030   0.17079   0.00000  Uiso   1.00
C242   C     0.01909   0.53921   0.15867   0.00000  Uiso   1.00
C243   C     0.29097   0.49891   0.17247   0.00000  Uiso   1.00
C244   C     0.04335   0.50148   0.17858   0.00000  Uiso   1.00
C245   C     0.14021   0.36100   0.13472   0.00000  Uiso   1.00
C246   C     0.19421   0.64092   0.19716   0.00000  Uiso   1.00
C247   C     0.18945   0.35674   0.20189   0.00000  Uiso   1.00
C248   C     0.13876   0.64404   0.13521   0.00000  Uiso   1.00
C249   C     0.09409   0.37962   0.06578   0.00000  Uiso   1.00
C250   C     0.07598   0.42343   0.04046   0.00000  Uiso   1.00
C251   C     0.23417   0.59701   0.25693   0.00000  Uiso   1.00
C252   C     0.24597   0.49957   0.16833   0.00000  Uiso   1.00
C253   C     0.27312   0.60874   0.28807   0.00000  Uiso   1.00
C254   C     0.19570   0.35851   0.28726   0.00000  Uiso   1.00
C255   C     0.18687   0.39415   0.32478   0.00000  Uiso   1.00
C256   C     0.10977   0.60240   0.06785   0.00000  Uiso   1.00
C257   C     0.07694   0.61393   0.02600   0.00000  Uiso   1.00
C258   C     0.16611   0.50046   0.07361   0.00000  Uiso   1.00
C259   C     0.16520   0.49987   0.25950   0.00000  Uiso   1.00
C260   C     0.16522   0.50125   0.02169   0.00000  Uiso   1.00
C261   C     0.16481   0.50052   0.31126   0.00000  Uiso   1.00
C262   C     0.02347   0.46516   0.20361   0.00000  Uiso   1.00
C263   C     0.31174   0.53086   0.14449   0.00000  Uiso   1.00
C264   C     0.31416   0.46976   0.20724   0.00000  Uiso   1.00
Cu265  Cu    0.16667   0.54689   0.16667   0.00000  Uiso   1.00
Cu266  Cu    0.16667   0.45311   0.16667   0.00000  Uiso   1.00
H267   H     0.03351   0.38214   0.15810   0.00000  Uiso   1.00
H268   H     0.23653   0.55976   0.25068   0.00000  Uiso   1.00
H269   H     0.20703   0.60212   0.27812   0.00000  Uiso   1.00
H270   H     0.28442   0.64316   0.27735   0.00000  Uiso   1.00
H271   H     0.26693   0.60953   0.32738   0.00000  Uiso   1.00
H272   H     0.29742   0.58235   0.28396   0.00000  Uiso   1.00
H273   H     0.22221   0.33916   0.30457   0.00000  Uiso   1.00
H274   H     0.16856   0.33582   0.28300   0.00000  Uiso   1.00
H275   H     0.15633   0.40984   0.31523   0.00000  Uiso   1.00
H276   H     0.18674   0.37718   0.02848   0.00000  Uiso   1.00
H277   H     0.21093   0.42054   0.32670   0.00000  Uiso   1.00
H278   H     0.23947   0.54737   0.03729   0.00000  Uiso   1.00
H279   H     0.10400   0.56541   0.07481   0.00000  Uiso   1.00
H280   H     0.14025   0.60872   0.05397   0.00000  Uiso   1.00
H281   H     0.08578   0.64312   0.00222   0.00000  Uiso   1.00
H282   H     0.07311   0.58395   0.00142   0.00000  Uiso   1.00
H283   H     0.04712   0.62143   0.04039   0.00000  Uiso   1.00
H284   H     0.25587   0.49166   0.30261   0.00000  Uiso   1.00
H285   H     0.06855   0.63194   0.22999   0.00000  Uiso   1.00
H286   H     0.06801   0.35674   0.06989   0.00000  Uiso   1.00
H287   H     0.11772   0.36517   0.04337   0.00000  Uiso   1.00
H288   H     0.10030   0.44727   0.03127   0.00000  Uiso   1.00
H289   H     0.05825   0.41443   0.00615   0.00000  Uiso   1.00
H290   H     0.05528   0.44110   0.06462   0.00000  Uiso   1.00
N291   N     0.16667   0.61736   0.16667   0.00000  Uiso   1.00
N292   N     0.16667   0.38264   0.16667   0.00000  Uiso   1.00
O293   O     0.10655   0.53958   0.16666   0.00000  Uiso   1.00
O294   O     0.02790   0.38360   0.26092   0.00000  Uiso   1.00
O295   O     0.05951   0.38143   0.17908   0.00000  Uiso   1.00
O296   O     0.26812   0.60449   0.10709   0.00000  Uiso   1.00
O297   O     0.32044   0.57247   0.05757   0.00000  Uiso   1.00
O298   O     0.25387   0.52694   0.06290   0.00000  Uiso   1.00
O299   O     0.28304   0.39743   0.25309   0.00000  Uiso   1.00
O300   O     0.32230   0.45160   0.30452   0.00000  Uiso   1.00
O301   O     0.24969   0.47613   0.27101   0.00000  Uiso   1.00
O302   O     0.02874   0.62784   0.13145   0.00000  Uiso   1.00
O303   O     0.32701   0.61275   0.20465   0.00000  Uiso   1.00
O304   O     0.22679   0.46042   0.16667   0.00000  Uiso   1.00
O305   O     0.07184   0.60253   0.21281   0.00000  Uiso   1.00
O306   O     0.11022   0.39062   0.11265   0.00000  Uiso   1.00
O307   O     0.23241   0.62133   0.21104   0.00000  Uiso   1.00
O308   O     0.20673   0.37939   0.24245   0.00000  Uiso   1.00
O309   O     0.10372   0.62456   0.11271   0.00000  Uiso   1.00
O310   O     0.22679   0.53958   0.16667   0.00000  Uiso   1.00
O311   O     0.10655   0.46042   0.16666   0.00000  Uiso   1.00
O312   O     0.16667   0.53959   0.09613   0.00000  Uiso   1.00
O313   O     0.16667   0.46041   0.23720   0.00000  Uiso   1.00
O314   O     0.16667   0.53959   0.23720   0.00000  Uiso   1.00
O315   O     0.16667   0.46041   0.09613   0.00000  Uiso   1.00
O316   O     0.09012   0.42631   0.25394   0.00000  Uiso   1.00
S317   S     0.05044   0.41378   0.22711   0.00000  Uiso   1.00
S318   S     0.28844   0.56078   0.09202   0.00000  Uiso   1.00
S319   S     0.29243   0.44741   0.26023   0.00000  Uiso   1.00
S320   S     0.02851   0.59701   0.17648   0.00000  Uiso   1.00
C321   C     0.42102   0.50030   0.17079   0.00000  Uiso   1.00
C322   C     0.35242   0.53921   0.15867   0.00000  Uiso   1.00
C323   C     0.62430   0.49891   0.17247   0.00000  Uiso   1.00
C324   C     0.37668   0.50148   0.17858   0.00000  Uiso   1.00
C325   C     0.47354   0.36100   0.13472   0.00000  Uiso   1.00
C326   C     0.52754   0.64092   0.19716   0.00000  Uiso   1.00
C327   C     0.52278   0.35674   0.20189   0.00000  Uiso   1.00
C328   C     0.47210   0.64404   0.13521   0.00000  Uiso   1.00
C329   C     0.42742   0.37962   0.06578   0.00000  Uiso   1.00
C330   C     0.40932   0.42343   0.04046   0.00000  Uiso   1.00
C331   C     0.56750   0.59701   0.25693   0.00000  Uiso   1.00
C332   C     0.57930   0.49957   0.16833   0.00000  Uiso   1.00
C333   C     0.60646   0.60874   0.28807   0.00000  Uiso   1.00
C334   C     0.52904   0.35851   0.28726   0.00000  Uiso   1.00
C335   C     0.52020   0.39415   0.32478   0.00000  Uiso   1.00
C336   C     0.44310   0.60240   0.06785   0.00000  Uiso   1.00
C337   C     0.41028   0.61393   0.02600   0.00000  Uiso   1.00
C338   C     0.49945   0.50046   0.07361   0.00000  Uiso   1.00
C339   C     0.49854   0.49987   0.25950   0.00000  Uiso   1.00
C340   C     0.49855   0.50125   0.02169   0.00000  Uiso   1.00
C341   C     0.49814   0.50052   0.31126   0.00000  Uiso   1.00
C342   C     0.35680   0.46516   0.20361   0.00000  Uiso   1.00
C343   C     0.64507   0.53086   0.14449   0.00000  Uiso   1.00
C344   C     0.64749   0.46976   0.20724   0.00000  Uiso   1.00
Cu345  Cu    0.50000   0.54689   0.16667   0.00000  Uiso   1.00
Cu346  Cu    0.50000   0.45311   0.16667   0.00000  Uiso   1.00
H347   H     0.36685   0.38214   0.15810   0.00000  Uiso   1.00
H348   H     0.56987   0.55976   0.25068   0.00000  Uiso   1.00
H349   H     0.54036   0.60212   0.27812   0.00000  Uiso   1.00
H350   H     0.61775   0.64316   0.27735   0.00000  Uiso   1.00
H351   H     0.60027   0.60953   0.32738   0.00000  Uiso   1.00
H352   H     0.63076   0.58235   0.28396   0.00000  Uiso   1.00
H353   H     0.55554   0.33916   0.30457   0.00000  Uiso   1.00
H354   H     0.50190   0.33582   0.28300   0.00000  Uiso   1.00
H355   H     0.48966   0.40984   0.31523   0.00000  Uiso   1.00
H356   H     0.52007   0.37718   0.02848   0.00000  Uiso   1.00
H357   H     0.54427   0.42054   0.32670   0.00000  Uiso   1.00
H358   H     0.57280   0.54737   0.03729   0.00000  Uiso   1.00
H359   H     0.43733   0.56541   0.07481   0.00000  Uiso   1.00
H360   H     0.47358   0.60872   0.05397   0.00000  Uiso   1.00
H361   H     0.41911   0.64312   0.00222   0.00000  Uiso   1.00
H362   H     0.40644   0.58395   0.00142   0.00000  Uiso   1.00
H363   H     0.38045   0.62143   0.04039   0.00000  Uiso   1.00
H364   H     0.58920   0.49166   0.30261   0.00000  Uiso   1.00
H365   H     0.40188   0.63194   0.22999   0.00000  Uiso   1.00
H366   H     0.40134   0.35674   0.06989   0.00000  Uiso   1.00
H367   H     0.45105   0.36517   0.04337   0.00000  Uiso   1.00
H368   H     0.43364   0.44727   0.03127   0.00000  Uiso   1.00
H369   H     0.39159   0.41443   0.00615   0.00000  Uiso   1.00
H370   H     0.38861   0.44110   0.06462   0.00000  Uiso   1.00
N371   N     0.50000   0.61736   0.16667   0.00000  Uiso   1.00
N372   N     0.50000   0.38264   0.16667   0.00000  Uiso   1.00
O373   O     0.43988   0.53958   0.16666   0.00000  Uiso   1.00
O374   O     0.36123   0.38360   0.26092   0.00000  Uiso   1.00
O375   O     0.39284   0.38143   0.17908   0.00000  Uiso   1.00
O376   O     0.60145   0.60449   0.10709   0.00000  Uiso   1.00
O377   O     0.65377   0.57247   0.05757   0.00000  Uiso   1.00
O378   O     0.58721   0.52694   0.06290   0.00000  Uiso   1.00
O379   O     0.61637   0.39743   0.25309   0.00000  Uiso   1.00
O380   O     0.65563   0.45160   0.30452   0.00000  Uiso   1.00
O381   O     0.58302   0.47613   0.27101   0.00000  Uiso   1.00
O382   O     0.36208   0.62784   0.13145   0.00000  Uiso   1.00
O383   O     0.66034   0.61275   0.20465   0.00000  Uiso   1.00
O384   O     0.56012   0.46042   0.16667   0.00000  Uiso   1.00
O385   O     0.40517   0.60253   0.21281   0.00000  Uiso   1.00
O386   O     0.44356   0.39062   0.11265   0.00000  Uiso   1.00
O387   O     0.56575   0.62133   0.21104   0.00000  Uiso   1.00
O388   O     0.54007   0.37939   0.24245   0.00000  Uiso   1.00
O389   O     0.43705   0.62456   0.11271   0.00000  Uiso   1.00
O390   O     0.56012   0.53958   0.16667   0.00000  Uiso   1.00
O391   O     0.43988   0.46042   0.16666   0.00000  Uiso   1.00
O392   O     0.50000   0.53959   0.09613   0.00000  Uiso   1.00
O393   O     0.50000   0.46041   0.23720   0.00000  Uiso   1.00
O394   O     0.50000   0.53959   0.23720   0.00000  Uiso   1.00
O395   O     0.50000   0.46041   0.09613   0.00000  Uiso   1.00
O396   O     0.42346   0.42631   0.25394   0.00000  Uiso   1.00
S397   S     0.38378   0.41378   0.22711   0.00000  Uiso   1.00
S398   S     0.62178   0.56078   0.09202   0.00000  Uiso   1.00
S399   S     0.62577   0.44741   0.26023   0.00000  Uiso   1.00
S400   S     0.36184   0.59701   0.17648   0.00000  Uiso   1.00
C401   C     0.75435   0.50030   0.17079   0.00000  Uiso   1.00
C402   C     0.68575   0.53921   0.15867   0.00000  Uiso   1.00
C403   C     0.95763   0.49891   0.17247   0.00000  Uiso   1.00
C404   C     0.71001   0.50148   0.17858   0.00000  Uiso   1.00
C405   C     0.80687   0.36100   0.13472   0.00000  Uiso   1.00
C406   C     0.86087   0.64092   0.19716   0.00000  Uiso   1.00
C407   C     0.85611   0.35674   0.20189   0.00000  Uiso   1.00
C408   C     0.80543   0.64404   0.13521   0.00000  Uiso   1.00
C409   C     0.76076   0.37962   0.06578   0.00000  Uiso   1.00
C410   C     0.74265   0.42343   0.04046   0.00000  Uiso   1.00
C411   C     0.90084   0.59701   0.25693   0.00000  Uiso   1.00
C412   C     0.91264   0.49957   0.16833   0.00000  Uiso   1.00
C413   C     0.93979   0.60874   0.28807   0.00000  Uiso   1.00
C414   C     0.86237   0.35851   0.28726   0.00000  Uiso   1.00
C415   C     0.85354   0.39415   0.32478   0.00000  Uiso   1.00
C416   C     0.77643   0.60240   0.06785   0.00000  Uiso   1.00
C417   C     0.74361   0.61393   0.02600   0.00000  Uiso   1.00
C418   C     0.83278   0.50046   0.07361   0.00000  Uiso   1.00
C419   C     0.83187   0.49987   0.25950   0.00000  Uiso   1.00
C420   C     0.83189   0.50125   0.02169   0.00000  Uiso   1.00
C421   C     0.83147   0.50052   0.31126   0.00000  Uiso   1.00
C422   C     0.69014   0.46516   0.20361   0.00000  Uiso   1.00
C423   C     0.97840   0.53086   0.14449   0.00000  Uiso   1.00
C424   C     0.98083   0.46976   0.20724   0.00000  Uiso   1.00
Cu425  Cu    0.83333   0.54689   0.16667   0.00000  Uiso   1.00
Cu426  Cu    0.83333   0.45311   0.16667   0.00000  Uiso   1.00
H427   H     0.70018   0.38214   0.15810   0.00000  Uiso   1.00
H428   H     0.90320   0.55976   0.25068   0.00000  Uiso   1.00
H429   H     0.87369   0.60212   0.27812   0.00000  Uiso   1.00
H430   H     0.95109   0.64316   0.27735   0.00000  Uiso   1.00
H431   H     0.93360   0.60953   0.32738   0.00000  Uiso   1.00
H432   H     0.96409   0.58235   0.28396   0.00000  Uiso   1.00
H433   H     0.88887   0.33916   0.30457   0.00000  Uiso   1.00
H434   H     0.83523   0.33582   0.28300   0.00000  Uiso   1.00
H435   H     0.82300   0.40984   0.31523   0.00000  Uiso   1.00
H436   H     0.85341   0.37718   0.02848   0.00000  Uiso   1.00
H437   H     0.87760   0.42054   0.32670   0.00000  Uiso   1.00
H438   H     0.90614   0.54737   0.03729   0.00000  Uiso   1.00
H439   H     0.77067   0.56541   0.07481   0.00000  Uiso   1.00
H440   H     0.80692   0.60872   0.05397   0.00000  Uiso   1.00
H441   H     0.75245   0.64312   0.00222   0.00000  Uiso   1.00
H442   H     0.73977   0.58395   0.00142   0.00000  Uiso   1.00
H443   H     0.71378   0.62143   0.04039   0.00000  Uiso   1.00
H444   H     0.92254   0.49166   0.30261   0.00000  Uiso   1.00
H445   H     0.73521   0.63194   0.22999   0.00000  Uiso   1.00
H446   H     0.73468   0.35674   0.06989   0.00000  Uiso   1.00
H447   H     0.78438   0.36517   0.04337   0.00000  Uiso   1.00
H448   H     0.76697   0.44727   0.03127   0.00000  Uiso   1.00
H449   H     0.72492   0.41443   0.00615   0.00000  Uiso   1.00
H450   H     0.72194   0.44110   0.06462   0.00000  Uiso   1.00
N451   N     0.83333   0.61736   0.16667   0.00000  Uiso   1.00
N452   N     0.83333   0.38264   0.16667   0.00000  Uiso   1.00
O453   O     0.77321   0.53958   0.16666   0.00000  Uiso   1.00
O454   O     0.69456   0.38360   0.26092   0.00000  Uiso   1.00
O455   O     0.72618   0.38143   0.17908   0.00000  Uiso   1.00
O456   O     0.93479   0.60449   0.10709   0.00000  Uiso   1.00
O457   O     0.98711   0.57247   0.05757   0.00000  Uiso   1.00
O458   O     0.92054   0.52694   0.06290   0.00000  Uiso   1.00
O459   O     0.94970   0.39743   0.25309   0.00000  Uiso   1.00
O460   O     0.98897   0.45160   0.30452   0.00000  Uiso   1.00
O461   O     0.91635   0.47613   0.27101   0.00000  Uiso   1.00
O462   O     0.69541   0.62784   0.13145   0.00000  Uiso   1.00
O463   O     0.99368   0.61275   0.20465   0.00000  Uiso   1.00
O464   O     0.89345   0.46042   0.16667   0.00000  Uiso   1.00
O465   O     0.73850   0.60253   0.21281   0.00000  Uiso   1.00
O466   O     0.77689   0.39062   0.11265   0.00000  Uiso   1.00
O467   O     0.89908   0.62133   0.21104   0.00000  Uiso   1.00
O468   O     0.87340   0.37939   0.24245   0.00000  Uiso   1.00
O469   O     0.77039   0.62456   0.11271   0.00000  Uiso   1.00
O470   O     0.89345   0.53958   0.16667   0.00000  Uiso   1.00
O471   O     0.77321   0.46042   0.16666   0.00000  Uiso   1.00
O472   O     0.83333   0.53959   0.09613   0.00000  Uiso   1.00
O473   O     0.83333   0.46041   0.23720   0.00000  Uiso   1.00
O474   O     0.83333   0.53959   0.23720   0.00000  Uiso   1.00
O475   O     0.83333   0.46041   0.09613   0.00000  Uiso   1.00
O476   O     0.75679   0.42631   0.25394   0.00000  Uiso   1.00
S477   S     0.71711   0.41378   0.22711   0.00000  Uiso   1.00
S478   S     0.95511   0.56078   0.09202   0.00000  Uiso   1.00
S479   S     0.95910   0.44741   0.26023   0.00000  Uiso   1.00
S480   S     0.69518   0.59701   0.17648   0.00000  Uiso   1.00
C481   C     0.08769   0.83363   0.17079   0.00000  Uiso   1.00
C482   C     0.01909   0.87254   0.15867   0.00000  Uiso   1.00
C483   C     0.29097   0.83224   0.17247   0.00000  Uiso   1.00
C484   C     0.04335   0.83481   0.17858   0.00000  Uiso   1.00
C485   C     0.14021   0.69433   0.13472   0.00000  Uiso   1.00
C486   C     0.19421   0.97425   0.19716   0.00000  Uiso   1.00
C487   C     0.18945   0.69007   0.20189   0.00000  Uiso   1.00
C488   C     0.13876   0.97737   0.13521   0.00000  Uiso   1.00
C489   C     0.09409   0.71296   0.06578   0.00000  Uiso   1.00
C490   C     0.07598   0.75676   0.04046   0.00000  Uiso   1.00
C491   C     0.23417   0.93034   0.25693   0.00000  Uiso   1.00
C492   C     0.24597   0.83291   0.16833   0.00000  Uiso   1.00
C493   C     0.27312   0.94207   0.28807   0.00000  Uiso   1.00
C494   C     0.19570   0.69184   0.28726   0.00000  Uiso   1.00
C495   C     0.18687   0.72748   0.32478   0.00000  Uiso   1.00
C496   C     0.10977   0.93573   0.06785   0.00000  Uiso   1.00
C497   C     0.07694   0.94726   0.02600   0.00000  Uiso   1.00
C498   C     0.16611   0.83380   0.07361   0.00000  Uiso   1.00
C499   C     0.16520   0.83320   0.25950   0.00000  Uiso   1.00
C500   C     0.16522   0.83459   0.02169   0.00000  Uiso   1.00
C501   C     0.16481   0.83386   0.31126   0.00000  Uiso   1.00
C502   C     0.02347   0.79850   0.20361   0.00000  Uiso   1.00
C503   C     0.31174   0.86420   0.14449   0.00000  Uiso   1.00
C504   C     0.31416   0.80309   0.20724   0.00000  Uiso   1.00
Cu505  Cu    0.16667   0.88022   0.16667   0.00000  Uiso   1.00
Cu506  Cu    0.16667   0.78645   0.16667   0.00000  Uiso   1.00
H507   H     0.03351   0.71548   0.15810   0.00000  Uiso   1.00
H508   H     0.23653   0.89310   0.25068   0.00000  Uiso   1.00
H509   H     0.20703   0.93546   0.27812   0.00000  Uiso   1.00
H510   H     0.28442   0.97649   0.27735   0.00000  Uiso   1.00
H511   H     0.26693   0.94286   0.32738   0.00000  Uiso   1.00
H512   H     0.29742   0.91568   0.28396   0.00000  Uiso   1.00
H513   H     0.22221   0.67250   0.30457   0.00000  Uiso   1.00
H514   H     0.16856   0.66915   0.28300   0.00000  Uiso   1.00
H515   H     0.15633   0.74317   0.31523   0.00000  Uiso   1.00
H516   H     0.18674   0.71051   0.02848   0.00000  Uiso   1.00
H517   H     0.21093   0.75387   0.32670   0.00000  Uiso   1.00
H518   H     0.23947   0.88071   0.03729   0.00000  Uiso   1.00
H519   H     0.10400   0.89874   0.07481   0.00000  Uiso   1.00
H520   H     0.14025   0.94206   0.05397   0.00000  Uiso   1.00
H521   H     0.08578   0.97645   0.00222   0.00000  Uiso   1.00
H522   H     0.07311   0.91728   0.00142   0.00000  Uiso   1.00
H523   H     0.04712   0.95477   0.04039   0.00000  Uiso   1.00
H524   H     0.25587   0.82499   0.30261   0.00000  Uiso   1.00
H525   H     0.06855   0.96527   0.22999   0.00000  Uiso   1.00
H526   H     0.06801   0.69008   0.06989   0.00000  Uiso   1.00
H527   H     0.11772   0.69850   0.04337   0.00000  Uiso   1.00
H528   H     0.10030   0.78061   0.03127   0.00000  Uiso   1.00
H529   H     0.05825   0.74776   0.00615   0.00000  Uiso   1.00
H530   H     0.05528   0.77443   0.06462   0.00000  Uiso   1.00
N531   N     0.16667   0.95069   0.16667   0.00000  Uiso   1.00
N532   N     0.16667   0.71598   0.16667   0.00000  Uiso   1.00
O533   O     0.10655   0.87291   0.16666   0.00000  Uiso   1.00
O534   O     0.02790   0.71694   0.26092   0.00000  Uiso   1.00
O535   O     0.05951   0.71477   0.17908   0.00000  Uiso   1.00
O536   O     0.26812   0.93782   0.10709   0.00000  Uiso   1.00
O537   O     0.32044   0.90580   0.05757   0.00000  Uiso   1.00
O538   O     0.25387   0.86027   0.06290   0.00000  Uiso   1.00
O539   O     0.28304   0.73076   0.25309   0.00000  Uiso   1.00
O540   O     0.32230   0.78493   0.30452   0.00000  Uiso   1.00
O541   O     0.24969   0.80947   0.27101   0.00000  Uiso   1.00
O542   O     0.02874   0.96118   0.13145   0.00000  Uiso   1.00
O543   O     0.32701   0.94609   0.20465   0.00000  Uiso   1.00
O544   O     0.22679   0.79375   0.16667   0.00000  Uiso   1.00
O545   O     0.07184   0.93587   0.21281   0.00000  Uiso   1.00
O546   O     0.11022   0.72395   0.11265   0.00000  Uiso   1.00
O547   O     0.23241   0.95467   0.21104   0.00000  Uiso   1.00
O548   O     0.20673   0.71272   0.24245   0.00000  Uiso   1.00
O549   O     0.10372   0.95790   0.11271   0.00000  Uiso   1.00
O550   O     0.22679   0.87291   0.16667   0.00000  Uiso   1.00
O551   O     0.10655   0.79375   0.16666   0.00000  Uiso   1.00
O552   O     0.16667   0.87292   0.09613   0.00000  Uiso   1.00
O553   O     0.16667   0.79375   0.23720   0.00000  Uiso   1.00
O554   O     0.16667   0.87292   0.23720   0.00000  Uiso   1.00
O555   O     0.16667   0.79375   0.09613   0.00000  Uiso   1.00
O556   O     0.09012   0.75964   0.25394   0.00000  Uiso   1.00
S557   S     0.05044   0.74711   0.22711   0.00000  Uiso   1.00
S558   S     0.28844   0.89411   0.09202   0.00000  Uiso   1.00
S559   S     0.29243   0.78074   0.26023   0.00000  Uiso   1.00
S560   S     0.02851   0.93034   0.17648   0.00000  Uiso   1.00
C561   C     0.42102   0.83363   0.17079   0.00000  Uiso   1.00
C562   C     0.35242   0.87254   0.15867   0.00000  Uiso   1.00
C563   C     0.62430   0.83224   0.17247   0.00000  Uiso   1.00
C564   C     0.37668   0.83481   0.17858   0.00000  Uiso   1.00
C565   C     0.47354   0.69433   0.13472   0.00000  Uiso   1.00
C566   C     0.52754   0.97425   0.19716   0.00000  Uiso   1.00
C567   C     0.52278   0.69007   0.20189   0.00000  Uiso   1.00
C568   C     0.47210   0.97737   0.13521   0.00000  Uiso   1.00
C569   C     0.42742   0.71296   0.06578   0.00000  Uiso   1.00
C570   C     0.40932   0.75676   0.04046   0.00000  Uiso   1.00
C571   C     0.56750   0.93034   0.25693   0.00000  Uiso   1.00
C572   C     0.57930   0.83291   0.16833   0.00000  Uiso   1.00
C573   C     0.60646   0.94207   0.28807   0.00000  Uiso   1.00
C574   C     0.52904   0.69184   0.28726   0.00000  Uiso   1.00
C575   C     0.52020   0.72748   0.32478   0.00000  Uiso   1.00
C576   C     0.44310   0.93573   0.06785   0.00000  Uiso   1.00
C577   C     0.41028   0.94726   0.02600   0.00000  Uiso   1.00
C578   C     0.49945   0.83380   0.07361   0.00000  Uiso   1.00
C579   C     0.49854   0.83320   0.25950   0.00000  Uiso   1.00
C580   C     0.49855   0.83459   0.02169   0.00000  Uiso   1.00
C581   C     0.49814   0.83386   0.31126   0.00000  Uiso   1.00
C582   C     0.35680   0.79850   0.20361   0.00000  Uiso   1.00
C583   C     0.64507   0.86420   0.14449   0.00000  Uiso   1.00
C584   C     0.64749   0.80309   0.20724   0.00000  Uiso   1.00
Cu585  Cu    0.50000   0.88022   0.16667   0.00000  Uiso   1.00
Cu586  Cu    0.50000   0.78645   0.16667   0.00000  Uiso   1.00
H587   H     0.36685   0.71548   0.15810   0.00000  Uiso   1.00
H588   H     0.56987   0.89310   0.25068   0.00000  Uiso   1.00
H589   H     0.54036   0.93546   0.27812   0.00000  Uiso   1.00
H590   H     0.61775   0.97649   0.27735   0.00000  Uiso   1.00
H591   H     0.60027   0.94286   0.32738   0.00000  Uiso   1.00
H592   H     0.63076   0.91568   0.28396   0.00000  Uiso   1.00
H593   H     0.55554   0.67250   0.30457   0.00000  Uiso   1.00
H594   H     0.50190   0.66915   0.28300   0.00000  Uiso   1.00
H595   H     0.48966   0.74317   0.31523   0.00000  Uiso   1.00
H596   H     0.52007   0.71051   0.02848   0.00000  Uiso   1.00
H597   H     0.54427   0.75387   0.32670   0.00000  Uiso   1.00
H598   H     0.57280   0.88071   0.03729   0.00000  Uiso   1.00
H599   H     0.43733   0.89874   0.07481   0.00000  Uiso   1.00
H600   H     0.47358   0.94206   0.05397   0.00000  Uiso   1.00
H601   H     0.41911   0.97645   0.00222   0.00000  Uiso   1.00
H602   H     0.40644   0.91728   0.00142   0.00000  Uiso   1.00
H603   H     0.38045   0.95477   0.04039   0.00000  Uiso   1.00
H604   H     0.58920   0.82499   0.30261   0.00000  Uiso   1.00
H605   H     0.40188   0.96527   0.22999   0.00000  Uiso   1.00
H606   H     0.40134   0.69008   0.06989   0.00000  Uiso   1.00
H607   H     0.45105   0.69850   0.04337   0.00000  Uiso   1.00
H608   H     0.43364   0.78061   0.03127   0.00000  Uiso   1.00
H609   H     0.39159   0.74776   0.00615   0.00000  Uiso   1.00
H610   H     0.38861   0.77443   0.06462   0.00000  Uiso   1.00
N611   N     0.50000   0.95069   0.16667   0.00000  Uiso   1.00
N612   N     0.50000   0.71598   0.16667   0.00000  Uiso   1.00
O613   O     0.43988   0.87291   0.16666   0.00000  Uiso   1.00
O614   O     0.36123   0.71694   0.26092   0.00000  Uiso   1.00
O615   O     0.39284   0.71477   0.17908   0.00000  Uiso   1.00
O616   O     0.60145   0.93782   0.10709   0.00000  Uiso   1.00
O617   O     0.65377   0.90580   0.05757   0.00000  Uiso   1.00
O618   O     0.58721   0.86027   0.06290   0.00000  Uiso   1.00
O619   O     0.61637   0.73076   0.25309   0.00000  Uiso   1.00
O620   O     0.65563   0.78493   0.30452   0.00000  Uiso   1.00
O621   O     0.58302   0.80947   0.27101   0.00000  Uiso   1.00
O622   O     0.36208   0.96118   0.13145   0.00000  Uiso   1.00
O623   O     0.66034   0.94609   0.20465   0.00000  Uiso   1.00
O624   O     0.56012   0.79375   0.16667   0.00000  Uiso   1.00
O625   O     0.40517   0.93587   0.21281   0.00000  Uiso   1.00
O626   O     0.44356   0.72395   0.11265   0.00000  Uiso   1.00
O627   O     0.56575   0.95467   0.21104   0.00000  Uiso   1.00
O628   O     0.54007   0.71272   0.24245   0.00000  Uiso   1.00
O629   O     0.43705   0.95790   0.11271   0.00000  Uiso   1.00
O630   O     0.56012   0.87291   0.16667   0.00000  Uiso   1.00
O631   O     0.43988   0.79375   0.16666   0.00000  Uiso   1.00
O632   O     0.50000   0.87292   0.09613   0.00000  Uiso   1.00
O633   O     0.50000   0.79375   0.23720   0.00000  Uiso   1.00
O634   O     0.50000   0.87292   0.23720   0.00000  Uiso   1.00
O635   O     0.50000   0.79375   0.09613   0.00000  Uiso   1.00
O636   O     0.42346   0.75964   0.25394   0.00000  Uiso   1.00
S637   S     0.38378   0.74711   0.22711   0.00000  Uiso   1.00
S638   S     0.62178   0.89411   0.09202   0.00000  Uiso   1.00
S639   S     0.62577   0.78074   0.26023   0.00000  Uiso   1.00
S640   S     0.36184   0.93034   0.17648   0.00000  Uiso   1.00
C641   C     0.75435   0.83363   0.17079   0.00000  Uiso   1.00
C642   C     0.68575   0.87254   0.15867   0.00000  Uiso   1.00
C643   C     0.95763   0.83224   0.17247   0.00000  Uiso   1.00
C644   C     0.71001   0.83481   0.17858   0.00000  Uiso   1.00
C645   C     0.80687   0.69433   0.13472   0.00000  Uiso   1.00
C646   C     0.86087   0.97425   0.19716   0.00000  Uiso   1.00
C647   C     0.85611   0.69007   0.20189   0.00000  Uiso   1.00
C648   C     0.80543   0.97737   0.13521   0.00000  Uiso   1.00
C649   C     0.76076   0.71296   0.06578   0.00000  Uiso   1.00
C650   C     0.74265   0.75676   0.04046   0.00000  Uiso   1.00
C651   C     0.90084   0.93034   0.25693   0.00000  Uiso   1.00
C652   C     0.91264   0.83291   0.16833   0.00000  Uiso   1.00
C653   C     0.93979   0.94207   0.28807   0.00000  Uiso   1.00
C654   C     0.86237   0.69184   0.28726   0.00000  Uiso   1.00
C655   C     0.85354   0.72748   0.32478   0.00000  Uiso   1.00
C656   C     0.77643   0.93573   0.06785   0.00000  Uiso   1.00
C657   C     0.74361   0.94726   0.02600   0.00000  Uiso   1.00
C658   C     0.83278   0.83380   0.07361   0.00000  Uiso   1.00
C659   C     0.83187   0.83320   0.25950   0.00000  Uiso   1.00
C660   C     0.83189   0.83459   0.02169   0.00000  Uiso   1.00
C661   C     0.83147   0.83386   0.31126   0.00000  Uiso   1.00
C662   C     0.69014   0.79850   0.20361   0.00000  Uiso   1.00
C663   C     0.97840   0.86420   0.14449   0.00000  Uiso   1.00
C664   C     0.98083   0.80309   0.20724   0.00000  Uiso   1.00
Cu665  Cu    0.83333   0.88022   0.16667   0.00000  Uiso   1.00
Cu666  Cu    0.83333   0.78645   0.16667   0.00000  Uiso   1.00
H667   H     0.70018   0.71548   0.15810   0.00000  Uiso   1.00
H668   H     0.90320   0.89310   0.25068   0.00000  Uiso   1.00
H669   H     0.87369   0.93546   0.27812   0.00000  Uiso   1.00
H670   H     0.95109   0.97649   0.27735   0.00000  Uiso   1.00
H671   H     0.93360   0.94286   0.32738   0.00000  Uiso   1.00
H672   H     0.96409   0.91568   0.28396   0.00000  Uiso   1.00
H673   H     0.88887   0.67250   0.30457   0.00000  Uiso   1.00
H674   H     0.83523   0.66915   0.28300   0.00000  Uiso   1.00
H675   H     0.82300   0.74317   0.31523   0.00000  Uiso   1.00
H676   H     0.85341   0.71051   0.02848   0.00000  Uiso   1.00
H677   H     0.87760   0.75387   0.32670   0.00000  Uiso   1.00
H678   H     0.90614   0.88071   0.03729   0.00000  Uiso   1.00
H679   H     0.77067   0.89874   0.07481   0.00000  Uiso   1.00
H680   H     0.80692   0.94206   0.05397   0.00000  Uiso   1.00
H681   H     0.75245   0.97645   0.00222   0.00000  Uiso   1.00
H682   H     0.73977   0.91728   0.00142   0.00000  Uiso   1.00
H683   H     0.71378   0.95477   0.04039   0.00000  Uiso   1.00
H684   H     0.92254   0.82499   0.30261   0.00000  Uiso   1.00
H685   H     0.73521   0.96527   0.22999   0.00000  Uiso   1.00
H686   H     0.73468   0.69008   0.06989   0.00000  Uiso   1.00
H687   H     0.78438   0.69850   0.04337   0.00000  Uiso   1.00
H688   H     0.76697   0.78061   0.03127   0.00000  Uiso   1.00
H689   H     0.72492   0.74776   0.00615   0.00000  Uiso   1.00
H690   H     0.72194   0.77443   0.06462   0.00000  Uiso   1.00
N691   N     0.83333   0.95069   0.16667   0.00000  Uiso   1.00
N692   N     0.83333   0.71598   0.16667   0.00000  Uiso   1.00
O693   O     0.77321   0.87291   0.16666   0.00000  Uiso   1.00
O694   O     0.69456   0.71694   0.26092   0.00000  Uiso   1.00
O695   O     0.72618   0.71477   0.17908   0.00000  Uiso   1.00
O696   O     0.93479   0.93782   0.10709   0.00000  Uiso   1.00
O697   O     0.98711   0.90580   0.05757   0.00000  Uiso   1.00
O698   O     0.92054   0.86027   0.06290   0.00000  Uiso   1.00
O699   O     0.94970   0.73076   0.25309   0.00000  Uiso   1.00
O700   O     0.98897   0.78493   0.30452   0.00000  Uiso   1.00
O701   O     0.91635   0.80947   0.27101   0.00000  Uiso   1.00
O702   O     0.69541   0.96118   0.13145   0.00000  Uiso   1.00
O703   O     0.99368   0.94609   0.20465   0.00000  Uiso   1.00
O704   O     0.89345   0.79375   0.16667   0.00000  Uiso   1.00
O705   O     0.73850   0.93587   0.21281   0.00000  Uiso   1.00
O706   O     0.77689   0.72395   0.11265   0.00000  Uiso   1.00
O707   O     0.89908   0.95467   0.21104   0.00000  Uiso   1.00
O708   O     0.87340   0.71272   0.24245   0.00000  Uiso   1.00
O709   O     0.77039   0.95790   0.11271   0.00000  Uiso   1.00
O710   O     0.89345   0.87291   0.16667   0.00000  Uiso   1.00
O711   O     0.77321   0.79375   0.16666   0.00000  Uiso   1.00
O712   O     0.83333   0.87292   0.09613   0.00000  Uiso   1.00
O713   O     0.83333   0.79375   0.23720   0.00000  Uiso   1.00
O714   O     0.83333   0.87292   0.23720   0.00000  Uiso   1.00
O715   O     0.83333   0.79375   0.09613   0.00000  Uiso   1.00
O716   O     0.75679   0.75964   0.25394   0.00000  Uiso   1.00
S717   S     0.71711   0.74711   0.22711   0.00000  Uiso   1.00
S718   S     0.95511   0.89411   0.09202   0.00000  Uiso   1.00
S719   S     0.95910   0.78074   0.26023   0.00000  Uiso   1.00
S720   S     0.69518   0.93034   0.17648   0.00000  Uiso   1.00
C721   C     0.08769   0.16697   0.50413   0.00000  Uiso   1.00
C722   C     0.01909   0.20587   0.49201   0.00000  Uiso   1.00
C723   C     0.29097   0.16558   0.50581   0.00000  Uiso   1.00
C724   C     0.04335   0.16814   0.51191   0.00000  Uiso   1.00
C725   C     0.14021   0.02766   0.46806   0.00000  Uiso   1.00
C726   C     0.19421   0.30759   0.53049   0.00000  Uiso   1.00
C727   C     0.18945   0.02340   0.53523   0.00000  Uiso   1.00
C728   C     0.13876   0.31071   0.46855   0.00000  Uiso   1.00
C729   C     0.09409   0.04629   0.39911   0.00000  Uiso   1.00
C730   C     0.07598   0.09010   0.37380   0.00000  Uiso   1.00
C731   C     0.23417   0.26368   0.59026   0.00000  Uiso   1.00
C732   C     0.24597   0.16624   0.50166   0.00000  Uiso   1.00
C733   C     0.27312   0.27540   0.62140   0.00000  Uiso   1.00
C734   C     0.19570   0.02517   0.62059   0.00000  Uiso   1.00
C735   C     0.18687   0.06082   0.65812   0.00000  Uiso   1.00
C736   C     0.10977   0.26906   0.40118   0.00000  Uiso   1.00
C737   C     0.07694   0.28060   0.35933   0.00000  Uiso   1.00
C738   C     0.16611   0.16713   0.40694   0.00000  Uiso   1.00
C739   C     0.16520   0.16653   0.59284   0.00000  Uiso   1.00
C740   C     0.16522   0.16792   0.35503   0.00000  Uiso   1.00
C741   C     0.16481   0.16719   0.64459   0.00000  Uiso   1.00
C742   C     0.02347   0.13183   0.53694   0.00000  Uiso   1.00
C743   C     0.31174   0.19753   0.47783   0.00000  Uiso   1.00
C744   C     0.31416   0.13643   0.54058   0.00000  Uiso   1.00
Cu745  Cu    0.16667   0.21355   0.50000   0.00000  Uiso   1.00
Cu746  Cu    0.16667   0.11978   0.50000   0.00000  Uiso   1.00
H747   H     0.03351   0.04881   0.49144   0.00000  Uiso   1.00
H748   H     0.23653   0.22643   0.58401   0.00000  Uiso   1.00
H749   H     0.20703   0.26879   0.61146   0.00000  Uiso   1.00
H750   H     0.28442   0.30982   0.61068   0.00000  Uiso   1.00
H751   H     0.26693   0.27620   0.66072   0.00000  Uiso   1.00
H752   H     0.29742   0.24902   0.61729   0.00000  Uiso   1.00
H753   H     0.22221   0.00583   0.63790   0.00000  Uiso   1.00
H754   H     0.16856   0.00248   0.61633   0.00000  Uiso   1.00
H755   H     0.15633   0.07651   0.64857   0.00000  Uiso   1.00
H756   H     0.18674   0.04384   0.36182   0.00000  Uiso   1.00
H757   H     0.21093   0.08720   0.66003   0.00000  Uiso   1.00
H758   H     0.23947   0.21404   0.37062   0.00000  Uiso   1.00
H759   H     0.10400   0.23208   0.40815   0.00000  Uiso   1.00
H760   H     0.14025   0.27539   0.38731   0.00000  Uiso   1.00
H761   H     0.08578   0.30979   0.33556   0.00000  Uiso   1.00
H762   H     0.07311   0.25061   0.33475   0.00000  Uiso   1.00
H763   H     0.04712   0.28810   0.37373   0.00000  Uiso   1.00
H764   H     0.25587   0.15833   0.63595   0.00000  Uiso   1.00
H765   H     0.06855   0.29861   0.56332   0.00000  Uiso   1.00
H766   H     0.06801   0.02341   0.40323   0.00000  Uiso   1.00
H767   H     0.11772   0.03183   0.37670   0.00000  Uiso   1.00
H768   H     0.10030   0.11394   0.36460   0.00000  Uiso   1.00
H769   H     0.05825   0.08110   0.33948   0.00000  Uiso   1.00
H770   H     0.05528   0.10777   0.39795   0.00000  Uiso   1.00
N771   N     0.16667   0.28402   0.50000   0.00000  Uiso   1.00
N772   N     0.16667   0.04931   0.50000   0.00000  Uiso   1.00
O773   O     0.10655   0.20625   0.50000   0.00000  Uiso   1.00
O774   O     0.02790   0.05027   0.59425   0.00000  Uiso   1.00
O775   O     0.05951   0.04810   0.51241   0.00000  Uiso   1.00
O776   O     0.26812   0.27116   0.44043   0.00000  Uiso   1.00
O777   O     0.32044   0.23913   0.39091   0.00000  Uiso   1.00
O778   O     0.25387   0.19361   0.39624   0.00000  Uiso   1.00
O779   O     0.28304   0.06409   0.58643   0.00000  Uiso   1.00
O780   O     0.32230   0.11827   0.63786   0.00000  Uiso   1.00
O781   O     0.24969   0.14280   0.60435   0.00000  Uiso   1.00
O782   O     0.02874   0.29451   0.46478   0.00000  Uiso   1.00
O783   O     0.32701   0.27942   0.53798   0.00000  Uiso   1.00
O784   O     0.22679   0.12709   0.50000   0.00000  Uiso   1.00
O785   O     0.07184   0.26920   0.54615   0.00000  Uiso   1.00
O786   O     0.11022   0.05729   0.44598   0.00000  Uiso   1.00
O787   O     0.23241   0.28800   0.54437   0.00000  Uiso   1.00
O788   O     0.20673   0.04606   0.57578   0.00000  Uiso   1.00
O789   O     0.10372   0.29123   0.44604   0.00000  Uiso   1.00
O790   O     0.22679   0.20625   0.50000   0.00000  Uiso   1.00
O791   O     0.10655   0.12709   0.50000   0.00000  Uiso   1.00
O792   O     0.16667   0.20625   0.42946   0.00000  Uiso   1.00
O793   O     0.16667   0.12708   0.57054   0.00000  Uiso   1.00
O794   O     0.16667   0.20625   0.57054   0.00000  Uiso   1.00
O795   O     0.16667   0.12708   0.42946   0.00000  Uiso   1.00
O796   O     0.09012   0.09297   0.58727   0.00000  Uiso   1.00
S797   S     0.05044   0.08044   0.56045   0.00000  Uiso   1.00
S798   S     0.28844   0.22744   0.42535   0.00000  Uiso   1.00
S799   S     0.29243   0.11407   0.59356   0.00000  Uiso   1.00
S800   S     0.02851   0.26367   0.50982   0.00000  Uiso   1.00
C801   C     0.42102   0.16697   0.50413   0.00000  Uiso   1.00
C802   C     0.35242   0.20587   0.49201   0.00000  Uiso   1.00
C803   C     0.62430   0.16558   0.50581   0.00000  Uiso   1.00
C804   C     0.37668   0.16814   0.51191   0.00000  Uiso   1.00
C805   C     0.47354   0.02766   0.46806   0.00000  Uiso   1.00
C806   C     0.52754   0.30759   0.53049   0.00000  Uiso   1.00
C807   C     0.52278   0.02340   0.53523   0.00000  Uiso   1.00
C808   C     0.47210   0.31071   0.46855   0.00000  Uiso   1.00
C809   C     0.42742   0.04629   0.39911   0.00000  Uiso   1.00
C810   C     0.40932   0.09010   0.37380   0.00000  Uiso   1.00
C811   C     0.56750   0.26368   0.59026   0.00000  Uiso   1.00
C812   C     0.57930   0.16624   0.50166   0.00000  Uiso   1.00
C813   C     0.60646   0.27540   0.62140   0.00000  Uiso   1.00
C814   C     0.52904   0.02517   0.62059   0.00000  Uiso   1.00
C815   C     0.52020   0.06082   0.65812   0.00000  Uiso   1.00
C816   C     0.44310   0.26906   0.40118   0.00000  Uiso   1.00
C817   C     0.41028   0.28060   0.35933   0.00000  Uiso   1.00
C818   C     0.49945   0.16713   0.40694   0.00000  Uiso   1.00
C819   C     0.49854   0.16653   0.59284   0.00000  Uiso   1.00
C820   C     0.49855   0.16792   0.35503   0.00000  Uiso   1.00
C821   C     0.49814   0.16719   0.64459   0.00000  Uiso   1.00
C822   C     0.35680   0.13183   0.53694   0.00000  Uiso   1.00
C823   C     0.64507   0.19753   0.47783   0.00000  Uiso   1.00
C824   C     0.64749   0.13643   0.54058   0.00000  Uiso   1.00
Cu825  Cu    0.50000   0.21355   0.50000   0.00000  Uiso   1.00
Cu826  Cu    0.50000   0.11978   0.50000   0.00000  Uiso   1.00
H827   H     0.36685   0.04881   0.49144   0.00000  Uiso   1.00
H828   H     0.56987   0.22643   0.58401   0.00000  Uiso   1.00
H829   H     0.54036   0.26879   0.61146   0.00000  Uiso   1.00
H830   H     0.61775   0.30982   0.61068   0.00000  Uiso   1.00
H831   H     0.60027   0.27620   0.66072   0.00000  Uiso   1.00
H832   H     0.63076   0.24902   0.61729   0.00000  Uiso   1.00
H833   H     0.55554   0.00583   0.63790   0.00000  Uiso   1.00
H834   H     0.50190   0.00248   0.61633   0.00000  Uiso   1.00
H835   H     0.48966   0.07651   0.64857   0.00000  Uiso   1.00
H836   H     0.52007   0.04384   0.36182   0.00000  Uiso   1.00
H837   H     0.54427   0.08720   0.66003   0.00000  Uiso   1.00
H838   H     0.57280   0.21404   0.37062   0.00000  Uiso   1.00
H839   H     0.43733   0.23208   0.40815   0.00000  Uiso   1.00
H840   H     0.47358   0.27539   0.38731   0.00000  Uiso   1.00
H841   H     0.41911   0.30979   0.33556   0.00000  Uiso   1.00
H842   H     0.40644   0.25061   0.33475   0.00000  Uiso   1.00
H843   H     0.38045   0.28810   0.37373   0.00000  Uiso   1.00
H844   H     0.58920   0.15833   0.63595   0.00000  Uiso   1.00
H845   H     0.40188   0.29861   0.56332   0.00000  Uiso   1.00
H846   H     0.40134   0.02341   0.40323   0.00000  Uiso   1.00
H847   H     0.45105   0.03183   0.37670   0.00000  Uiso   1.00
H848   H     0.43364   0.11394   0.36460   0.00000  Uiso   1.00
H849   H     0.39159   0.08110   0.33948   0.00000  Uiso   1.00
H850   H     0.38861   0.10777   0.39795   0.00000  Uiso   1.00
N851   N     0.50000   0.28402   0.50000   0.00000  Uiso   1.00
N852   N     0.50000   0.04931   0.50000   0.00000  Uiso   1.00
O853   O     0.43988   0.20625   0.50000   0.00000  Uiso   1.00
O854   O     0.36123   0.05027   0.59425   0.00000  Uiso   1.00
O855   O     0.39284   0.04810   0.51241   0.00000  Uiso   1.00
O856   O     0.60145   0.27116   0.44043   0.00000  Uiso   1.00
O857   O     0.65377   0.23913   0.39091   0.00000  Uiso   1.00
O858   O     0.58721   0.19361   0.39624   0.00000  Uiso   1.00
O859   O     0.61637   0.06409   0.58643   0.00000  Uiso   1.00
O860   O     0.65563   0.11827   0.63786   0.00000  Uiso   1.00
O861   O     0.58302   0.14280   0.60435   0.00000  Uiso   1.00
O862   O     0.36208   0.29451   0.46478   0.00000  Uiso   1.00
O863   O     0.66034   0.27942   0.53798   0.00000  Uiso   1.00
O864   O     0.56012   0.12709   0.50000   0.00000  Uiso   1.00
O865   O     0.40517   0.26920   0.54615   0.00000  Uiso   1.00
O866   O     0.44356   0.05729   0.44598   0.00000  Uiso   1.00
O867   O     0.56575   0.28800   0.54437   0.00000  Uiso   1.00
O868   O     0.54007   0.04606   0.57578   0.00000  Uiso   1.00
O869   O     0.43705   0.29123   0.44604   0.00000  Uiso   1.00
O870   O     0.56012   0.20625   0.50000   0.00000  Uiso   1.00
O871   O     0.43988   0.12709   0.50000   0.00000  Uiso   1.00
O872   O     0.50000   0.20625   0.42946   0.00000  Uiso   1.00
O873   O     0.50000   0.12708   0.57054   0.00000  Uiso   1.00
O874   O     0.50000   0.20625   0.57054   0.00000  Uiso   1.00
O875   O     0.50000   0.12708   0.42946   0.00000  Uiso   1.00
O876   O     0.42346   0.09297   0.58727   0.00000  Uiso   1.00
S877   S     0.38378   0.08044   0.56045   0.00000  Uiso   1.00
S878   S     0.62178   0.22744   0.42535   0.00000  Uiso   1.00
S879   S     0.62577   0.11407   0.59356   0.00000  Uiso   1.00
S880   S     0.36184   0.26367   0.50982   0.00000  Uiso   1.00
C881   C     0.75435   0.16697   0.50413   0.00000  Uiso   1.00
C882   C     0.68575   0.20587   0.49201   0.00000  Uiso   1.00
C883   C     0.95763   0.16558   0.50581   0.00000  Uiso   1.00
C884   C     0.71001   0.16814   0.51191   0.00000  Uiso   1.00
C885   C     0.80687   0.02766   0.46806   0.00000  Uiso   1.00
C886   C     0.86087   0.30759   0.53049   0.00000  Uiso   1.00
C887   C     0.85611   0.02340   0.53523   0.00000  Uiso   1.00
C888   C     0.80543   0.31071   0.46855   0.00000  Uiso   1.00
C889   C     0.76076   0.04629   0.39911   0.00000  Uiso   1.00
C890   C     0.74265   0.09010   0.37380   0.00000  Uiso   1.00
C891   C     0.90084   0.26368   0.59026   0.00000  Uiso   1.00
C892   C     0.91264   0.16624   0.50166   0.00000  Uiso   1.00
C893   C     0.93979   0.27540   0.62140   0.00000  Uiso   1.00
C894   C     0.86237   0.02517   0.62059   0.00000  Uiso   1.00
C895   C     0.85354   0.06082   0.65812   0.00000  Uiso   1.00
C896   C     0.77643   0.26906   0.40118   0.00000  Uiso   1.00
C897   C     0.74361   0.28060   0.35933   0.00000  Uiso   1.00
C898   C     0.83278   0.16713   0.40694   0.00000  Uiso   1.00
C899   C     0.83187   0.16653   0.59284   0.00000  Uiso   1.00
C900   C     0.83189   0.16792   0.35503   0.00000  Uiso   1.00
C901   C     0.83147   0.16719   0.64459   0.00000  Uiso   1.00
C902   C     0.69014   0.13183   0.53694   0.00000  Uiso   1.00
C903   C     0.97840   0.19753   0.47783   0.00000  Uiso   1.00
C904   C     0.98083   0.13643   0.54058   0.00000  Uiso   1.00
Cu905  Cu    0.83333   0.21355   0.50000   0.00000  Uiso   1.00
Cu906  Cu    0.83333   0.11978   0.50000   0.00000  Uiso   1.00
H907   H     0.70018   0.04881   0.49144   0.00000  Uiso   1.00
H908   H     0.90320   0.22643   0.58401   0.00000  Uiso   1.00
H909   H     0.87369   0.26879   0.61146   0.00000  Uiso   1.00
H910   H     0.95109   0.30982   0.61068   0.00000  Uiso   1.00
H911   H     0.93360   0.27620   0.66072   0.00000  Uiso   1.00
H912   H     0.96409   0.24902   0.61729   0.00000  Uiso   1.00
H913   H     0.88887   0.00583   0.63790   0.00000  Uiso   1.00
H914   H     0.83523   0.00248   0.61633   0.00000  Uiso   1.00
H915   H     0.82300   0.07651   0.64857   0.00000  Uiso   1.00
H916   H     0.85341   0.04384   0.36182   0.00000  Uiso   1.00
H917   H     0.87760   0.08720   0.66003   0.00000  Uiso   1.00
H918   H     0.90614   0.21404   0.37062   0.00000  Uiso   1.00
H919   H     0.77067   0.23208   0.40815   0.00000  Uiso   1.00
H920   H     0.80692   0.27539   0.38731   0.00000  Uiso   1.00
H921   H     0.75245   0.30979   0.33556   0.00000  Uiso   1.00
H922   H     0.73977   0.25061   0.33475   0.00000  Uiso   1.00
H923   H     0.71378   0.28810   0.37373   0.00000  Uiso   1.00
H924   H     0.92254   0.15833   0.63595   0.00000  Uiso   1.00
H925   H     0.73521   0.29861   0.56332   0.00000  Uiso   1.00
H926   H     0.73468   0.02341   0.40323   0.00000  Uiso   1.00
H927   H     0.78438   0.03183   0.37670   0.00000  Uiso   1.00
H928   H     0.76697   0.11394   0.36460   0.00000  Uiso   1.00
H929   H     0.72492   0.08110   0.33948   0.00000  Uiso   1.00
H930   H     0.72194   0.10777   0.39795   0.00000  Uiso   1.00
N931   N     0.83333   0.28402   0.50000   0.00000  Uiso   1.00
N932   N     0.83333   0.04931   0.50000   0.00000  Uiso   1.00
O933   O     0.77321   0.20625   0.50000   0.00000  Uiso   1.00
O934   O     0.69456   0.05027   0.59425   0.00000  Uiso   1.00
O935   O     0.72618   0.04810   0.51241   0.00000  Uiso   1.00
O936   O     0.93479   0.27116   0.44043   0.00000  Uiso   1.00
O937   O     0.98711   0.23913   0.39091   0.00000  Uiso   1.00
O938   O     0.92054   0.19361   0.39624   0.00000  Uiso   1.00
O939   O     0.94970   0.06409   0.58643   0.00000  Uiso   1.00
O940   O     0.98897   0.11827   0.63786   0.00000  Uiso   1.00
O941   O     0.91635   0.14280   0.60435   0.00000  Uiso   1.00
O942   O     0.69541   0.29451   0.46478   0.00000  Uiso   1.00
O943   O     0.99368   0.27942   0.53798   0.00000  Uiso   1.00
O944   O     0.89345   0.12709   0.50000   0.00000  Uiso   1.00
O945   O     0.73850   0.26920   0.54615   0.00000  Uiso   1.00
O946   O     0.77689   0.05729   0.44598   0.00000  Uiso   1.00
O947   O     0.89908   0.28800   0.54437   0.00000  Uiso   1.00
O948   O     0.87340   0.04606   0.57578   0.00000  Uiso   1.00
O949   O     0.77039   0.29123   0.44604   0.00000  Uiso   1.00
O950   O     0.89345   0.20625   0.50000   0.00000  Uiso   1.00
O951   O     0.77321   0.12709   0.50000   0.00000  Uiso   1.00
O952   O     0.83333   0.20625   0.42946   0.00000  Uiso   1.00
O953   O     0.83333   0.12708   0.57054   0.00000  Uiso   1.00
O954   O     0.83333   0.20625   0.57054   0.00000  Uiso   1.00
O955   O     0.83333   0.12708   0.42946   0.00000  Uiso   1.00
O956   O     0.75679   0.09297   0.58727   0.00000  Uiso   1.00
S957   S     0.71711   0.08044   0.56045   0.00000  Uiso   1.00
S958   S     0.95511   0.22744   0.42535   0.00000  Uiso   1.00
S959   S     0.95910   0.11407   0.59356   0.00000  Uiso   1.00
S960   S     0.69518   0.26367   0.50982   0.00000  Uiso   1.00
C961   C     0.08769   0.50030   0.50413   0.00000  Uiso   1.00
C962   C     0.01909   0.53921   0.49201   0.00000  Uiso   1.00
C963   C     0.29097   0.49891   0.50581   0.00000  Uiso   1.00
C964   C     0.04335   0.50148   0.51191   0.00000  Uiso   1.00
C965   C     0.14021   0.36100   0.46806   0.00000  Uiso   1.00
C966   C     0.19421   0.64092   0.53049   0.00000  Uiso   1.00
C967   C     0.18945   0.35674   0.53523   0.00000  Uiso   1.00
C968   C     0.13876   0.64404   0.46855   0.00000  Uiso   1.00
C969   C     0.09409   0.37962   0.39911   0.00000  Uiso   1.00
C970   C     0.07598   0.42343   0.37380   0.00000  Uiso   1.00
C971   C     0.23417   0.59701   0.59026   0.00000  Uiso   1.00
C972   C     0.24597   0.49957   0.50166   0.00000  Uiso   1.00
C973   C     0.27312   0.60874   0.62140   0.00000  Uiso   1.00
C974   C     0.19570   0.35851   0.62059   0.00000  Uiso   1.00
C975   C     0.18687   0.39415   0.65812   0.00000  Uiso   1.00
C976   C     0.10977   0.60240   0.40118   0.00000  Uiso   1.00
C977   C     0.07694   0.61393   0.35933   0.00000  Uiso   1.00
C978   C     0.16611   0.50046   0.40694   0.00000  Uiso   1.00
C979   C     0.16520   0.49987   0.59284   0.00000  Uiso   1.00
C980   C     0.16522   0.50125   0.35503   0.00000  Uiso   1.00
C981   C     0.16481   0.50052   0.64459   0.00000  Uiso   1.00
C982   C     0.02347   0.46516   0.53694   0.00000  Uiso   1.00
C983   C     0.31174   0.53086   0.47783   0.00000  Uiso   1.00
C984   C     0.31416   0.46976   0.54058   0.00000  Uiso   1.00
Cu985  Cu    0.16667   0.54689   0.50000   0.00000  Uiso   1.00
Cu986  Cu    0.16667   0.45311   0.50000   0.00000  Uiso   1.00
H987   H     0.03351   0.38214   0.49144   0.00000  Uiso   1.00
H988   H     0.23653   0.55976   0.58401   0.00000  Uiso   1.00
H989   H     0.20703   0.60212   0.61146   0.00000  Uiso   1.00
H990   H     0.28442   0.64316   0.61068   0.00000  Uiso   1.00
H991   H     0.26693   0.60953   0.66072   0.00000  Uiso   1.00
H992   H     0.29742   0.58235   0.61729   0.00000  Uiso   1.00
H993   H     0.22221   0.33916   0.63790   0.00000  Uiso   1.00
H994   H     0.16856   0.33582   0.61633   0.00000  Uiso   1.00
H995   H     0.15633   0.40984   0.64857   0.00000  Uiso   1.00
H996   H     0.18674   0.37718   0.36182   0.00000  Uiso   1.00
H997   H     0.21093   0.42054   0.66003   0.00000  Uiso   1.00
H998   H     0.23947   0.54737   0.37062   0.00000  Uiso   1.00
H999   H     0.10400   0.56541   0.40815   0.00000  Uiso   1.00
H1000  H     0.14025   0.60872   0.38731   0.00000  Uiso   1.00
H1001  H     0.08578   0.64312   0.33556   0.00000  Uiso   1.00
H1002  H     0.07311   0.58395   0.33475   0.00000  Uiso   1.00
H1003  H     0.04712   0.62143   0.37373   0.00000  Uiso   1.00
H1004  H     0.25587   0.49166   0.63595   0.00000  Uiso   1.00
H1005  H     0.06855   0.63194   0.56332   0.00000  Uiso   1.00
H1006  H     0.06801   0.35674   0.40323   0.00000  Uiso   1.00
H1007  H     0.11772   0.36517   0.37670   0.00000  Uiso   1.00
H1008  H     0.10030   0.44727   0.36460   0.00000  Uiso   1.00
H1009  H     0.05825   0.41443   0.33948   0.00000  Uiso   1.00
H1010  H     0.05528   0.44110   0.39795   0.00000  Uiso   1.00
N1011  N     0.16667   0.61736   0.50000   0.00000  Uiso   1.00
N1012  N     0.16667   0.38264   0.50000   0.00000  Uiso   1.00
O1013  O     0.10655   0.53958   0.50000   0.00000  Uiso   1.00
O1014  O     0.02790   0.38360   0.59425   0.00000  Uiso   1.00
O1015  O     0.05951   0.38143   0.51241   0.00000  Uiso   1.00
O1016  O     0.26812   0.60449   0.44043   0.00000  Uiso   1.00
O1017  O     0.32044   0.57247   0.39091   0.00000  Uiso   1.00
O1018  O     0.25387   0.52694   0.39624   0.00000  Uiso   1.00
O1019  O     0.28304   0.39743   0.58643   0.00000  Uiso   1.00
O1020  O     0.32230   0.45160   0.63786   0.00000  Uiso   1.00
O1021  O     0.24969   0.47613   0.60435   0.00000  Uiso   1.00
O1022  O     0.02874   0.62784   0.46478   0.00000  Uiso   1.00
O1023  O     0.32701   0.61275   0.53798   0.00000  Uiso   1.00
O1024  O     0.22679   0.46042   0.50000   0.00000  Uiso   1.00
O1025  O     0.07184   0.60253   0.54615   0.00000  Uiso   1.00
O1026  O     0.11022   0.39062   0.44598   0.00000  Uiso   1.00
O1027  O     0.23241   0.62133   0.54437   0.00000  Uiso   1.00
O1028  O     0.20673   0.37939   0.57578   0.00000  Uiso   1.00
O1029  O     0.10372   0.62456   0.44604   0.00000  Uiso   1.00
O1030  O     0.22679   0.53958   0.50000   0.00000  Uiso   1.00
O1031  O     0.10655   0.46042   0.50000   0.00000  Uiso   1.00
O1032  O     0.16667   0.53959   0.42946   0.00000  Uiso   1.00
O1033  O     0.16667   0.46041   0.57054   0.00000  Uiso   1.00
O1034  O     0.16667   0.53959   0.57054   0.00000  Uiso   1.00
O1035  O     0.16667   0.46041   0.42946   0.00000  Uiso   1.00
O1036  O     0.09012   0.42631   0.58727   0.00000  Uiso   1.00
S1037  S     0.05044   0.41378   0.56045   0.00000  Uiso   1.00
S1038  S     0.28844   0.56078   0.42535   0.00000  Uiso   1.00
S1039  S     0.29243   0.44741   0.59356   0.00000  Uiso   1.00
S1040  S     0.02851   0.59701   0.50982   0.00000  Uiso   1.00
C1041  C     0.42102   0.50030   0.50413   0.00000  Uiso   1.00
C1042  C     0.35242   0.53921   0.49201   0.00000  Uiso   1.00
C1043  C     0.62430   0.49891   0.50581   0.00000  Uiso   1.00
C1044  C     0.37668   0.50148   0.51191   0.00000  Uiso   1.00
C1045  C     0.47354   0.36100   0.46806   0.00000  Uiso   1.00
C1046  C     0.52754   0.64092   0.53049   0.00000  Uiso   1.00
C1047  C     0.52278   0.35674   0.53523   0.00000  Uiso   1.00
C1048  C     0.47210   0.64404   0.46855   0.00000  Uiso   1.00
C1049  C     0.42742   0.37962   0.39911   0.00000  Uiso   1.00
C1050  C     0.40932   0.42343   0.37380   0.00000  Uiso   1.00
C1051  C     0.56750   0.59701   0.59026   0.00000  Uiso   1.00
C1052  C     0.57930   0.49957   0.50166   0.00000  Uiso   1.00
C1053  C     0.60646   0.60874   0.62140   0.00000  Uiso   1.00
C1054  C     0.52904   0.35851   0.62059   0.00000  Uiso   1.00
C1055  C     0.52020   0.39415   0.65812   0.00000  Uiso   1.00
C1056  C     0.44310   0.60240   0.40118   0.00000  Uiso   1.00
C1057  C     0.41028   0.61393   0.35933   0.00000  Uiso   1.00
C1058  C     0.49945   0.50046   0.40694   0.00000  Uiso   1.00
C1059  C     0.49854   0.49987   0.59284   0.00000  Uiso   1.00
C1060  C     0.49855   0.50125   0.35503   0.00000  Uiso   1.00
C1061  C     0.49814   0.50052   0.64459   0.00000  Uiso   1.00
C1062  C     0.35680   0.46516   0.53694   0.00000  Uiso   1.00
C1063  C     0.64507   0.53086   0.47783   0.00000  Uiso   1.00
C1064  C     0.64749   0.46976   0.54058   0.00000  Uiso   1.00
Cu1065 Cu    0.50000   0.54689   0.50000   0.00000  Uiso   1.00
Cu1066 Cu    0.50000   0.45311   0.50000   0.00000  Uiso   1.00
H1067  H     0.36685   0.38214   0.49144   0.00000  Uiso   1.00
H1068  H     0.56987   0.55976   0.58401   0.00000  Uiso   1.00
H1069  H     0.54036   0.60212   0.61146   0.00000  Uiso   1.00
H1070  H     0.61775   0.64316   0.61068   0.00000  Uiso   1.00
H1071  H     0.60027   0.60953   0.66072   0.00000  Uiso   1.00
H1072  H     0.63076   0.58235   0.61729   0.00000  Uiso   1.00
H1073  H     0.55554   0.33916   0.63790   0.00000  Uiso   1.00
H1074  H     0.50190   0.33582   0.61633   0.00000  Uiso   1.00
H1075  H     0.48966   0.40984   0.64857   0.00000  Uiso   1.00
H1076  H     0.52007   0.37718   0.36182   0.00000  Uiso   1.00
H1077  H     0.54427   0.42054   0.66003   0.00000  Uiso   1.00
H1078  H     0.57280   0.54737   0.37062   0.00000  Uiso   1.00
H1079  H     0.43733   0.56541   0.40815   0.00000  Uiso   1.00
H1080  H     0.47358   0.60872   0.38731   0.00000  Uiso   1.00
H1081  H     0.41911   0.64312   0.33556   0.00000  Uiso   1.00
H1082  H     0.40644   0.58395   0.33475   0.00000  Uiso   1.00
H1083  H     0.38045   0.62143   0.37373   0.00000  Uiso   1.00
H1084  H     0.58920   0.49166   0.63595   0.00000  Uiso   1.00
H1085  H     0.40188   0.63194   0.56332   0.00000  Uiso   1.00
H1086  H     0.40134   0.35674   0.40323   0.00000  Uiso   1.00
H1087  H     0.45105   0.36517   0.37670   0.00000  Uiso   1.00
H1088  H     0.43364   0.44727   0.36460   0.00000  Uiso   1.00
H1089  H     0.39159   0.41443   0.33948   0.00000  Uiso   1.00
H1090  H     0.38861   0.44110   0.39795   0.00000  Uiso   1.00
N1091  N     0.50000   0.61736   0.50000   0.00000  Uiso   1.00
N1092  N     0.50000   0.38264   0.50000   0.00000  Uiso   1.00
O1093  O     0.43988   0.53958   0.50000   0.00000  Uiso   1.00
O1094  O     0.36123   0.38360   0.59425   0.00000  Uiso   1.00
O1095  O     0.39284   0.38143   0.51241   0.00000  Uiso   1.00
O1096  O     0.60145   0.60449   0.44043   0.00000  Uiso   1.00
O1097  O     0.65377   0.57247   0.39091   0.00000  Uiso   1.00
O1098  O     0.58721   0.52694   0.39624   0.00000  Uiso   1.00
O1099  O     0.61637   0.39743   0.58643   0.00000  Uiso   1.00
O1100  O     0.65563   0.45160   0.63786   0.00000  Uiso   1.00
O1101  O     0.58302   0.47613   0.60435   0.00000  Uiso   1.00
O1102  O     0.36208   0.62784   0.46478   0.00000  Uiso   1.00
O1103  O     0.66034   0.61275   0.53798   0.00000  Uiso   1.00
O1104  O     0.56012   0.46042   0.50000   0.00000  Uiso   1.00
O1105  O     0.40517   0.60253   0.54615   0.00000  Uiso   1.00
O1106  O     0.44356   0.39062   0.44598   0.00000  Uiso   1.00
O1107  O     0.56575   0.62133   0.54437   0.00000  Uiso   1.00
O1108  O     0.54007   0.37939   0.57578   0.00000  Uiso   1.00
O1109  O     0.43705   0.62456   0.44604   0.00000  Uiso   1.00
O1110  O     0.56012   0.53958   0.50000   0.00000  Uiso   1.00
O1111  O     0.43988   0.46042   0.50000   0.00000  Uiso   1.00
O1112  O     0.50000   0.53959   0.42946   0.00000  Uiso   1.00
O1113  O     0.50000   0.46041   0.57054   0.00000  Uiso   1.00
O1114  O     0.50000   0.53959   0.57054   0.00000  Uiso   1.00
O1115  O     0.50000   0.46041   0.42946   0.00000  Uiso   1.00
O1116  O     0.42346   0.42631   0.58727   0.00000  Uiso   1.00
S1117  S     0.38378   0.41378   0.56045   0.00000  Uiso   1.00
S1118  S     0.62178   0.56078   0.42535   0.00000  Uiso   1.00
S1119  S     0.62577   0.44741   0.59356   0.00000  Uiso   1.00
S1120  S     0.36184   0.59701   0.50982   0.00000  Uiso   1.00
C1121  C     0.75435   0.50030   0.50413   0.00000  Uiso   1.00
C1122  C     0.68575   0.53921   0.49201   0.00000  Uiso   1.00
C1123  C     0.95763   0.49891   0.50581   0.00000  Uiso   1.00
C1124  C     0.71001   0.50148   0.51191   0.00000  Uiso   1.00
C1125  C     0.80687   0.36100   0.46806   0.00000  Uiso   1.00
C1126  C     0.86087   0.64092   0.53049   0.00000  Uiso   1.00
C1127  C     0.85611   0.35674   0.53523   0.00000  Uiso   1.00
C1128  C     0.80543   0.64404   0.46855   0.00000  Uiso   1.00
C1129  C     0.76076   0.37962   0.39911   0.00000  Uiso   1.00
C1130  C     0.74265   0.42343   0.37380   0.00000  Uiso   1.00
C1131  C     0.90084   0.59701   0.59026   0.00000  Uiso   1.00
C1132  C     0.91264   0.49957   0.50166   0.00000  Uiso   1.00
C1133  C     0.93979   0.60874   0.62140   0.00000  Uiso   1.00
C1134  C     0.86237   0.35851   0.62059   0.00000  Uiso   1.00
C1135  C     0.85354   0.39415   0.65812   0.00000  Uiso   1.00
C1136  C     0.77643   0.60240   0.40118   0.00000  Uiso   1.00
C1137  C     0.74361   0.61393   0.35933   0.00000  Uiso   1.00
C1138  C     0.83278   0.50046   0.40694   0.00000  Uiso   1.00
C1139  C     0.83187   0.49987   0.59284   0.00000  Uiso   1.00
C1140  C     0.83189   0.50125   0.35503   0.00000  Uiso   1.00
C1141  C     0.83147   0.50052   0.64459   0.00000  Uiso   1.00
C1142  C     0.69014   0.46516   0.53694   0.00000  Uiso   1.00
C1143  C     0.97840   0.53086   0.47783   0.00000  Uiso   1.00
C1144  C     0.98083   0.46976   0.54058   0.00000  Uiso   1.00
Cu1145 Cu    0.83333   0.54689   0.50000   0.00000  Uiso   1.00
Cu1146 Cu    0.83333   0.45311   0.50000   0.00000  Uiso   1.00
H1147  H     0.70018   0.38214   0.49144   0.00000  Uiso   1.00
H1148  H     0.90320   0.55976   0.58401   0.00000  Uiso   1.00
H1149  H     0.87369   0.60212   0.61146   0.00000  Uiso   1.00
H1150  H     0.95109   0.64316   0.61068   0.00000  Uiso   1.00
H1151  H     0.93360   0.60953   0.66072   0.00000  Uiso   1.00
H1152  H     0.96409   0.58235   0.61729   0.00000  Uiso   1.00
H1153  H     0.88887   0.33916   0.63790   0.00000  Uiso   1.00
H1154  H     0.83523   0.33582   0.61633   0.00000  Uiso   1.00
H1155  H     0.82300   0.40984   0.64857   0.00000  Uiso   1.00
H1156  H     0.85341   0.37718   0.36182   0.00000  Uiso   1.00
H1157  H     0.87760   0.42054   0.66003   0.00000  Uiso   1.00
H1158  H     0.90614   0.54737   0.37062   0.00000  Uiso   1.00
H1159  H     0.77067   0.56541   0.40815   0.00000  Uiso   1.00
H1160  H     0.80692   0.60872   0.38731   0.00000  Uiso   1.00
H1161  H     0.75245   0.64312   0.33556   0.00000  Uiso   1.00
H1162  H     0.73977   0.58395   0.33475   0.00000  Uiso   1.00
H1163  H     0.71378   0.62143   0.37373   0.00000  Uiso   1.00
H1164  H     0.92254   0.49166   0.63595   0.00000  Uiso   1.00
H1165  H     0.73521   0.63194   0.56332   0.00000  Uiso   1.00
H1166  H     0.73468   0.35674   0.40323   0.00000  Uiso   1.00
H1167  H     0.78438   0.36517   0.37670   0.00000  Uiso   1.00
H1168  H     0.76697   0.44727   0.36460   0.00000  Uiso   1.00
H1169  H     0.72492   0.41443   0.33948   0.00000  Uiso   1.00
H1170  H     0.72194   0.44110   0.39795   0.00000  Uiso   1.00
N1171  N     0.83333   0.61736   0.50000   0.00000  Uiso   1.00
N1172  N     0.83333   0.38264   0.50000   0.00000  Uiso   1.00
O1173  O     0.77321   0.53958   0.50000   0.00000  Uiso   1.00
O1174  O     0.69456   0.38360   0.59425   0.00000  Uiso   1.00
O1175  O     0.72618   0.38143   0.51241   0.00000  Uiso   1.00
O1176  O     0.93479   0.60449   0.44043   0.00000  Uiso   1.00
O1177  O     0.98711   0.57247   0.39091   0.00000  Uiso   1.00
O1178  O     0.92054   0.52694   0.39624   0.00000  Uiso   1.00
O1179  O     0.94970   0.39743   0.58643   0.00000  Uiso   1.00
O1180  O     0.98897   0.45160   0.63786   0.00000  Uiso   1.00
O1181  O     0.91635   0.47613   0.60435   0.00000  Uiso   1.00
O1182  O     0.69541   0.62784   0.46478   0.00000  Uiso   1.00
O1183  O     0.99368   0.61275   0.53798   0.00000  Uiso   1.00
O1184  O     0.89345   0.46042   0.50000   0.00000  Uiso   1.00
O1185  O     0.73850   0.60253   0.54615   0.00000  Uiso   1.00
O1186  O     0.77689   0.39062   0.44598   0.00000  Uiso   1.00
O1187  O     0.89908   0.62133   0.54437   0.00000  Uiso   1.00
O1188  O     0.87340   0.37939   0.57578   0.00000  Uiso   1.00
O1189  O     0.77039   0.62456   0.44604   0.00000  Uiso   1.00
O1190  O     0.89345   0.53958   0.50000   0.00000  Uiso   1.00
O1191  O     0.77321   0.46042   0.50000   0.00000  Uiso   1.00
O1192  O     0.83333   0.53959   0.42946   0.00000  Uiso   1.00
O1193  O     0.83333   0.46041   0.57054   0.00000  Uiso   1.00
O1194  O     0.83333   0.53959   0.57054   0.00000  Uiso   1.00
O1195  O     0.83333   0.46041   0.42946   0.00000  Uiso   1.00
O1196  O     0.75679   0.42631   0.58727   0.00000  Uiso   1.00
S1197  S     0.71711   0.41378   0.56045   0.00000  Uiso   1.00
S1198  S     0.95511   0.56078   0.42535   0.00000  Uiso   1.00
S1199  S     0.95910   0.44741   0.59356   0.00000  Uiso   1.00
S1200  S     0.69518   0.59701   0.50982   0.00000  Uiso   1.00
C1201  C     0.08769   0.83363   0.50413   0.00000  Uiso   1.00
C1202  C     0.01909   0.87254   0.49201   0.00000  Uiso   1.00
C1203  C     0.29097   0.83224   0.50581   0.00000  Uiso   1.00
C1204  C     0.04335   0.83481   0.51191   0.00000  Uiso   1.00
C1205  C     0.14021   0.69433   0.46806   0.00000  Uiso   1.00
C1206  C     0.19421   0.97425   0.53049   0.00000  Uiso   1.00
C1207  C     0.18945   0.69007   0.53523   0.00000  Uiso   1.00
C1208  C     0.13876   0.97737   0.46855   0.00000  Uiso   1.00
C1209  C     0.09409   0.71296   0.39911   0.00000  Uiso   1.00
C1210  C     0.07598   0.75676   0.37380   0.00000  Uiso   1.00
C1211  C     0.23417   0.93034   0.59026   0.00000  Uiso   1.00
C1212  C     0.24597   0.83291   0.50166   0.00000  Uiso   1.00
C1213  C     0.27312   0.94207   0.62140   0.00000  Uiso   1.00
C1214  C     0.19570   0.69184   0.62059   0.00000  Uiso   1.00
C1215  C     0.18687   0.72748   0.65812   0.00000  Uiso   1.00
C1216  C     0.10977   0.93573   0.40118   0.00000  Uiso   1.00
C1217  C     0.07694   0.94726   0.35933   0.00000  Uiso   1.00
C1218  C     0.16611   0.83380   0.40694   0.00000  Uiso   1.00
C1219  C     0.16520   0.83320   0.59284   0.00000  Uiso   1.00
C1220  C     0.16522   0.83459   0.35503   0.00000  Uiso   1.00
C1221  C     0.16481   0.83386   0.64459   0.00000  Uiso   1.00
C1222  C     0.02347   0.79850   0.53694   0.00000  Uiso   1.00
C1223  C     0.31174   0.86420   0.47783   0.00000  Uiso   1.00
C1224  C     0.31416   0.80309   0.54058   0.00000  Uiso   1.00
Cu1225 Cu    0.16667   0.88022   0.50000   0.00000  Uiso   1.00
Cu1226 Cu    0.16667   0.78645   0.50000   0.00000  Uiso   1.00
H1227  H     0.03351   0.71548   0.49144   0.00000  Uiso   1.00
H1228  H     0.23653   0.89310   0.58401   0.00000  Uiso   1.00
H1229  H     0.20703   0.93546   0.61146   0.00000  Uiso   1.00
H1230  H     0.28442   0.97649   0.61068   0.00000  Uiso   1.00
H1231  H     0.26693   0.94286   0.66072   0.00000  Uiso   1.00
H1232  H     0.29742   0.91568   0.61729   0.00000  Uiso   1.00
H1233  H     0.22221   0.67250   0.63790   0.00000  Uiso   1.00
H1234  H     0.16856   0.66915   0.61633   0.00000  Uiso   1.00
H1235  H     0.15633   0.74317   0.64857   0.00000  Uiso   1.00
H1236  H     0.18674   0.71051   0.36182   0.00000  Uiso   1.00
H1237  H     0.21093   0.75387   0.66003   0.00000  Uiso   1.00
H1238  H     0.23947   0.88071   0.37062   0.00000  Uiso   1.00
H1239  H     0.10400   0.89874   0.40815   0.00000  Uiso   1.00
H1240  H     0.14025   0.94206   0.38731   0.00000  Uiso   1.00
H1241  H     0.08578   0.97645   0.33556   0.00000  Uiso   1.00
H1242  H     0.07311   0.91728   0.33475   0.00000  Uiso   1.00
H1243  H     0.04712   0.95477   0.37373   0.00000  Uiso   1.00
H1244  H     0.25587   0.82499   0.63595   0.00000  Uiso   1.00
H1245  H     0.06855   0.96527   0.56332   0.00000  Uiso   1.00
H1246  H     0.06801   0.69008   0.40323   0.00000  Uiso   1.00
H1247  H     0.11772   0.69850   0.37670   0.00000  Uiso   1.00
H1248  H     0.10030   0.78061   0.36460   0.00000  Uiso   1.00
H1249  H     0.05825   0.74776   0.33948   0.00000  Uiso   1.00
H1250  H     0.05528   0.77443   0.39795   0.00000  Uiso   1.00
N1251  N     0.16667   0.95069   0.50000   0.00000  Uiso   1.00
N1252  N     0.16667   0.71598   0.50000   0.00000  Uiso   1.00
O1253  O     0.10655   0.87291   0.50000   0.00000  Uiso   1.00
O1254  O     0.02790   0.71694   0.59425   0.00000  Uiso   1.00
O1255  O     0.05951   0.71477   0.51241   0.00000  Uiso   1.00
O1256  O     0.26812   0.93782   0.44043   0.00000  Uiso   1.00
O1257  O     0.32044   0.90580   0.39091   0.00000  Uiso   1.00
O1258  O     0.25387   0.86027   0.39624   0.00000  Uiso   1.00
O1259  O     0.28304   0.73076   0.58643   0.00000  Uiso   1.00
O1260  O     0.32230   0.78493   0.63786   0.00000  Uiso   1.00
O1261  O     0.24969   0.80947   0.60435   0.00000  Uiso   1.00
O1262  O     0.02874   0.96118   0.46478   0.00000  Uiso   1.00
O1263  O     0.32701   0.94609   0.53798   0.00000  Uiso   1.00
O1264  O     0.22679   0.79375   0.50000   0.00000  Uiso   1.00
O1265  O     0.07184   0.93587   0.54615   0.00000  Uiso   1.00
O1266  O     0.11022   0.72395   0.44598   0.00000  Uiso   1.00
O1267  O     0.23241   0.95467   0.54437   0.00000  Uiso   1.00
O1268  O     0.20673   0.71272   0.57578   0.00000  Uiso   1.00
O1269  O     0.10372   0.95790   0.44604   0.00000  Uiso   1.00
O1270  O     0.22679   0.87291   0.50000   0.00000  Uiso   1.00
O1271  O     0.10655   0.79375   0.50000   0.00000  Uiso   1.00
O1272  O     0.16667   0.87292   0.42946   0.00000  Uiso   1.00
O1273  O     0.16667   0.79375   0.57054   0.00000  Uiso   1.00
O1274  O     0.16667   0.87292   0.57054   0.00000  Uiso   1.00
O1275  O     0.16667   0.79375   0.42946   0.00000  Uiso   1.00
O1276  O     0.09012   0.75964   0.58727   0.00000  Uiso   1.00
S1277  S     0.05044   0.74711   0.56045   0.00000  Uiso   1.00
S1278  S     0.28844   0.89411   0.42535   0.00000  Uiso   1.00
S1279  S     0.29243   0.78074   0.59356   0.00000  Uiso   1.00
S1280  S     0.02851   0.93034   0.50982   0.00000  Uiso   1.00
C1281  C     0.42102   0.83363   0.50413   0.00000  Uiso   1.00
C1282  C     0.35242   0.87254   0.49201   0.00000  Uiso   1.00
C1283  C     0.62430   0.83224   0.50581   0.00000  Uiso   1.00
C1284  C     0.37668   0.83481   0.51191   0.00000  Uiso   1.00
C1285  C     0.47354   0.69433   0.46806   0.00000  Uiso   1.00
C1286  C     0.52754   0.97425   0.53049   0.00000  Uiso   1.00
C1287  C     0.52278   0.69007   0.53523   0.00000  Uiso   1.00
C1288  C     0.47210   0.97737   0.46855   0.00000  Uiso   1.00
C1289  C     0.42742   0.71296   0.39911   0.00000  Uiso   1.00
C1290  C     0.40932   0.75676   0.37380   0.00000  Uiso   1.00
C1291  C     0.56750   0.93034   0.59026   0.00000  Uiso   1.00
C1292  C     0.57930   0.83291   0.50166   0.00000  Uiso   1.00
C1293  C     0.60646   0.94207   0.62140   0.00000  Uiso   1.00
C1294  C     0.52904   0.69184   0.62059   0.00000  Uiso   1.00
C1295  C     0.52020   0.72748   0.65812   0.00000  Uiso   1.00
C1296  C     0.44310   0.93573   0.40118   0.00000  Uiso   1.00
C1297  C     0.41028   0.94726   0.35933   0.00000  Uiso   1.00
C1298  C     0.49945   0.83380   0.40694   0.00000  Uiso   1.00
C1299  C     0.49854   0.83320   0.59284   0.00000  Uiso   1.00
C1300  C     0.49855   0.83459   0.35503   0.00000  Uiso   1.00
C1301  C     0.49814   0.83386   0.64459   0.00000  Uiso   1.00
C1302  C     0.35680   0.79850   0.53694   0.00000  Uiso   1.00
C1303  C     0.64507   0.86420   0.47783   0.00000  Uiso   1.00
C1304  C     0.64749   0.80309   0.54058   0.00000  Uiso   1.00
Cu1305 Cu    0.50000   0.88022   0.50000   0.00000  Uiso   1.00
Cu1306 Cu    0.50000   0.78645   0.50000   0.00000  Uiso   1.00
H1307  H     0.36685   0.71548   0.49144   0.00000  Uiso   1.00
H1308  H     0.56987   0.89310   0.58401   0.00000  Uiso   1.00
H1309  H     0.54036   0.93546   0.61146   0.00000  Uiso   1.00
H1310  H     0.61775   0.97649   0.61068   0.00000  Uiso   1.00
H1311  H     0.60027   0.94286   0.66072   0.00000  Uiso   1.00
H1312  H     0.63076   0.91568   0.61729   0.00000  Uiso   1.00
H1313  H     0.55554   0.67250   0.63790   0.00000  Uiso   1.00
H1314  H     0.50190   0.66915   0.61633   0.00000  Uiso   1.00
H1315  H     0.48966   0.74317   0.64857   0.00000  Uiso   1.00
H1316  H     0.52007   0.71051   0.36182   0.00000  Uiso   1.00
H1317  H     0.54427   0.75387   0.66003   0.00000  Uiso   1.00
H1318  H     0.57280   0.88071   0.37062   0.00000  Uiso   1.00
H1319  H     0.43733   0.89874   0.40815   0.00000  Uiso   1.00
H1320  H     0.47358   0.94206   0.38731   0.00000  Uiso   1.00
H1321  H     0.41911   0.97645   0.33556   0.00000  Uiso   1.00
H1322  H     0.40644   0.91728   0.33475   0.00000  Uiso   1.00
H1323  H     0.38045   0.95477   0.37373   0.00000  Uiso   1.00
H1324  H     0.58920   0.82499   0.63595   0.00000  Uiso   1.00
H1325  H     0.40188   0.96527   0.56332   0.00000  Uiso   1.00
H1326  H     0.40134   0.69008   0.40323   0.00000  Uiso   1.00
H1327  H     0.45105   0.69850   0.37670   0.00000  Uiso   1.00
H1328  H     0.43364   0.78061   0.36460   0.00000  Uiso   1.00
H1329  H     0.39159   0.74776   0.33948   0.00000  Uiso   1.00
H1330  H     0.38861   0.77443   0.39795   0.00000  Uiso   1.00
N1331  N     0.50000   0.95069   0.50000   0.00000  Uiso   1.00
N1332  N     0.50000   0.71598   0.50000   0.00000  Uiso   1.00
O1333  O     0.43988   0.87291   0.50000   0.00000  Uiso   1.00
O1334  O     0.36123   0.71694   0.59425   0.00000  Uiso   1.00
O1335  O     0.39284   0.71477   0.51241   0.00000  Uiso   1.00
O1336  O     0.60145   0.93782   0.44043   0.00000  Uiso   1.00
O1337  O     0.65377   0.90580   0.39091   0.00000  Uiso   1.00
O1338  O     0.58721   0.86027   0.39624   0.00000  Uiso   1.00
O1339  O     0.61637   0.73076   0.58643   0.00000  Uiso   1.00
O1340  O     0.65563   0.78493   0.63786   0.00000  Uiso   1.00
O1341  O     0.58302   0.80947   0.60435   0.00000  Uiso   1.00
O1342  O     0.36208   0.96118   0.46478   0.00000  Uiso   1.00
O1343  O     0.66034   0.94609   0.53798   0.00000  Uiso   1.00
O1344  O     0.56012   0.79375   0.50000   0.00000  Uiso   1.00
O1345  O     0.40517   0.93587   0.54615   0.00000  Uiso   1.00
O1346  O     0.44356   0.72395   0.44598   0.00000  Uiso   1.00
O1347  O     0.56575   0.95467   0.54437   0.00000  Uiso   1.00
O1348  O     0.54007   0.71272   0.57578   0.00000  Uiso   1.00
O1349  O     0.43705   0.95790   0.44604   0.00000  Uiso   1.00
O1350  O     0.56012   0.87291   0.50000   0.00000  Uiso   1.00
O1351  O     0.43988   0.79375   0.50000   0.00000  Uiso   1.00
O1352  O     0.50000   0.87292   0.42946   0.00000  Uiso   1.00
O1353  O     0.50000   0.79375   0.57054   0.00000  Uiso   1.00
O1354  O     0.50000   0.87292   0.57054   0.00000  Uiso   1.00
O1355  O     0.50000   0.79375   0.42946   0.00000  Uiso   1.00
O1356  O     0.42346   0.75964   0.58727   0.00000  Uiso   1.00
S1357  S     0.38378   0.74711   0.56045   0.00000  Uiso   1.00
S1358  S     0.62178   0.89411   0.42535   0.00000  Uiso   1.00
S1359  S     0.62577   0.78074   0.59356   0.00000  Uiso   1.00
S1360  S     0.36184   0.93034   0.50982   0.00000  Uiso   1.00
C1361  C     0.75435   0.83363   0.50413   0.00000  Uiso   1.00
C1362  C     0.68575   0.87254   0.49201   0.00000  Uiso   1.00
C1363  C     0.95763   0.83224   0.50581   0.00000  Uiso   1.00
C1364  C     0.71001   0.83481   0.51191   0.00000  Uiso   1.00
C1365  C     0.80687   0.69433   0.46806   0.00000  Uiso   1.00
C1366  C     0.86087   0.97425   0.53049   0.00000  Uiso   1.00
C1367  C     0.85611   0.69007   0.53523   0.00000  Uiso   1.00
C1368  C     0.80543   0.97737   0.46855   0.00000  Uiso   1.00
C1369  C     0.76076   0.71296   0.39911   0.00000  Uiso   1.00
C1370  C     0.74265   0.75676   0.37380   0.00000  Uiso   1.00
C1371  C     0.90084   0.93034   0.59026   0.00000  Uiso   1.00
C1372  C     0.91264   0.83291   0.50166   0.00000  Uiso   1.00
C1373  C     0.93979   0.94207   0.62140   0.00000  Uiso   1.00
C1374  C     0.86237   0.69184   0.62059   0.00000  Uiso   1.00
C1375  C     0.85354   0.72748   0.65812   0.00000  Uiso   1.00
C1376  C     0.77643   0.93573   0.40118   0.00000  Uiso   1.00
C1377  C     0.74361   0.94726   0.35933   0.00000  Uiso   1.00
C1378  C     0.83278   0.83380   0.40694   0.00000  Uiso   1.00
C1379  C     0.83187   0.83320   0.59284   0.00000  Uiso   1.00
C1380  C     0.83189   0.83459   0.35503   0.00000  Uiso   1.00
C1381  C     0.83147   0.83386   0.64459   0.00000  Uiso   1.00
C1382  C     0.69014   0.79850   0.53694   0.00000  Uiso   1.00
C1383  C     0.97840   0.86420   0.47783   0.00000  Uiso   1.00
C1384  C     0.98083   0.80309   0.54058   0.00000  Uiso   1.00
Cu1385 Cu    0.83333   0.88022   0.50000   0.00000  Uiso   1.00
Cu1386 Cu    0.83333   0.78645   0.50000   0.00000  Uiso   1.00
H1387  H     0.70018   0.71548   0.49144   0.00000  Uiso   1.00
H1388  H     0.90320   0.89310   0.58401   0.00000  Uiso   1.00
H1389  H     0.87369   0.93546   0.61146   0.00000  Uiso   1.00
H1390  H     0.95109   0.97649   0.61068   0.00000  Uiso   1.00
H1391  H     0.93360   0.94286   0.66072   0.00000  Uiso   1.00
H1392  H     0.96409   0.91568   0.61729   0.00000  Uiso   1.00
H1393  H     0.88887   0.67250   0.63790   0.00000  Uiso   1.00
H1394  H     0.83523   0.66915   0.61633   0.00000  Uiso   1.00
H1395  H     0.82300   0.74317   0.64857   0.00000  Uiso   1.00
H1396  H     0.85341   0.71051   0.36182   0.00000  Uiso   1.00
H1397  H     0.87760   0.75387   0.66003   0.00000  Uiso   1.00
H1398  H     0.90614   0.88071   0.37062   0.00000  Uiso   1.00
H1399  H     0.77067   0.89874   0.40815   0.00000  Uiso   1.00
H1400  H     0.80692   0.94206   0.38731   0.00000  Uiso   1.00
H1401  H     0.75245   0.97645   0.33556   0.00000  Uiso   1.00
H1402  H     0.73977   0.91728   0.33475   0.00000  Uiso   1.00
H1403  H     0.71378   0.95477   0.37373   0.00000  Uiso   1.00
H1404  H     0.92254   0.82499   0.63595   0.00000  Uiso   1.00
H1405  H     0.73521   0.96527   0.56332   0.00000  Uiso   1.00
H1406  H     0.73468   0.69008   0.40323   0.00000  Uiso   1.00
H1407  H     0.78438   0.69850   0.37670   0.00000  Uiso   1.00
H1408  H     0.76697   0.78061   0.36460   0.00000  Uiso   1.00
H1409  H     0.72492   0.74776   0.33948   0.00000  Uiso   1.00
H1410  H     0.72194   0.77443   0.39795   0.00000  Uiso   1.00
N1411  N     0.83333   0.95069   0.50000   0.00000  Uiso   1.00
N1412  N     0.83333   0.71598   0.50000   0.00000  Uiso   1.00
O1413  O     0.77321   0.87291   0.50000   0.00000  Uiso   1.00
O1414  O     0.69456   0.71694   0.59425   0.00000  Uiso   1.00
O1415  O     0.72618   0.71477   0.51241   0.00000  Uiso   1.00
O1416  O     0.93479   0.93782   0.44043   0.00000  Uiso   1.00
O1417  O     0.98711   0.90580   0.39091   0.00000  Uiso   1.00
O1418  O     0.92054   0.86027   0.39624   0.00000  Uiso   1.00
O1419  O     0.94970   0.73076   0.58643   0.00000  Uiso   1.00
O1420  O     0.98897   0.78493   0.63786   0.00000  Uiso   1.00
O1421  O     0.91635   0.80947   0.60435   0.00000  Uiso   1.00
O1422  O     0.69541   0.96118   0.46478   0.00000  Uiso   1.00
O1423  O     0.99368   0.94609   0.53798   0.00000  Uiso   1.00
O1424  O     0.89345   0.79375   0.50000   0.00000  Uiso   1.00
O1425  O     0.73850   0.93587   0.54615   0.00000  Uiso   1.00
O1426  O     0.77689   0.72395   0.44598   0.00000  Uiso   1.00
O1427  O     0.89908   0.95467   0.54437   0.00000  Uiso   1.00
O1428  O     0.87340   0.71272   0.57578   0.00000  Uiso   1.00
O1429  O     0.77039   0.95790   0.44604   0.00000  Uiso   1.00
O1430  O     0.89345   0.87291   0.50000   0.00000  Uiso   1.00
O1431  O     0.77321   0.79375   0.50000   0.00000  Uiso   1.00
O1432  O     0.83333   0.87292   0.42946   0.00000  Uiso   1.00
O1433  O     0.83333   0.79375   0.57054   0.00000  Uiso   1.00
O1434  O     0.83333   0.87292   0.57054   0.00000  Uiso   1.00
O1435  O     0.83333   0.79375   0.42946   0.00000  Uiso   1.00
O1436  O     0.75679   0.75964   0.58727   0.00000  Uiso   1.00
S1437  S     0.71711   0.74711   0.56045   0.00000  Uiso   1.00
S1438  S     0.95511   0.89411   0.42535   0.00000  Uiso   1.00
S1439  S     0.95910   0.78074   0.59356   0.00000  Uiso   1.00
S1440  S     0.69518   0.93034   0.50982   0.00000  Uiso   1.00
C1441  C     0.08769   0.16697   0.83746   0.00000  Uiso   1.00
C1442  C     0.01909   0.20587   0.82534   0.00000  Uiso   1.00
C1443  C     0.29097   0.16558   0.83914   0.00000  Uiso   1.00
C1444  C     0.04335   0.16814   0.84525   0.00000  Uiso   1.00
C1445  C     0.14021   0.02766   0.80139   0.00000  Uiso   1.00
C1446  C     0.19421   0.30759   0.86383   0.00000  Uiso   1.00
C1447  C     0.18945   0.02340   0.86856   0.00000  Uiso   1.00
C1448  C     0.13876   0.31071   0.80188   0.00000  Uiso   1.00
C1449  C     0.09409   0.04629   0.73244   0.00000  Uiso   1.00
C1450  C     0.07598   0.09010   0.70713   0.00000  Uiso   1.00
C1451  C     0.23417   0.26368   0.92360   0.00000  Uiso   1.00
C1452  C     0.24597   0.16624   0.83499   0.00000  Uiso   1.00
C1453  C     0.27312   0.27540   0.95474   0.00000  Uiso   1.00
C1454  C     0.19570   0.02517   0.95393   0.00000  Uiso   1.00
C1455  C     0.18687   0.06082   0.99145   0.00000  Uiso   1.00
C1456  C     0.10977   0.26906   0.73452   0.00000  Uiso   1.00
C1457  C     0.07694   0.28060   0.69266   0.00000  Uiso   1.00
C1458  C     0.16611   0.16713   0.74027   0.00000  Uiso   1.00
C1459  C     0.16520   0.16653   0.92617   0.00000  Uiso   1.00
C1460  C     0.16522   0.16792   0.68836   0.00000  Uiso   1.00
C1461  C     0.16481   0.16719   0.97793   0.00000  Uiso   1.00
C1462  C     0.02347   0.13183   0.87027   0.00000  Uiso   1.00
C1463  C     0.31174   0.19753   0.81116   0.00000  Uiso   1.00
C1464  C     0.31416   0.13643   0.87391   0.00000  Uiso   1.00
Cu1465 Cu    0.16667   0.21355   0.83333   0.00000  Uiso   1.00
Cu1466 Cu    0.16667   0.11978   0.83333   0.00000  Uiso   1.00
H1467  H     0.03351   0.04881   0.82477   0.00000  Uiso   1.00
H1468  H     0.23653   0.22643   0.91735   0.00000  Uiso   1.00
H1469  H     0.20703   0.26879   0.94479   0.00000  Uiso   1.00
H1470  H     0.28442   0.30982   0.94402   0.00000  Uiso   1.00
H1471  H     0.26693   0.27620   0.99405   0.00000  Uiso   1.00
H1472  H     0.29742   0.24902   0.95062   0.00000  Uiso   1.00
H1473  H     0.22221   0.00583   0.97123   0.00000  Uiso   1.00
H1474  H     0.16856   0.00248   0.94966   0.00000  Uiso   1.00
H1475  H     0.15633   0.07651   0.98190   0.00000  Uiso   1.00
H1476  H     0.18674   0.04384   0.69515   0.00000  Uiso   1.00
H1477  H     0.21093   0.08720   0.99337   0.00000  Uiso   1.00
H1478  H     0.23947   0.21404   0.70395   0.00000  Uiso   1.00
H1479  H     0.10400   0.23208   0.74148   0.00000  Uiso   1.00
H1480  H     0.14025   0.27539   0.72064   0.00000  Uiso   1.00
H1481  H     0.08578   0.30979   0.66889   0.00000  Uiso   1.00
H1482  H     0.07311   0.25061   0.66808   0.00000  Uiso   1.00
H1483  H     0.04712   0.28810   0.70706   0.00000  Uiso   1.00
H1484  H     0.25587   0.15833   0.96928   0.00000  Uiso   1.00
H1485  H     0.06855   0.29861   0.89666   0.00000  Uiso   1.00
H1486  H     0.06801   0.02341   0.73656   0.00000  Uiso   1.00
H1487  H     0.11772   0.03183   0.71004   0.00000  Uiso   1.00
H1488  H     0.10030   0.11394   0.69794   0.00000  Uiso   1.00
H1489  H     0.05825   0.08110   0.67282   0.00000  Uiso   1.00
H1490  H     0.05528   0.10777   0.73129   0.00000  Uiso   1.00
N1491  N     0.16667   0.28402   0.83333   0.00000  Uiso   1.00
N1492  N     0.16667   0.04931   0.83333   0.00000  Uiso   1.00
O1493  O     0.10655   0.20625   0.83333   0.00000  Uiso   1.00
O1494  O     0.02790   0.05027   0.92758   0.00000  Uiso   1.00
O1495  O     0.05951   0.04810   0.84574   0.00000  Uiso   1.00
O1496  O     0.26812   0.27116   0.77376   0.00000  Uiso   1.00
O1497  O     0.32044   0.23913   0.72424   0.00000  Uiso   1.00
O1498  O     0.25387   0.19361   0.72957   0.00000  Uiso   1.00
O1499  O     0.28304   0.06409   0.91976   0.00000  Uiso   1.00
O1500  O     0.32230   0.11827   0.97119   0.00000  Uiso   1.00
O1501  O     0.24969   0.14280   0.93768   0.00000  Uiso   1.00
O1502  O     0.02874   0.29451   0.79811   0.00000  Uiso   1.00
O1503  O     0.32701   0.27942   0.87131   0.00000  Uiso   1.00
O1504  O     0.22679   0.12709   0.83334   0.00000  Uiso   1.00
O1505  O     0.07184   0.26920   0.87948   0.00000  Uiso   1.00
O1506  O     0.11022   0.05729   0.77932   0.00000  Uiso   1.00
O1507  O     0.23241   0.28800   0.87770   0.00000  Uiso   1.00
O1508  O     0.20673   0.04606   0.90911   0.00000  Uiso   1.00
O1509  O     0.10372   0.29123   0.77937   0.00000  Uiso   1.00
O1510  O     0.22679   0.20625   0.83334   0.00000  Uiso   1.00
O1511  O     0.10655   0.12709   0.83333   0.00000  Uiso   1.00
O1512  O     0.16667   0.20625   0.76280   0.00000  Uiso   1.00
O1513  O     0.16667   0.12708   0.90387   0.00000  Uiso   1.00
O1514  O     0.16667   0.20625   0.90387   0.00000  Uiso   1.00
O1515  O     0.16667   0.12708   0.76280   0.00000  Uiso   1.00
O1516  O     0.09012   0.09297   0.92061   0.00000  Uiso   1.00
S1517  S     0.05044   0.08044   0.89378   0.00000  Uiso   1.00
S1518  S     0.28844   0.22744   0.75868   0.00000  Uiso   1.00
S1519  S     0.29243   0.11407   0.92690   0.00000  Uiso   1.00
S1520  S     0.02851   0.26367   0.84315   0.00000  Uiso   1.00
C1521  C     0.42102   0.16697   0.83746   0.00000  Uiso   1.00
C1522  C     0.35242   0.20587   0.82534   0.00000  Uiso   1.00
C1523  C     0.62430   0.16558   0.83914   0.00000  Uiso   1.00
C1524  C     0.37668   0.16814   0.84525   0.00000  Uiso   1.00
C1525  C     0.47354   0.02766   0.80139   0.00000  Uiso   1.00
C1526  C     0.52754   0.30759   0.86383   0.00000  Uiso   1.00
C1527  C     0.52278   0.02340   0.86856   0.00000  Uiso   1.00
C1528  C     0.47210   0.31071   0.80188   0.00000  Uiso   1.00
C1529  C     0.42742   0.04629   0.73244   0.00000  Uiso   1.00
C1530  C     0.40932   0.09010   0.70713   0.00000  Uiso   1.00
C1531  C     0.56750   0.26368   0.92360   0.00000  Uiso   1.00
C1532  C     0.57930   0.16624   0.83499   0.00000  Uiso   1.00
C1533  C     0.60646   0.27540   0.95474   0.00000  Uiso   1.00
C1534  C     0.52904   0.02517   0.95393   0.00000  Uiso   1.00
C1535  C     0.52020   0.06082   0.99145   0.00000  Uiso   1.00
C1536  C     0.44310   0.26906   0.73452   0.00000  Uiso   1.00
C1537  C     0.41028   0.28060   0.69266   0.00000  Uiso   1.00
C1538  C     0.49945   0.16713   0.74027   0.00000  Uiso   1.00
C1539  C     0.49854   0.16653   0.92617   0.00000  Uiso   1.00
C1540  C     0.49855   0.16792   0.68836   0.00000  Uiso   1.00
C1541  C     0.49814   0.16719   0.97793   0.00000  Uiso   1.00
C1542  C     0.35680   0.13183   0.87027   0.00000  Uiso   1.00
C1543  C     0.64507   0.19753   0.81116   0.00000  Uiso   1.00
C1544  C     0.64749   0.13643   0.87391   0.00000  Uiso   1.00
Cu1545 Cu    0.50000   0.21355   0.83333   0.00000  Uiso   1.00
Cu1546 Cu    0.50000   0.11978   0.83333   0.00000  Uiso   1.00
H1547  H     0.36685   0.04881   0.82477   0.00000  Uiso   1.00
H1548  H     0.56987   0.22643   0.91735   0.00000  Uiso   1.00
H1549  H     0.54036   0.26879   0.94479   0.00000  Uiso   1.00
H1550  H     0.61775   0.30982   0.94402   0.00000  Uiso   1.00
H1551  H     0.60027   0.27620   0.99405   0.00000  Uiso   1.00
H1552  H     0.63076   0.24902   0.95062   0.00000  Uiso   1.00
H1553  H     0.55554   0.00583   0.97123   0.00000  Uiso   1.00
H1554  H     0.50190   0.00248   0.94966   0.00000  Uiso   1.00
H1555  H     0.48966   0.07651   0.98190   0.00000  Uiso   1.00
H1556  H     0.52007   0.04384   0.69515   0.00000  Uiso   1.00
H1557  H     0.54427   0.08720   0.99337   0.00000  Uiso   1.00
H1558  H     0.57280   0.21404   0.70395   0.00000  Uiso   1.00
H1559  H     0.43733   0.23208   0.74148   0.00000  Uiso   1.00
H1560  H     0.47358   0.27539   0.72064   0.00000  Uiso   1.00
H1561  H     0.41911   0.30979   0.66889   0.00000  Uiso   1.00
H1562  H     0.40644   0.25061   0.66808   0.00000  Uiso   1.00
H1563  H     0.38045   0.28810   0.70706   0.00000  Uiso   1.00
H1564  H     0.58920   0.15833   0.96928   0.00000  Uiso   1.00
H1565  H     0.40188   0.29861   0.89666   0.00000  Uiso   1.00
H1566  H     0.40134   0.02341   0.73656   0.00000  Uiso   1.00
H1567  H     0.45105   0.03183   0.71004   0.00000  Uiso   1.00
H1568  H     0.43364   0.11394   0.69794   0.00000  Uiso   1.00
H1569  H     0.39159   0.08110   0.67282   0.00000  Uiso   1.00
H1570  H     0.38861   0.10777   0.73129   0.00000  Uiso   1.00
N1571  N     0.50000   0.28402   0.83333   0.00000  Uiso   1.00
N1572  N     0.50000   0.04931   0.83333   0.00000  Uiso   1.00
O1573  O     0.43988   0.20625   0.83333   0.00000  Uiso   1.00
O1574  O     0.36123   0.05027   0.92758   0.00000  Uiso   1.00
O1575  O     0.39284   0.04810   0.84574   0.00000  Uiso   1.00
O1576  O     0.60145   0.27116   0.77376   0.00000  Uiso   1.00
O1577  O     0.65377   0.23913   0.72424   0.00000  Uiso   1.00
O1578  O     0.58721   0.19361   0.72957   0.00000  Uiso   1.00
O1579  O     0.61637   0.06409   0.91976   0.00000  Uiso   1.00
O1580  O     0.65563   0.11827   0.97119   0.00000  Uiso   1.00
O1581  O     0.58302   0.14280   0.93768   0.00000  Uiso   1.00
O1582  O     0.36208   0.29451   0.79811   0.00000  Uiso   1.00
O1583  O     0.66034   0.27942   0.87131   0.00000  Uiso   1.00
O1584  O     0.56012   0.12709   0.83334   0.00000  Uiso   1.00
O1585  O     0.40517   0.26920   0.87948   0.00000  Uiso   1.00
O1586  O     0.44356   0.05729   0.77932   0.00000  Uiso   1.00
O1587  O     0.56575   0.28800   0.87770   0.00000  Uiso   1.00
O1588  O     0.54007   0.04606   0.90911   0.00000  Uiso   1.00
O1589  O     0.43705   0.29123   0.77937   0.00000  Uiso   1.00
O1590  O     0.56012   0.20625   0.83334   0.00000  Uiso   1.00
O1591  O     0.43988   0.12709   0.83333   0.00000  Uiso   1.00
O1592  O     0.50000   0.20625   0.76280   0.00000  Uiso   1.00
O1593  O     0.50000   0.12708   0.90387   0.00000  Uiso   1.00
O1594  O     0.50000   0.20625   0.90387   0.00000  Uiso   1.00
O1595  O     0.50000   0.12708   0.76280   0.00000  Uiso   1.00
O1596  O     0.42346   0.09297   0.92061   0.00000  Uiso   1.00
S1597  S     0.38378   0.08044   0.89378   0.00000  Uiso   1.00
S1598  S     0.62178   0.22744   0.75868   0.00000  Uiso   1.00
S1599  S     0.62577   0.11407   0.92690   0.00000  Uiso   1.00
S1600  S     0.36184   0.26367   0.84315   0.00000  Uiso   1.00
C1601  C     0.75435   0.16697   0.83746   0.00000  Uiso   1.00
C1602  C     0.68575   0.20587   0.82534   0.00000  Uiso   1.00
C1603  C     0.95763   0.16558   0.83914   0.00000  Uiso   1.00
C1604  C     0.71001   0.16814   0.84525   0.00000  Uiso   1.00
C1605  C     0.80687   0.02766   0.80139   0.00000  Uiso   1.00
C1606  C     0.86087   0.30759   0.86383   0.00000  Uiso   1.00
C1607  C     0.85611   0.02340   0.86856   0.00000  Uiso   1.00
C1608  C     0.80543   0.31071   0.80188   0.00000  Uiso   1.00
C1609  C     0.76076   0.04629   0.73244   0.00000  Uiso   1.00
C1610  C     0.74265   0.09010   0.70713   0.00000  Uiso   1.00
C1611  C     0.90084   0.26368   0.92360   0.00000  Uiso   1.00
C1612  C     0.91264   0.16624   0.83499   0.00000  Uiso   1.00
C1613  C     0.93979   0.27540   0.95474   0.00000  Uiso   1.00
C1614  C     0.86237   0.02517   0.95393   0.00000  Uiso   1.00
C1615  C     0.85354   0.06082   0.99145   0.00000  Uiso   1.00
C1616  C     0.77643   0.26906   0.73452   0.00000  Uiso   1.00
C1617  C     0.74361   0.28060   0.69266   0.00000  Uiso   1.00
C1618  C     0.83278   0.16713   0.74027   0.00000  Uiso   1.00
C1619  C     0.83187   0.16653   0.92617   0.00000  Uiso   1.00
C1620  C     0.83189   0.16792   0.68836   0.00000  Uiso   1.00
C1621  C     0.83147   0.16719   0.97793   0.00000  Uiso   1.00
C1622  C     0.69014   0.13183   0.87027   0.00000  Uiso   1.00
C1623  C     0.97840   0.19753   0.81116   0.00000  Uiso   1.00
C1624  C     0.98083   0.13643   0.87391   0.00000  Uiso   1.00
Cu1625 Cu    0.83333   0.21355   0.83333   0.00000  Uiso   1.00
Cu1626 Cu    0.83333   0.11978   0.83333   0.00000  Uiso   1.00
H1627  H     0.70018   0.04881   0.82477   0.00000  Uiso   1.00
H1628  H     0.90320   0.22643   0.91735   0.00000  Uiso   1.00
H1629  H     0.87369   0.26879   0.94479   0.00000  Uiso   1.00
H1630  H     0.95109   0.30982   0.94402   0.00000  Uiso   1.00
H1631  H     0.93360   0.27620   0.99405   0.00000  Uiso   1.00
H1632  H     0.96409   0.24902   0.95062   0.00000  Uiso   1.00
H1633  H     0.88887   0.00583   0.97123   0.00000  Uiso   1.00
H1634  H     0.83523   0.00248   0.94966   0.00000  Uiso   1.00
H1635  H     0.82300   0.07651   0.98190   0.00000  Uiso   1.00
H1636  H     0.85341   0.04384   0.69515   0.00000  Uiso   1.00
H1637  H     0.87760   0.08720   0.99337   0.00000  Uiso   1.00
H1638  H     0.90614   0.21404   0.70395   0.00000  Uiso   1.00
H1639  H     0.77067   0.23208   0.74148   0.00000  Uiso   1.00
H1640  H     0.80692   0.27539   0.72064   0.00000  Uiso   1.00
H1641  H     0.75245   0.30979   0.66889   0.00000  Uiso   1.00
H1642  H     0.73977   0.25061   0.66808   0.00000  Uiso   1.00
H1643  H     0.71378   0.28810   0.70706   0.00000  Uiso   1.00
H1644  H     0.92254   0.15833   0.96928   0.00000  Uiso   1.00
H1645  H     0.73521   0.29861   0.89666   0.00000  Uiso   1.00
H1646  H     0.73468   0.02341   0.73656   0.00000  Uiso   1.00
H1647  H     0.78438   0.03183   0.71004   0.00000  Uiso   1.00
H1648  H     0.76697   0.11394   0.69794   0.00000  Uiso   1.00
H1649  H     0.72492   0.08110   0.67282   0.00000  Uiso   1.00
H1650  H     0.72194   0.10777   0.73129   0.00000  Uiso   1.00
N1651  N     0.83333   0.28402   0.83333   0.00000  Uiso   1.00
N1652  N     0.83333   0.04931   0.83333   0.00000  Uiso   1.00
O1653  O     0.77321   0.20625   0.83333   0.00000  Uiso   1.00
O1654  O     0.69456   0.05027   0.92758   0.00000  Uiso   1.00
O1655  O     0.72618   0.04810   0.84574   0.00000  Uiso   1.00
O1656  O     0.93479   0.27116   0.77376   0.00000  Uiso   1.00
O1657  O     0.98711   0.23913   0.72424   0.00000  Uiso   1.00
O1658  O     0.92054   0.19361   0.72957   0.00000  Uiso   1.00
O1659  O     0.94970   0.06409   0.91976   0.00000  Uiso   1.00
O1660  O     0.98897   0.11827   0.97119   0.00000  Uiso   1.00
O1661  O     0.91635   0.14280   0.93768   0.00000  Uiso   1.00
O1662  O     0.69541   0.29451   0.79811   0.00000  Uiso   1.00
O1663  O     0.99368   0.27942   0.87131   0.00000  Uiso   1.00
O1664  O     0.89345   0.12709   0.83334   0.00000  Uiso   1.00
O1665  O     0.73850   0.26920   0.87948   0.00000  Uiso   1.00
O1666  O     0.77689   0.05729   0.77932   0.00000  Uiso   1.00
O1667  O     0.89908   0.28800   0.87770   0.00000  Uiso   1.00
O1668  O     0.87340   0.04606   0.90911   0.00000  Uiso   1.00
O1669  O     0.77039   0.29123   0.77937   0.00000  Uiso   1.00
O1670  O     0.89345   0.20625   0.83334   0.00000  Uiso   1.00
O1671  O     0.77321   0.12709   0.83333   0.00000  Uiso   1.00
O1672  O     0.83333   0.20625   0.76280   0.00000  Uiso   1.00
O1673  O     0.83333   0.12708   0.90387   0.00000  Uiso   1.00
O1674  O     0.83333   0.20625   0.90387   0.00000  Uiso   1.00
O1675  O     0.83333   0.12708   0.76280   0.00000  Uiso   1.00
O1676  O     0.75679   0.09297   0.92061   0.00000  Uiso   1.00
S1677  S     0.71711   0.08044   0.89378   0.00000  Uiso   1.00
S1678  S     0.95511   0.22744   0.75868   0.00000  Uiso   1.00
S1679  S     0.95910   0.11407   0.92690   0.00000  Uiso   1.00
S1680  S     0.69518   0.26367   0.84315   0.00000  Uiso   1.00
C1681  C     0.08769   0.50030   0.83746   0.00000  Uiso   1.00
C1682  C     0.01909   0.53921   0.82534   0.00000  Uiso   1.00
C1683  C     0.29097   0.49891   0.83914   0.00000  Uiso   1.00
C1684  C     0.04335   0.50148   0.84525   0.00000  Uiso   1.00
C1685  C     0.14021   0.36100   0.80139   0.00000  Uiso   1.00
C1686  C     0.19421   0.64092   0.86383   0.00000  Uiso   1.00
C1687  C     0.18945   0.35674   0.86856   0.00000  Uiso   1.00
C1688  C     0.13876   0.64404   0.80188   0.00000  Uiso   1.00
C1689  C     0.09409   0.37962   0.73244   0.00000  Uiso   1.00
C1690  C     0.07598   0.42343   0.70713   0.00000  Uiso   1.00
C1691  C     0.23417   0.59701   0.92360   0.00000  Uiso   1.00
C1692  C     0.24597   0.49957   0.83499   0.00000  Uiso   1.00
C1693  C     0.27312   0.60874   0.95474   0.00000  Uiso   1.00
C1694  C     0.19570   0.35851   0.95393   0.00000  Uiso   1.00
C1695  C     0.18687   0.39415   0.99145   0.00000  Uiso   1.00
C1696  C     0.10977   0.60240   0.73452   0.00000  Uiso   1.00
C1697  C     0.07694   0.61393   0.69266   0.00000  Uiso   1.00
C1698  C     0.16611   0.50046   0.74027   0.00000  Uiso   1.00
C1699  C     0.16520   0.49987   0.92617   0.00000  Uiso   1.00
C1700  C     0.16522   0.50125   0.68836   0.00000  Uiso   1.00
C1701  C     0.16481   0.50052   0.97793   0.00000  Uiso   1.00
C1702  C     0.02347   0.46516   0.87027   0.00000  Uiso   1.00
C1703  C     0.31174   0.53086   0.81116   0.00000  Uiso   1.00
C1704  C     0.31416   0.46976   0.87391   0.00000  Uiso   1.00
Cu1705 Cu    0.16667   0.54689   0.83333   0.00000  Uiso   1.00
Cu1706 Cu    0.16667   0.45311   0.83333   0.00000  Uiso   1.00
H1707  H     0.03351   0.38214   0.82477   0.00000  Uiso   1.00
H1708  H     0.23653   0.55976   0.91735   0.00000  Uiso   1.00
H1709  H     0.20703   0.60212   0.94479   0.00000  Uiso   1.00
H1710  H     0.28442   0.64316   0.94402   0.00000  Uiso   1.00
H1711  H     0.26693   0.60953   0.99405   0.00000  Uiso   1.00
H1712  H     0.29742   0.58235   0.95062   0.00000  Uiso   1.00
H1713  H     0.22221   0.33916   0.97123   0.00000  Uiso   1.00
H1714  H     0.16856   0.33582   0.94966   0.00000  Uiso   1.00
H1715  H     0.15633   0.40984   0.98190   0.00000  Uiso   1.00
H1716  H     0.18674   0.37718   0.69515   0.00000  Uiso   1.00
H1717  H     0.21093   0.42054   0.99337   0.00000  Uiso   1.00
H1718  H     0.23947   0.54737   0.70395   0.00000  Uiso   1.00
H1719  H     0.10400   0.56541   0.74148   0.00000  Uiso   1.00
H1720  H     0.14025   0.60872   0.72064   0.00000  Uiso   1.00
H1721  H     0.08578   0.64312   0.66889   0.00000  Uiso   1.00
H1722  H     0.07311   0.58395   0.66808   0.00000  Uiso   1.00
H1723  H     0.04712   0.62143   0.70706   0.00000  Uiso   1.00
H1724  H     0.25587   0.49166   0.96928   0.00000  Uiso   1.00
H1725  H     0.06855   0.63194   0.89666   0.00000  Uiso   1.00
H1726  H     0.06801   0.35674   0.73656   0.00000  Uiso   1.00
H1727  H     0.11772   0.36517   0.71004   0.00000  Uiso   1.00
H1728  H     0.10030   0.44727   0.69794   0.00000  Uiso   1.00
H1729  H     0.05825   0.41443   0.67282   0.00000  Uiso   1.00
H1730  H     0.05528   0.44110   0.73129   0.00000  Uiso   1.00
N1731  N     0.16667   0.61736   0.83333   0.00000  Uiso   1.00
N1732  N     0.16667   0.38264   0.83333   0.00000  Uiso   1.00
O1733  O     0.10655   0.53958   0.83333   0.00000  Uiso   1.00
O1734  O     0.02790   0.38360   0.92758   0.00000  Uiso   1.00
O1735  O     0.05951   0.38143   0.84574   0.00000  Uiso   1.00
O1736  O     0.26812   0.60449   0.77376   0.00000  Uiso   1.00
O1737  O     0.32044   0.57247   0.72424   0.00000  Uiso   1.00
O1738  O     0.25387   0.52694   0.72957   0.00000  Uiso   1.00
O1739  O     0.28304   0.39743   0.91976   0.00000  Uiso   1.00
O1740  O     0.32230   0.45160   0.97119   0.00000  Uiso   1.00
O1741  O     0.24969   0.47613   0.93768   0.00000  Uiso   1.00
O1742  O     0.02874   0.62784   0.79811   0.00000  Uiso   1.00
O1743  O     0.32701   0.61275   0.87131   0.00000  Uiso   1.00
O1744  O     0.22679   0.46042   0.83334   0.00000  Uiso   1.00
O1745  O     0.07184   0.60253   0.87948   0.00000  Uiso   1.00
O1746  O     0.11022   0.39062   0.77932   0.00000  Uiso   1.00
O1747  O     0.23241   0.62133   0.87770   0.00000  Uiso   1.00
O1748  O     0.20673   0.37939   0.90911   0.00000  Uiso   1.00
O1749  O     0.10372   0.62456   0.77937   0.00000  Uiso   1.00
O1750  O     0.22679   0.53958   0.83334   0.00000  Uiso   1.00
O1751  O     0.10655   0.46042   0.83333   0.00000  Uiso   1.00
O1752  O     0.16667   0.53959   0.76280   0.00000  Uiso   1.00
O1753  O     0.16667   0.46041   0.90387   0.00000  Uiso   1.00
O1754  O     0.16667   0.53959   0.90387   0.00000  Uiso   1.00
O1755  O     0.16667   0.46041   0.76280   0.00000  Uiso   1.00
O1756  O     0.09012   0.42631   0.92061   0.00000  Uiso   1.00
S1757  S     0.05044   0.41378   0.89378   0.00000  Uiso   1.00
S1758  S     0.28844   0.56078   0.75868   0.00000  Uiso   1.00
S1759  S     0.29243   0.44741   0.92690   0.00000  Uiso   1.00
S1760  S     0.02851   0.59701   0.84315   0.00000  Uiso   1.00
C1761  C     0.42102   0.50030   0.83746   0.00000  Uiso   1.00
C1762  C     0.35242   0.53921   0.82534   0.00000  Uiso   1.00
C1763  C     0.62430   0.49891   0.83914   0.00000  Uiso   1.00
C1764  C     0.37668   0.50148   0.84525   0.00000  Uiso   1.00
C1765  C     0.47354   0.36100   0.80139   0.00000  Uiso   1.00
C1766  C     0.52754   0.64092   0.86383   0.00000  Uiso   1.00
C1767  C     0.52278   0.35674   0.86856   0.00000  Uiso   1.00
C1768  C     0.47210   0.64404   0.80188   0.00000  Uiso   1.00
C1769  C     0.42742   0.37962   0.73244   0.00000  Uiso   1.00
C1770  C     0.40932   0.42343   0.70713   0.00000  Uiso   1.00
C1771  C     0.56750   0.59701   0.92360   0.00000  Uiso   1.00
C1772  C     0.57930   0.49957   0.83499   0.00000  Uiso   1.00
C1773  C     0.60646   0.60874   0.95474   0.00000  Uiso   1.00
C1774  C     0.52904   0.35851   0.95393   0.00000  Uiso   1.00
C1775  C     0.52020   0.39415   0.99145   0.00000  Uiso   1.00
C1776  C     0.44310   0.60240   0.73452   0.00000  Uiso   1.00
C1777  C     0.41028   0.61393   0.69266   0.00000  Uiso   1.00
C1778  C     0.49945   0.50046   0.74027   0.00000  Uiso   1.00
C1779  C     0.49854   0.49987   0.92617   0.00000  Uiso   1.00
C1780  C     0.49855   0.50125   0.68836   0.00000  Uiso   1.00
C1781  C     0.49814   0.50052   0.97793   0.00000  Uiso   1.00
C1782  C     0.35680   0.46516   0.87027   0.00000  Uiso   1.00
C1783  C     0.64507   0.53086   0.81116   0.00000  Uiso   1.00
C1784  C     0.64749   0.46976   0.87391   0.00000  Uiso   1.00
Cu1785 Cu    0.50000   0.54689   0.83333   0.00000  Uiso   1.00
Cu1786 Cu    0.50000   0.45311   0.83333   0.00000  Uiso   1.00
H1787  H     0.36685   0.38214   0.82477   0.00000  Uiso   1.00
H1788  H     0.56987   0.55976   0.91735   0.00000  Uiso   1.00
H1789  H     0.54036   0.60212   0.94479   0.00000  Uiso   1.00
H1790  H     0.61775   0.64316   0.94402   0.00000  Uiso   1.00
H1791  H     0.60027   0.60953   0.99405   0.00000  Uiso   1.00
H1792  H     0.63076   0.58235   0.95062   0.00000  Uiso   1.00
H1793  H     0.55554   0.33916   0.97123   0.00000  Uiso   1.00
H1794  H     0.50190   0.33582   0.94966   0.00000  Uiso   1.00
H1795  H     0.48966   0.40984   0.98190   0.00000  Uiso   1.00
H1796  H     0.52007   0.37718   0.69515   0.00000  Uiso   1.00
H1797  H     0.54427   0.42054   0.99337   0.00000  Uiso   1.00
H1798  H     0.57280   0.54737   0.70395   0.00000  Uiso   1.00
H1799  H     0.43733   0.56541   0.74148   0.00000  Uiso   1.00
H1800  H     0.47358   0.60872   0.72064   0.00000  Uiso   1.00
H1801  H     0.41911   0.64312   0.66889   0.00000  Uiso   1.00
H1802  H     0.40644   0.58395   0.66808   0.00000  Uiso   1.00
H1803  H     0.38045   0.62143   0.70706   0.00000  Uiso   1.00
H1804  H     0.58920   0.49166   0.96928   0.00000  Uiso   1.00
H1805  H     0.40188   0.63194   0.89666   0.00000  Uiso   1.00
H1806  H     0.40134   0.35674   0.73656   0.00000  Uiso   1.00
H1807  H     0.45105   0.36517   0.71004   0.00000  Uiso   1.00
H1808  H     0.43364   0.44727   0.69794   0.00000  Uiso   1.00
H1809  H     0.39159   0.41443   0.67282   0.00000  Uiso   1.00
H1810  H     0.38861   0.44110   0.73129   0.00000  Uiso   1.00
N1811  N     0.50000   0.61736   0.83333   0.00000  Uiso   1.00
N1812  N     0.50000   0.38264   0.83333   0.00000  Uiso   1.00
O1813  O     0.43988   0.53958   0.83333   0.00000  Uiso   1.00
O1814  O     0.36123   0.38360   0.92758   0.00000  Uiso   1.00
O1815  O     0.39284   0.38143   0.84574   0.00000  Uiso   1.00
O1816  O     0.60145   0.60449   0.77376   0.00000  Uiso   1.00
O1817  O     0.65377   0.57247   0.72424   0.00000  Uiso   1.00
O1818  O     0.58721   0.52694   0.72957   0.00000  Uiso   1.00
O1819  O     0.61637   0.39743   0.91976   0.00000  Uiso   1.00
O1820  O     0.65563   0.45160   0.97119   0.00000  Uiso   1.00
O1821  O     0.58302   0.47613   0.93768   0.00000  Uiso   1.00
O1822  O     0.36208   0.62784   0.79811   0.00000  Uiso   1.00
O1823  O     0.66034   0.61275   0.87131   0.00000  Uiso   1.00
O1824  O     0.56012   0.46042   0.83334   0.00000  Uiso   1.00
O1825  O     0.40517   0.60253   0.87948   0.00000  Uiso   1.00
O1826  O     0.44356   0.39062   0.77932   0.00000  Uiso   1.00
O1827  O     0.56575   0.62133   0.87770   0.00000  Uiso   1.00
O1828  O     0.54007   0.37939   0.90911   0.00000  Uiso   1.00
O1829  O     0.43705   0.62456   0.77937   0.00000  Uiso   1.00
O1830  O     0.56012   0.53958   0.83334   0.00000  Uiso   1.00
O1831  O     0.43988   0.46042   0.83333   0.00000  Uiso   1.00
O1832  O     0.50000   0.53959   0.76280   0.00000  Uiso   1.00
O1833  O     0.50000   0.46041   0.90387   0.00000  Uiso   1.00
O1834  O     0.50000   0.53959   0.90387   0.00000  Uiso   1.00
O1835  O     0.50000   0.46041   0.76280   0.00000  Uiso   1.00
O1836  O     0.42346   0.42631   0.92061   0.00000  Uiso   1.00
S1837  S     0.38378   0.41378   0.89378   0.00000  Uiso   1.00
S1838  S     0.62178   0.56078   0.75868   0.00000  Uiso   1.00
S1839  S     0.62577   0.44741   0.92690   0.00000  Uiso   1.00
S1840  S     0.36184   0.59701   0.84315   0.00000  Uiso   1.00
C1841  C     0.75435   0.50030   0.83746   0.00000  Uiso   1.00
C1842  C     0.68575   0.53921   0.82534   0.00000  Uiso   1.00
C1843  C     0.95763   0.49891   0.83914   0.00000  Uiso   1.00
C1844  C     0.71001   0.50148   0.84525   0.00000  Uiso   1.00
C1845  C     0.80687   0.36100   0.80139   0.00000  Uiso   1.00
C1846  C     0.86087   0.64092   0.86383   0.00000  Uiso   1.00
C1847  C     0.85611   0.35674   0.86856   0.00000  Uiso   1.00
C1848  C     0.80543   0.64404   0.80188   0.00000  Uiso   1.00
C1849  C     0.76076   0.37962   0.73244   0.00000  Uiso   1.00
C1850  C     0.74265   0.42343   0.70713   0.00000  Uiso   1.00
C1851  C     0.90084   0.59701   0.92360   0.00000  Uiso   1.00
C1852  C     0.91264   0.49957   0.83499   0.00000  Uiso   1.00
C1853  C     0.93979   0.60874   0.95474   0.00000  Uiso   1.00
C1854  C     0.86237   0.35851   0.95393   0.00000  Uiso   1.00
C1855  C     0.85354   0.39415   0.99145   0.00000  Uiso   1.00
C1856  C     0.77643   0.60240   0.73452   0.00000  Uiso   1.00
C1857  C     0.74361   0.61393   0.69266   0.00000  Uiso   1.00
C1858  C     0.83278   0.50046   0.74027   0.00000  Uiso   1.00
C1859  C     0.83187   0.49987   0.92617   0.00000  Uiso   1.00
C1860  C     0.83189   0.50125   0.68836   0.00000  Uiso   1.00
C1861  C     0.83147   0.50052   0.97793   0.00000  Uiso   1.00
C1862  C     0.69014   0.46516   0.87027   0.00000  Uiso   1.00
C1863  C     0.97840   0.53086   0.81116   0.00000  Uiso   1.00
C1864  C     0.98083   0.46976   0.87391   0.00000  Uiso   1.00
Cu1865 Cu    0.83333   0.54689   0.83333   0.00000  Uiso   1.00
Cu1866 Cu    0.83333   0.45311   0.83333   0.00000  Uiso   1.00
H1867  H     0.70018   0.38214   0.82477   0.00000  Uiso   1.00
H1868  H     0.90320   0.55976   0.91735   0.00000  Uiso   1.00
H1869  H     0.87369   0.60212   0.94479   0.00000  Uiso   1.00
H1870  H     0.95109   0.64316   0.94402   0.00000  Uiso   1.00
H1871  H     0.93360   0.60953   0.99405   0.00000  Uiso   1.00
H1872  H     0.96409   0.58235   0.95062   0.00000  Uiso   1.00
H1873  H     0.88887   0.33916   0.97123   0.00000  Uiso   1.00
H1874  H     0.83523   0.33582   0.94966   0.00000  Uiso   1.00
H1875  H     0.82300   0.40984   0.98190   0.00000  Uiso   1.00
H1876  H     0.85341   0.37718   0.69515   0.00000  Uiso   1.00
H1877  H     0.87760   0.42054   0.99337   0.00000  Uiso   1.00
H1878  H     0.90614   0.54737   0.70395   0.00000  Uiso   1.00
H1879  H     0.77067   0.56541   0.74148   0.00000  Uiso   1.00
H1880  H     0.80692   0.60872   0.72064   0.00000  Uiso   1.00
H1881  H     0.75245   0.64312   0.66889   0.00000  Uiso   1.00
H1882  H     0.73977   0.58395   0.66808   0.00000  Uiso   1.00
H1883  H     0.71378   0.62143   0.70706   0.00000  Uiso   1.00
H1884  H     0.92254   0.49166   0.96928   0.00000  Uiso   1.00
H1885  H     0.73521   0.63194   0.89666   0.00000  Uiso   1.00
H1886  H     0.73468   0.35674   0.73656   0.00000  Uiso   1.00
H1887  H     0.78438   0.36517   0.71004   0.00000  Uiso   1.00
H1888  H     0.76697   0.44727   0.69794   0.00000  Uiso   1.00
H1889  H     0.72492   0.41443   0.67282   0.00000  Uiso   1.00
H1890  H     0.72194   0.44110   0.73129   0.00000  Uiso   1.00
N1891  N     0.83333   0.61736   0.83333   0.00000  Uiso   1.00
N1892  N     0.83333   0.38264   0.83333   0.00000  Uiso   1.00
O1893  O     0.77321   0.53958   0.83333   0.00000  Uiso   1.00
O1894  O     0.69456   0.38360   0.92758   0.00000  Uiso   1.00
O1895  O     0.72618   0.38143   0.84574   0.00000  Uiso   1.00
O1896  O     0.93479   0.60449   0.77376   0.00000  Uiso   1.00
O1897  O     0.98711   0.57247   0.72424   0.00000  Uiso   1.00
O1898  O     0.92054   0.52694   0.72957   0.00000  Uiso   1.00
O1899  O     0.94970   0.39743   0.91976   0.00000  Uiso   1.00
O1900  O     0.98897   0.45160   0.97119   0.00000  Uiso   1.00
O1901  O     0.91635   0.47613   0.93768   0.00000  Uiso   1.00
O1902  O     0.69541   0.62784   0.79811   0.00000  Uiso   1.00
O1903  O     0.99368   0.61275   0.87131   0.00000  Uiso   1.00
O1904  O     0.89345   0.46042   0.83334   0.00000  Uiso   1.00
O1905  O     0.73850   0.60253   0.87948   0.00000  Uiso   1.00
O1906  O     0.77689   0.39062   0.77932   0.00000  Uiso   1.00
O1907  O     0.89908   0.62133   0.87770   0.00000  Uiso   1.00
O1908  O     0.87340   0.37939   0.90911   0.00000  Uiso   1.00
O1909  O     0.77039   0.62456   0.77937   0.00000  Uiso   1.00
O1910  O     0.89345   0.53958   0.83334   0.00000  Uiso   1.00
O1911  O     0.77321   0.46042   0.83333   0.00000  Uiso   1.00
O1912  O     0.83333   0.53959   0.76280   0.00000  Uiso   1.00
O1913  O     0.83333   0.46041   0.90387   0.00000  Uiso   1.00
O1914  O     0.83333   0.53959   0.90387   0.00000  Uiso   1.00
O1915  O     0.83333   0.46041   0.76280   0.00000  Uiso   1.00
O1916  O     0.75679   0.42631   0.92061   0.00000  Uiso   1.00
S1917  S     0.71711   0.41378   0.89378   0.00000  Uiso   1.00
S1918  S     0.95511   0.56078   0.75868   0.00000  Uiso   1.00
S1919  S     0.95910   0.44741   0.92690   0.00000  Uiso   1.00
S1920  S     0.69518   0.59701   0.84315   0.00000  Uiso   1.00
C1921  C     0.08769   0.83363   0.83746   0.00000  Uiso   1.00
C1922  C     0.01909   0.87254   0.82534   0.00000  Uiso   1.00
C1923  C     0.29097   0.83224   0.83914   0.00000  Uiso   1.00
C1924  C     0.04335   0.83481   0.84525   0.00000  Uiso   1.00
C1925  C     0.14021   0.69433   0.80139   0.00000  Uiso   1.00
C1926  C     0.19421   0.97425   0.86383   0.00000  Uiso   1.00
C1927  C     0.18945   0.69007   0.86856   0.00000  Uiso   1.00
C1928  C     0.13876   0.97737   0.80188   0.00000  Uiso   1.00
C1929  C     0.09409   0.71296   0.73244   0.00000  Uiso   1.00
C1930  C     0.07598   0.75676   0.70713   0.00000  Uiso   1.00
C1931  C     0.23417   0.93034   0.92360   0.00000  Uiso   1.00
C1932  C     0.24597   0.83291   0.83499   0.00000  Uiso   1.00
C1933  C     0.27312   0.94207   0.95474   0.00000  Uiso   1.00
C1934  C     0.19570   0.69184   0.95393   0.00000  Uiso   1.00
C1935  C     0.18687   0.72748   0.99145   0.00000  Uiso   1.00
C1936  C     0.10977   0.93573   0.73452   0.00000  Uiso   1.00
C1937  C     0.07694   0.94726   0.69266   0.00000  Uiso   1.00
C1938  C     0.16611   0.83380   0.74027   0.00000  Uiso   1.00
C1939  C     0.16520   0.83320   0.92617   0.00000  Uiso   1.00
C1940  C     0.16522   0.83459   0.68836   0.00000  Uiso   1.00
C1941  C     0.16481   0.83386   0.97793   0.00000  Uiso   1.00
C1942  C     0.02347   0.79850   0.87027   0.00000  Uiso   1.00
C1943  C     0.31174   0.86420   0.81116   0.00000  Uiso   1.00
C1944  C     0.31416   0.80309   0.87391   0.00000  Uiso   1.00
Cu1945 Cu    0.16667   0.88022   0.83333   0.00000  Uiso   1.00
Cu1946 Cu    0.16667   0.78645   0.83333   0.00000  Uiso   1.00
H1947  H     0.03351   0.71548   0.82477   0.00000  Uiso   1.00
H1948  H     0.23653   0.89310   0.91735   0.00000  Uiso   1.00
H1949  H     0.20703   0.93546   0.94479   0.00000  Uiso   1.00
H1950  H     0.28442   0.97649   0.94402   0.00000  Uiso   1.00
H1951  H     0.26693   0.94286   0.99405   0.00000  Uiso   1.00
H1952  H     0.29742   0.91568   0.95062   0.00000  Uiso   1.00
H1953  H     0.22221   0.67250   0.97123   0.00000  Uiso   1.00
H1954  H     0.16856   0.66915   0.94966   0.00000  Uiso   1.00
H1955  H     0.15633   0.74317   0.98190   0.00000  Uiso   1.00
H1956  H     0.18674   0.71051   0.69515   0.00000  Uiso   1.00
H1957  H     0.21093   0.75387   0.99337   0.00000  Uiso   1.00
H1958  H     0.23947   0.88071   0.70395   0.00000  Uiso   1.00
H1959  H     0.10400   0.89874   0.74148   0.00000  Uiso   1.00
H1960  H     0.14025   0.94206   0.72064   0.00000  Uiso   1.00
H1961  H     0.08578   0.97645   0.66889   0.00000  Uiso   1.00
H1962  H     0.07311   0.91728   0.66808   0.00000  Uiso   1.00
H1963  H     0.04712   0.95477   0.70706   0.00000  Uiso   1.00
H1964  H     0.25587   0.82499   0.96928   0.00000  Uiso   1.00
H1965  H     0.06855   0.96527   0.89666   0.00000  Uiso   1.00
H1966  H     0.06801   0.69008   0.73656   0.00000  Uiso   1.00
H1967  H     0.11772   0.69850   0.71004   0.00000  Uiso   1.00
H1968  H     0.10030   0.78061   0.69794   0.00000  Uiso   1.00
H1969  H     0.05825   0.74776   0.67282   0.00000  Uiso   1.00
H1970  H     0.05528   0.77443   0.73129   0.00000  Uiso   1.00
N1971  N     0.16667   0.95069   0.83333   0.00000  Uiso   1.00
N1972  N     0.16667   0.71598   0.83333   0.00000  Uiso   1.00
O1973  O     0.10655   0.87291   0.83333   0.00000  Uiso   1.00
O1974  O     0.02790   0.71694   0.92758   0.00000  Uiso   1.00
O1975  O     0.05951   0.71477   0.84574   0.00000  Uiso   1.00
O1976  O     0.26812   0.93782   0.77376   0.00000  Uiso   1.00
O1977  O     0.32044   0.90580   0.72424   0.00000  Uiso   1.00
O1978  O     0.25387   0.86027   0.72957   0.00000  Uiso   1.00
O1979  O     0.28304   0.73076   0.91976   0.00000  Uiso   1.00
O1980  O     0.32230   0.78493   0.97119   0.00000  Uiso   1.00
O1981  O     0.24969   0.80947   0.93768   0.00000  Uiso   1.00
O1982  O     0.02874   0.96118   0.79811   0.00000  Uiso   1.00
O1983  O     0.32701   0.94609   0.87131   0.00000  Uiso   1.00
O1984  O     0.22679   0.79375   0.83334   0.00000  Uiso   1.00
O1985  O     0.07184   0.93587   0.87948   0.00000  Uiso   1.00
O1986  O     0.11022   0.72395   0.77932   0.00000  Uiso   1.00
O1987  O     0.23241   0.95467   0.87770   0.00000  Uiso   1.00
O1988  O     0.20673   0.71272   0.90911   0.00000  Uiso   1.00
O1989  O     0.10372   0.95790   0.77937   0.00000  Uiso   1.00
O1990  O     0.22679   0.87291   0.83334   0.00000  Uiso   1.00
O1991  O     0.10655   0.79375   0.83333   0.00000  Uiso   1.00
O1992  O     0.16667   0.87292   0.76280   0.00000  Uiso   1.00
O1993  O     0.16667   0.79375   0.90387   0.00000  Uiso   1.00
O1994  O     0.16667   0.87292   0.90387   0.00000  Uiso   1.00
O1995  O     0.16667   0.79375   0.76280   0.00000  Uiso   1.00
O1996  O     0.09012   0.75964   0.92061   0.00000  Uiso   1.00
S1997  S     0.05044   0.74711   0.89378   0.00000  Uiso   1.00
S1998  S     0.28844   0.89411   0.75868   0.00000  Uiso   1.00
S1999  S     0.29243   0.78074   0.92690   0.00000  Uiso   1.00
S2000  S     0.02851   0.93034   0.84315   0.00000  Uiso   1.00
C2001  C     0.42102   0.83363   0.83746   0.00000  Uiso   1.00
C2002  C     0.35242   0.87254   0.82534   0.00000  Uiso   1.00
C2003  C     0.62430   0.83224   0.83914   0.00000  Uiso   1.00
C2004  C     0.37668   0.83481   0.84525   0.00000  Uiso   1.00
C2005  C     0.47354   0.69433   0.80139   0.00000  Uiso   1.00
C2006  C     0.52754   0.97425   0.86383   0.00000  Uiso   1.00
C2007  C     0.52278   0.69007   0.86856   0.00000  Uiso   1.00
C2008  C     0.47210   0.97737   0.80188   0.00000  Uiso   1.00
C2009  C     0.42742   0.71296   0.73244   0.00000  Uiso   1.00
C2010  C     0.40932   0.75676   0.70713   0.00000  Uiso   1.00
C2011  C     0.56750   0.93034   0.92360   0.00000  Uiso   1.00
C2012  C     0.57930   0.83291   0.83499   0.00000  Uiso   1.00
C2013  C     0.60646   0.94207   0.95474   0.00000  Uiso   1.00
C2014  C     0.52904   0.69184   0.95393   0.00000  Uiso   1.00
C2015  C     0.52020   0.72748   0.99145   0.00000  Uiso   1.00
C2016  C     0.44310   0.93573   0.73452   0.00000  Uiso   1.00
C2017  C     0.41028   0.94726   0.69266   0.00000  Uiso   1.00
C2018  C     0.49945   0.83380   0.74027   0.00000  Uiso   1.00
C2019  C     0.49854   0.83320   0.92617   0.00000  Uiso   1.00
C2020  C     0.49855   0.83459   0.68836   0.00000  Uiso   1.00
C2021  C     0.49814   0.83386   0.97793   0.00000  Uiso   1.00
C2022  C     0.35680   0.79850   0.87027   0.00000  Uiso   1.00
C2023  C     0.64507   0.86420   0.81116   0.00000  Uiso   1.00
C2024  C     0.64749   0.80309   0.87391   0.00000  Uiso   1.00
Cu2025 Cu    0.50000   0.88022   0.83333   0.00000  Uiso   1.00
Cu2026 Cu    0.50000   0.78645   0.83333   0.00000  Uiso   1.00
H2027  H     0.36685   0.71548   0.82477   0.00000  Uiso   1.00
H2028  H     0.56987   0.89310   0.91735   0.00000  Uiso   1.00
H2029  H     0.54036   0.93546   0.94479   0.00000  Uiso   1.00
H2030  H     0.61775   0.97649   0.94402   0.00000  Uiso   1.00
H2031  H     0.60027   0.94286   0.99405   0.00000  Uiso   1.00
H2032  H     0.63076   0.91568   0.95062   0.00000  Uiso   1.00
H2033  H     0.55554   0.67250   0.97123   0.00000  Uiso   1.00
H2034  H     0.50190   0.66915   0.94966   0.00000  Uiso   1.00
H2035  H     0.48966   0.74317   0.98190   0.00000  Uiso   1.00
H2036  H     0.52007   0.71051   0.69515   0.00000  Uiso   1.00
H2037  H     0.54427   0.75387   0.99337   0.00000  Uiso   1.00
H2038  H     0.57280   0.88071   0.70395   0.00000  Uiso   1.00
H2039  H     0.43733   0.89874   0.74148   0.00000  Uiso   1.00
H2040  H     0.47358   0.94206   0.72064   0.00000  Uiso   1.00
H2041  H     0.41911   0.97645   0.66889   0.00000  Uiso   1.00
H2042  H     0.40644   0.91728   0.66808   0.00000  Uiso   1.00
H2043  H     0.38045   0.95477   0.70706   0.00000  Uiso   1.00
H2044  H     0.58920   0.82499   0.96928   0.00000  Uiso   1.00
H2045  H     0.40188   0.96527   0.89666   0.00000  Uiso   1.00
H2046  H     0.40134   0.69008   0.73656   0.00000  Uiso   1.00
H2047  H     0.45105   0.69850   0.71004   0.00000  Uiso   1.00
H2048  H     0.43364   0.78061   0.69794   0.00000  Uiso   1.00
H2049  H     0.39159   0.74776   0.67282   0.00000  Uiso   1.00
H2050  H     0.38861   0.77443   0.73129   0.00000  Uiso   1.00
N2051  N     0.50000   0.95069   0.83333   0.00000  Uiso   1.00
N2052  N     0.50000   0.71598   0.83333   0.00000  Uiso   1.00
O2053  O     0.43988   0.87291   0.83333   0.00000  Uiso   1.00
O2054  O     0.36123   0.71694   0.92758   0.00000  Uiso   1.00
O2055  O     0.39284   0.71477   0.84574   0.00000  Uiso   1.00
O2056  O     0.60145   0.93782   0.77376   0.00000  Uiso   1.00
O2057  O     0.65377   0.90580   0.72424   0.00000  Uiso   1.00
O2058  O     0.58721   0.86027   0.72957   0.00000  Uiso   1.00
O2059  O     0.61637   0.73076   0.91976   0.00000  Uiso   1.00
O2060  O     0.65563   0.78493   0.97119   0.00000  Uiso   1.00
O2061  O     0.58302   0.80947   0.93768   0.00000  Uiso   1.00
O2062  O     0.36208   0.96118   0.79811   0.00000  Uiso   1.00
O2063  O     0.66034   0.94609   0.87131   0.00000  Uiso   1.00
O2064  O     0.56012   0.79375   0.83334   0.00000  Uiso   1.00
O2065  O     0.40517   0.93587   0.87948   0.00000  Uiso   1.00
O2066  O     0.44356   0.72395   0.77932   0.00000  Uiso   1.00
O2067  O     0.56575   0.95467   0.87770   0.00000  Uiso   1.00
O2068  O     0.54007   0.71272   0.90911   0.00000  Uiso   1.00
O2069  O     0.43705   0.95790   0.77937   0.00000  Uiso   1.00
O2070  O     0.56012   0.87291   0.83334   0.00000  Uiso   1.00
O2071  O     0.43988   0.79375   0.83333   0.00000  Uiso   1.00
O2072  O     0.50000   0.87292   0.76280   0.00000  Uiso   1.00
O2073  O     0.50000   0.79375   0.90387   0.00000  Uiso   1.00
O2074  O     0.50000   0.87292   0.90387   0.00000  Uiso   1.00
O2075  O     0.50000   0.79375   0.76280   0.00000  Uiso   1.00
O2076  O     0.42346   0.75964   0.92061   0.00000  Uiso   1.00
S2077  S     0.38378   0.74711   0.89378   0.00000  Uiso   1.00
S2078  S     0.62178   0.89411   0.75868   0.00000  Uiso   1.00
S2079  S     0.62577   0.78074   0.92690   0.00000  Uiso   1.00
S2080  S     0.36184   0.93034   0.84315   0.00000  Uiso   1.00
C2081  C     0.75435   0.83363   0.83746   0.00000  Uiso   1.00
C2082  C     0.68575   0.87254   0.82534   0.00000  Uiso   1.00
C2083  C     0.95763   0.83224   0.83914   0.00000  Uiso   1.00
C2084  C     0.71001   0.83481   0.84525   0.00000  Uiso   1.00
C2085  C     0.80687   0.69433   0.80139   0.00000  Uiso   1.00
C2086  C     0.86087   0.97425   0.86383   0.00000  Uiso   1.00
C2087  C     0.85611   0.69007   0.86856   0.00000  Uiso   1.00
C2088  C     0.80543   0.97737   0.80188   0.00000  Uiso   1.00
C2089  C     0.76076   0.71296   0.73244   0.00000  Uiso   1.00
C2090  C     0.74265   0.75676   0.70713   0.00000  Uiso   1.00
C2091  C     0.90084   0.93034   0.92360   0.00000  Uiso   1.00
C2092  C     0.91264   0.83291   0.83499   0.00000  Uiso   1.00
C2093  C     0.93979   0.94207   0.95474   0.00000  Uiso   1.00
C2094  C     0.86237   0.69184   0.95393   0.00000  Uiso   1.00
C2095  C     0.85354   0.72748   0.99145   0.00000  Uiso   1.00
C2096  C     0.77643   0.93573   0.73452   0.00000  Uiso   1.00
C2097  C     0.74361   0.94726   0.69266   0.00000  Uiso   1.00
C2098  C     0.83278   0.83380   0.74027   0.00000  Uiso   1.00
C2099  C     0.83187   0.83320   0.92617   0.00000  Uiso   1.00
C2100  C     0.83189   0.83459   0.68836   0.00000  Uiso   1.00
C2101  C     0.83147   0.83386   0.97793   0.00000  Uiso   1.00
C2102  C     0.69014   0.79850   0.87027   0.00000  Uiso   1.00
C2103  C     0.97840   0.86420   0.81116   0.00000  Uiso   1.00
C2104  C     0.98083   0.80309   0.87391   0.00000  Uiso   1.00
Cu2105 Cu    0.83333   0.88022   0.83333   0.00000  Uiso   1.00
Cu2106 Cu    0.83333   0.78645   0.83333   0.00000  Uiso   1.00
H2107  H     0.70018   0.71548   0.82477   0.00000  Uiso   1.00
H2108  H     0.90320   0.89310   0.91735   0.00000  Uiso   1.00
H2109  H     0.87369   0.93546   0.94479   0.00000  Uiso   1.00
H2110  H     0.95109   0.97649   0.94402   0.00000  Uiso   1.00
H2111  H     0.93360   0.94286   0.99405   0.00000  Uiso   1.00
H2112  H     0.96409   0.91568   0.95062   0.00000  Uiso   1.00
H2113  H     0.88887   0.67250   0.97123   0.00000  Uiso   1.00
H2114  H     0.83523   0.66915   0.94966   0.00000  Uiso   1.00
H2115  H     0.82300   0.74317   0.98190   0.00000  Uiso   1.00
H2116  H     0.85341   0.71051   0.69515   0.00000  Uiso   1.00
H2117  H     0.87760   0.75387   0.99337   0.00000  Uiso   1.00
H2118  H     0.90614   0.88071   0.70395   0.00000  Uiso   1.00
H2119  H     0.77067   0.89874   0.74148   0.00000  Uiso   1.00
H2120  H     0.80692   0.94206   0.72064   0.00000  Uiso   1.00
H2121  H     0.75245   0.97645   0.66889   0.00000  Uiso   1.00
H2122  H     0.73977   0.91728   0.66808   0.00000  Uiso   1.00
H2123  H     0.71378   0.95477   0.70706   0.00000  Uiso   1.00
H2124  H     0.92254   0.82499   0.96928   0.00000  Uiso   1.00
H2125  H     0.73521   0.96527   0.89666   0.00000  Uiso   1.00
H2126  H     0.73468   0.69008   0.73656   0.00000  Uiso   1.00
H2127  H     0.78438   0.69850   0.71004   0.00000  Uiso   1.00
H2128  H     0.76697   0.78061   0.69794   0.00000  Uiso   1.00
H2129  H     0.72492   0.74776   0.67282   0.00000  Uiso   1.00
H2130  H     0.72194   0.77443   0.73129   0.00000  Uiso   1.00
N2131  N     0.83333   0.95069   0.83333   0.00000  Uiso   1.00
N2132  N     0.83333   0.71598   0.83333   0.00000  Uiso   1.00
O2133  O     0.77321   0.87291   0.83333   0.00000  Uiso   1.00
O2134  O     0.69456   0.71694   0.92758   0.00000  Uiso   1.00
O2135  O     0.72618   0.71477   0.84574   0.00000  Uiso   1.00
O2136  O     0.93479   0.93782   0.77376   0.00000  Uiso   1.00
O2137  O     0.98711   0.90580   0.72424   0.00000  Uiso   1.00
O2138  O     0.92054   0.86027   0.72957   0.00000  Uiso   1.00
O2139  O     0.94970   0.73076   0.91976   0.00000  Uiso   1.00
O2140  O     0.98897   0.78493   0.97119   0.00000  Uiso   1.00
O2141  O     0.91635   0.80947   0.93768   0.00000  Uiso   1.00
O2142  O     0.69541   0.96118   0.79811   0.00000  Uiso   1.00
O2143  O     0.99368   0.94609   0.87131   0.00000  Uiso   1.00
O2144  O     0.89345   0.79375   0.83334   0.00000  Uiso   1.00
O2145  O     0.73850   0.93587   0.87948   0.00000  Uiso   1.00
O2146  O     0.77689   0.72395   0.77932   0.00000  Uiso   1.00
O2147  O     0.89908   0.95467   0.87770   0.00000  Uiso   1.00
O2148  O     0.87340   0.71272   0.90911   0.00000  Uiso   1.00
O2149  O     0.77039   0.95790   0.77937   0.00000  Uiso   1.00
O2150  O     0.89345   0.87291   0.83334   0.00000  Uiso   1.00
O2151  O     0.77321   0.79375   0.83333   0.00000  Uiso   1.00
O2152  O     0.83333   0.87292   0.76280   0.00000  Uiso   1.00
O2153  O     0.83333   0.79375   0.90387   0.00000  Uiso   1.00
O2154  O     0.83333   0.87292   0.90387   0.00000  Uiso   1.00
O2155  O     0.83333   0.79375   0.76280   0.00000  Uiso   1.00
O2156  O     0.75679   0.75964   0.92061   0.00000  Uiso   1.00
S2157  S     0.71711   0.74711   0.89378   0.00000  Uiso   1.00
S2158  S     0.95511   0.89411   0.75868   0.00000  Uiso   1.00
S2159  S     0.95910   0.78074   0.92690   0.00000  Uiso   1.00
S2160  S     0.69518   0.93034   0.84315   0.00000  Uiso   1.00
loop_
_geom_bond_atom_site_label_1
_geom_bond_atom_site_label_2
_geom_bond_distance
_geom_bond_site_symmetry_2
_ccdc_geom_bond_type
C1     O71     1.313   .     A
C1     O53     1.310   .     A
C1     C4      1.491   .     S
C2     C4      1.413   .     A
C2     S80     1.779   .     S
C2     C183    1.391   1_455 S
C3     C23     1.403   .     A
C3     C12     1.476   .     S
C3     C24     1.420   .     A
C4     C22     1.432   .     A
C5     N52     1.354   .     A
C5     O66     1.387   .     S
C5     C488    1.456   1_545 S
C6     N51     1.381   .     A
C6     O67     1.392   .     S
C6     C247    1.439   .     S
C7     N52     1.370   .     A
C7     O68     1.387   .     S
C7     C486    1.439   1_545 S
C8     O69     1.397   .     S
C8     N51     1.412   .     A
C8     C245    1.456   .     S
C9     O66     1.390   .     S
C9     C10     1.518   .     S
C9     H46     1.103   .     S
C9     H47     1.109   .     S
C10    H48     1.104   .     S
C10    H50     1.112   .     S
C10    H49     1.102   .     S
C11    O67     1.415   .     S
C11    C13     1.528   .     S
C11    H28     1.098   .     S
C11    H29     1.111   .     S
C12    O64     1.306   .     A
C12    O70     1.308   .     A
C13    H32     1.111   .     S
C13    H30     1.109   .     S
C13    H31     1.106   .     S
C14    H33     1.097   .     S
C14    H34     1.117   .     S
C14    O68     1.423   .     S
C14    C15     1.512   .     S
C15    H37     1.108   .     S
C15    H35     1.106   .     S
C15    H756    1.111   .     S
C16    C17     1.534   .     S
C16    H40     1.116   .     S
C16    O69     1.421   .     S
C16    H39     1.104   .     S
C17    H43     1.106   .     S
C17    H42     1.112   .     S
C17    H41     1.107   .     S
C18    O75     1.296   .     A
C18    O72     1.301   .     A
C18    C20     1.412   .     S
C19    C21     1.411   .     S
C19    O73     1.309   .     A
C19    O74     1.289   .     A
C20    C1461   1.192   1_554 S
C21    C740    1.192   .     S
C22    S77     1.797   .     S
C22    C184    1.419   1_455 S
C23    S78     1.767   .     S
C23    C82     1.391   .     S
C24    S79     1.772   .     S
C24    C102    1.419   .     S
Cu25   O53     1.993   .     S
Cu25   O74     1.927   .     S
Cu25   Cu26    2.713   .     S
Cu25   N51     2.039   .     S
Cu25   O72     1.938   .     S
Cu25   O70     1.987   .     S
Cu26   O73     1.938   .     S
Cu26   O64     1.993   .     S
Cu26   O71     1.987   .     S
Cu26   N52     2.039   .     S
Cu26   O75     1.927   .     S
H27    O55     0.990   .     S
H36    C1455   1.111   1_554 S
H38    O58     0.990   .     S
H44    O61     0.990   .     S
H45    O65     0.990   .     S
O54    S77     1.499   .     D
O55    S77     1.671   .     S
O56    S78     1.503   .     D
O57    S78     1.501   .     D
O58    S78     1.678   .     S
O59    S79     1.498   .     D
O60    S79     1.504   .     D
O61    S79     1.673   .     S
O62    S80     1.499   .     D
O63    S160    1.500   .     S
O65    S80     1.683   .     S
O76    S77     1.500   .     D
S80    O223    1.500   1_455 S
C81    O151    1.313   .     A
C81    O133    1.310   .     A
C81    C84     1.491   .     S
C82    C84     1.413   .     A
C82    S160    1.779   .     S
C83    C103    1.403   .     A
C83    C92     1.476   .     S
C83    C104    1.420   .     A
C84    C102    1.432   .     A
C85    N132    1.354   .     A
C85    O146    1.387   .     S
C85    C568    1.456   1_545 S
C86    N131    1.381   .     A
C86    O147    1.392   .     S
C86    C327    1.439   .     S
C87    N132    1.370   .     A
C87    O148    1.387   .     S
C87    C566    1.439   1_545 S
C88    O149    1.397   .     S
C88    N131    1.412   .     A
C88    C325    1.456   .     S
C89    O146    1.390   .     S
C89    C90     1.518   .     S
C89    H126    1.103   .     S
C89    H127    1.109   .     S
C90    H128    1.104   .     S
C90    H130    1.112   .     S
C90    H129    1.102   .     S
C91    O147    1.415   .     S
C91    C93     1.528   .     S
C91    H108    1.098   .     S
C91    H109    1.111   .     S
C92    O144    1.306   .     A
C92    O150    1.308   .     A
C93    H112    1.111   .     S
C93    H110    1.109   .     S
C93    H111    1.106   .     S
C94    H113    1.097   .     S
C94    H114    1.117   .     S
C94    O148    1.423   .     S
C94    C95     1.512   .     S
C95    H117    1.108   .     S
C95    H115    1.106   .     S
C95    H836    1.111   .     S
C96    C97     1.534   .     S
C96    H120    1.116   .     S
C96    O149    1.421   .     S
C96    H119    1.104   .     S
C97    H123    1.106   .     S
C97    H122    1.112   .     S
C97    H121    1.107   .     S
C98    O155    1.296   .     A
C98    O152    1.301   .     A
C98    C100    1.412   .     S
C99    C101    1.411   .     S
C99    O153    1.309   .     A
C99    O154    1.289   .     A
C100   C1541   1.192   1_554 S
C101   C820    1.192   .     S
C102   S157    1.797   .     S
C103   S158    1.767   .     S
C103   C162    1.391   .     S
C104   S159    1.772   .     S
C104   C182    1.419   .     S
Cu105  O133    1.993   .     S
Cu105  O154    1.927   .     S
Cu105  Cu106   2.713   .     S
Cu105  N131    2.039   .     S
Cu105  O152    1.938   .     S
Cu105  O150    1.987   .     S
Cu106  O153    1.938   .     S
Cu106  O144    1.993   .     S
Cu106  O151    1.987   .     S
Cu106  N132    2.039   .     S
Cu106  O155    1.927   .     S
H107   O135    0.990   .     S
H116   C1535   1.111   1_554 S
H118   O138    0.990   .     S
H124   O141    0.990   .     S
H125   O145    0.990   .     S
O134   S157    1.499   .     D
O135   S157    1.671   .     S
O136   S158    1.503   .     D
O137   S158    1.501   .     D
O138   S158    1.678   .     S
O139   S159    1.498   .     D
O140   S159    1.504   .     D
O141   S159    1.673   .     S
O142   S160    1.499   .     D
O143   S240    1.500   .     S
O145   S160    1.683   .     S
O156   S157    1.500   .     D
C161   O231    1.313   .     A
C161   O213    1.310   .     A
C161   C164    1.491   .     S
C162   C164    1.413   .     A
C162   S240    1.779   .     S
C163   C183    1.403   .     A
C163   C172    1.476   .     S
C163   C184    1.420   .     A
C164   C182    1.432   .     A
C165   N212    1.354   .     A
C165   O226    1.387   .     S
C165   C648    1.456   1_545 S
C166   N211    1.381   .     A
C166   O227    1.392   .     S
C166   C407    1.439   .     S
C167   N212    1.370   .     A
C167   O228    1.387   .     S
C167   C646    1.439   1_545 S
C168   O229    1.397   .     S
C168   N211    1.412   .     A
C168   C405    1.456   .     S
C169   O226    1.390   .     S
C169   C170    1.518   .     S
C169   H206    1.103   .     S
C169   H207    1.109   .     S
C170   H208    1.104   .     S
C170   H210    1.112   .     S
C170   H209    1.102   .     S
C171   O227    1.415   .     S
C171   C173    1.528   .     S
C171   H188    1.098   .     S
C171   H189    1.111   .     S
C172   O224    1.306   .     A
C172   O230    1.308   .     A
C173   H192    1.111   .     S
C173   H190    1.109   .     S
C173   H191    1.106   .     S
C174   H193    1.097   .     S
C174   H194    1.117   .     S
C174   O228    1.423   .     S
C174   C175    1.512   .     S
C175   H197    1.108   .     S
C175   H195    1.106   .     S
C175   H916    1.111   .     S
C176   C177    1.534   .     S
C176   H200    1.116   .     S
C176   O229    1.421   .     S
C176   H199    1.104   .     S
C177   H203    1.106   .     S
C177   H202    1.112   .     S
C177   H201    1.107   .     S
C178   O235    1.296   .     A
C178   O232    1.301   .     A
C178   C180    1.412   .     S
C179   C181    1.411   .     S
C179   O233    1.309   .     A
C179   O234    1.289   .     A
C180   C1621   1.192   1_554 S
C181   C900    1.192   .     S
C182   S237    1.797   .     S
C183   S238    1.767   .     S
C183   C2      1.391   1_655 S
C184   S239    1.772   .     S
C184   C22     1.419   1_655 S
Cu185  O213    1.993   .     S
Cu185  O234    1.927   .     S
Cu185  Cu186   2.713   .     S
Cu185  N211    2.039   .     S
Cu185  O232    1.938   .     S
Cu185  O230    1.987   .     S
Cu186  O233    1.938   .     S
Cu186  O224    1.993   .     S
Cu186  O231    1.987   .     S
Cu186  N212    2.039   .     S
Cu186  O235    1.927   .     S
H187   O215    0.990   .     S
H196   C1615   1.111   1_554 S
H198   O218    0.990   .     S
H204   O221    0.990   .     S
H205   O225    0.990   .     S
O214   S237    1.499   .     D
O215   S237    1.671   .     S
O216   S238    1.503   .     D
O217   S238    1.501   .     D
O218   S238    1.678   .     S
O219   S239    1.498   .     D
O220   S239    1.504   .     D
O221   S239    1.673   .     S
O222   S240    1.499   .     D
O223   S80     1.500   1_655 S
O225   S240    1.683   .     S
O236   S237    1.500   .     D
C241   O311    1.313   .     A
C241   O293    1.310   .     A
C241   C244    1.491   .     S
C242   C244    1.413   .     A
C242   S320    1.779   .     S
C242   C423    1.391   1_455 S
C243   C263    1.403   .     A
C243   C252    1.476   .     S
C243   C264    1.420   .     A
C244   C262    1.432   .     A
C245   N292    1.354   .     A
C245   O306    1.387   .     S
C246   N291    1.381   .     A
C246   O307    1.392   .     S
C246   C487    1.439   .     S
C247   N292    1.370   .     A
C247   O308    1.387   .     S
C248   O309    1.397   .     S
C248   N291    1.412   .     A
C248   C485    1.456   .     S
C249   O306    1.390   .     S
C249   C250    1.518   .     S
C249   H286    1.103   .     S
C249   H287    1.109   .     S
C250   H288    1.104   .     S
C250   H290    1.112   .     S
C250   H289    1.102   .     S
C251   O307    1.415   .     S
C251   C253    1.528   .     S
C251   H268    1.098   .     S
C251   H269    1.111   .     S
C252   O304    1.306   .     A
C252   O310    1.308   .     A
C253   H272    1.111   .     S
C253   H270    1.109   .     S
C253   H271    1.106   .     S
C254   H273    1.097   .     S
C254   H274    1.117   .     S
C254   O308    1.423   .     S
C254   C255    1.512   .     S
C255   H277    1.108   .     S
C255   H275    1.106   .     S
C255   H996    1.111   .     S
C256   C257    1.534   .     S
C256   H280    1.116   .     S
C256   O309    1.421   .     S
C256   H279    1.104   .     S
C257   H283    1.106   .     S
C257   H282    1.112   .     S
C257   H281    1.107   .     S
C258   O315    1.296   .     A
C258   O312    1.301   .     A
C258   C260    1.412   .     S
C259   C261    1.411   .     S
C259   O313    1.309   .     A
C259   O314    1.289   .     A
C260   C1701   1.192   1_554 S
C261   C980    1.192   .     S
C262   S317    1.797   .     S
C262   C424    1.419   1_455 S
C263   S318    1.767   .     S
C263   C322    1.391   .     S
C264   S319    1.772   .     S
C264   C342    1.419   .     S
Cu265  O293    1.993   .     S
Cu265  O314    1.927   .     S
Cu265  Cu266   2.713   .     S
Cu265  N291    2.039   .     S
Cu265  O312    1.938   .     S
Cu265  O310    1.987   .     S
Cu266  O313    1.938   .     S
Cu266  O304    1.993   .     S
Cu266  O311    1.987   .     S
Cu266  N292    2.039   .     S
Cu266  O315    1.927   .     S
H267   O295    0.990   .     S
H276   C1695   1.111   1_554 S
H278   O298    0.990   .     S
H284   O301    0.990   .     S
H285   O305    0.990   .     S
O294   S317    1.499   .     D
O295   S317    1.671   .     S
O296   S318    1.503   .     D
O297   S318    1.501   .     D
O298   S318    1.678   .     S
O299   S319    1.498   .     D
O300   S319    1.504   .     D
O301   S319    1.673   .     S
O302   S320    1.499   .     D
O303   S400    1.500   .     S
O305   S320    1.683   .     S
O316   S317    1.500   .     D
S320   O463    1.500   1_455 S
C321   O391    1.313   .     A
C321   O373    1.310   .     A
C321   C324    1.491   .     S
C322   C324    1.413   .     A
C322   S400    1.779   .     S
C323   C343    1.403   .     A
C323   C332    1.476   .     S
C323   C344    1.420   .     A
C324   C342    1.432   .     A
C325   N372    1.354   .     A
C325   O386    1.387   .     S
C326   N371    1.381   .     A
C326   O387    1.392   .     S
C326   C567    1.439   .     S
C327   N372    1.370   .     A
C327   O388    1.387   .     S
C328   O389    1.397   .     S
C328   N371    1.412   .     A
C328   C565    1.456   .     S
C329   O386    1.390   .     S
C329   C330    1.518   .     S
C329   H366    1.103   .     S
C329   H367    1.109   .     S
C330   H368    1.104   .     S
C330   H370    1.112   .     S
C330   H369    1.102   .     S
C331   O387    1.415   .     S
C331   C333    1.528   .     S
C331   H348    1.098   .     S
C331   H349    1.111   .     S
C332   O384    1.306   .     A
C332   O390    1.308   .     A
C333   H352    1.111   .     S
C333   H350    1.109   .     S
C333   H351    1.106   .     S
C334   H353    1.097   .     S
C334   H354    1.117   .     S
C334   O388    1.423   .     S
C334   C335    1.512   .     S
C335   H357    1.108   .     S
C335   H355    1.106   .     S
C335   H1076   1.111   .     S
C336   C337    1.534   .     S
C336   H360    1.116   .     S
C336   O389    1.421   .     S
C336   H359    1.104   .     S
C337   H363    1.106   .     S
C337   H362    1.112   .     S
C337   H361    1.107   .     S
C338   O395    1.296   .     A
C338   O392    1.301   .     A
C338   C340    1.412   .     S
C339   C341    1.411   .     S
C339   O393    1.309   .     A
C339   O394    1.289   .     A
C340   C1781   1.192   1_554 S
C341   C1060   1.192   .     S
C342   S397    1.797   .     S
C343   S398    1.767   .     S
C343   C402    1.391   .     S
C344   S399    1.772   .     S
C344   C422    1.419   .     S
Cu345  O373    1.993   .     S
Cu345  O394    1.927   .     S
Cu345  Cu346   2.713   .     S
Cu345  N371    2.039   .     S
Cu345  O392    1.938   .     S
Cu345  O390    1.987   .     S
Cu346  O393    1.938   .     S
Cu346  O384    1.993   .     S
Cu346  O391    1.987   .     S
Cu346  N372    2.039   .     S
Cu346  O395    1.927   .     S
H347   O375    0.990   .     S
H356   C1775   1.111   1_554 S
H358   O378    0.990   .     S
H364   O381    0.990   .     S
H365   O385    0.990   .     S
O374   S397    1.499   .     D
O375   S397    1.671   .     S
O376   S398    1.503   .     D
O377   S398    1.501   .     D
O378   S398    1.678   .     S
O379   S399    1.498   .     D
O380   S399    1.504   .     D
O381   S399    1.673   .     S
O382   S400    1.499   .     D
O383   S480    1.500   .     S
O385   S400    1.683   .     S
O396   S397    1.500   .     D
C401   O471    1.313   .     A
C401   O453    1.310   .     A
C401   C404    1.491   .     S
C402   C404    1.413   .     A
C402   S480    1.779   .     S
C403   C423    1.403   .     A
C403   C412    1.476   .     S
C403   C424    1.420   .     A
C404   C422    1.432   .     A
C405   N452    1.354   .     A
C405   O466    1.387   .     S
C406   N451    1.381   .     A
C406   O467    1.392   .     S
C406   C647    1.439   .     S
C407   N452    1.370   .     A
C407   O468    1.387   .     S
C408   O469    1.397   .     S
C408   N451    1.412   .     A
C408   C645    1.456   .     S
C409   O466    1.390   .     S
C409   C410    1.518   .     S
C409   H446    1.103   .     S
C409   H447    1.109   .     S
C410   H448    1.104   .     S
C410   H450    1.112   .     S
C410   H449    1.102   .     S
C411   O467    1.415   .     S
C411   C413    1.528   .     S
C411   H428    1.098   .     S
C411   H429    1.111   .     S
C412   O464    1.306   .     A
C412   O470    1.308   .     A
C413   H432    1.111   .     S
C413   H430    1.109   .     S
C413   H431    1.106   .     S
C414   H433    1.097   .     S
C414   H434    1.117   .     S
C414   O468    1.423   .     S
C414   C415    1.512   .     S
C415   H437    1.108   .     S
C415   H435    1.106   .     S
C415   H1156   1.111   .     S
C416   C417    1.534   .     S
C416   H440    1.116   .     S
C416   O469    1.421   .     S
C416   H439    1.104   .     S
C417   H443    1.106   .     S
C417   H442    1.112   .     S
C417   H441    1.107   .     S
C418   O475    1.296   .     A
C418   O472    1.301   .     A
C418   C420    1.412   .     S
C419   C421    1.411   .     S
C419   O473    1.309   .     A
C419   O474    1.289   .     A
C420   C1861   1.192   1_554 S
C421   C1140   1.192   .     S
C422   S477    1.797   .     S
C423   S478    1.767   .     S
C423   C242    1.391   1_655 S
C424   S479    1.772   .     S
C424   C262    1.419   1_655 S
Cu425  O453    1.993   .     S
Cu425  O474    1.927   .     S
Cu425  Cu426   2.713   .     S
Cu425  N451    2.039   .     S
Cu425  O472    1.938   .     S
Cu425  O470    1.987   .     S
Cu426  O473    1.938   .     S
Cu426  O464    1.993   .     S
Cu426  O471    1.987   .     S
Cu426  N452    2.039   .     S
Cu426  O475    1.927   .     S
H427   O455    0.990   .     S
H436   C1855   1.111   1_554 S
H438   O458    0.990   .     S
H444   O461    0.990   .     S
H445   O465    0.990   .     S
O454   S477    1.499   .     D
O455   S477    1.671   .     S
O456   S478    1.503   .     D
O457   S478    1.501   .     D
O458   S478    1.678   .     S
O459   S479    1.498   .     D
O460   S479    1.504   .     D
O461   S479    1.673   .     S
O462   S480    1.499   .     D
O463   S320    1.500   1_655 S
O465   S480    1.683   .     S
O476   S477    1.500   .     D
C481   O551    1.313   .     A
C481   O533    1.310   .     A
C481   C484    1.491   .     S
C482   C484    1.413   .     A
C482   S560    1.779   .     S
C482   C663    1.391   1_455 S
C483   C503    1.403   .     A
C483   C492    1.476   .     S
C483   C504    1.420   .     A
C484   C502    1.432   .     A
C485   N532    1.354   .     A
C485   O546    1.387   .     S
C486   N531    1.381   .     A
C486   O547    1.392   .     S
C486   C7      1.439   1_565 S
C487   N532    1.370   .     A
C487   O548    1.387   .     S
C488   O549    1.397   .     S
C488   N531    1.412   .     A
C488   C5      1.456   1_565 S
C489   O546    1.390   .     S
C489   C490    1.518   .     S
C489   H526    1.103   .     S
C489   H527    1.109   .     S
C490   H528    1.104   .     S
C490   H530    1.112   .     S
C490   H529    1.102   .     S
C491   O547    1.415   .     S
C491   C493    1.528   .     S
C491   H508    1.098   .     S
C491   H509    1.111   .     S
C492   O544    1.306   .     A
C492   O550    1.308   .     A
C493   H512    1.111   .     S
C493   H510    1.109   .     S
C493   H511    1.106   .     S
C494   H513    1.097   .     S
C494   H514    1.117   .     S
C494   O548    1.423   .     S
C494   C495    1.512   .     S
C495   H517    1.108   .     S
C495   H515    1.106   .     S
C495   H1236   1.111   .     S
C496   C497    1.534   .     S
C496   H520    1.116   .     S
C496   O549    1.421   .     S
C496   H519    1.104   .     S
C497   H523    1.106   .     S
C497   H522    1.112   .     S
C497   H521    1.107   .     S
C498   O555    1.296   .     A
C498   O552    1.301   .     A
C498   C500    1.412   .     S
C499   C501    1.411   .     S
C499   O553    1.309   .     A
C499   O554    1.289   .     A
C500   C1941   1.192   1_554 S
C501   C1220   1.192   .     S
C502   S557    1.797   .     S
C502   C664    1.419   1_455 S
C503   S558    1.767   .     S
C503   C562    1.391   .     S
C504   S559    1.772   .     S
C504   C582    1.419   .     S
Cu505  O533    1.993   .     S
Cu505  O554    1.927   .     S
Cu505  Cu506   2.713   .     S
Cu505  N531    2.039   .     S
Cu505  O552    1.938   .     S
Cu505  O550    1.987   .     S
Cu506  O553    1.938   .     S
Cu506  O544    1.993   .     S
Cu506  O551    1.987   .     S
Cu506  N532    2.039   .     S
Cu506  O555    1.927   .     S
H507   O535    0.990   .     S
H516   C1935   1.111   1_554 S
H518   O538    0.990   .     S
H524   O541    0.990   .     S
H525   O545    0.990   .     S
O534   S557    1.499   .     D
O535   S557    1.671   .     S
O536   S558    1.503   .     D
O537   S558    1.501   .     D
O538   S558    1.678   .     S
O539   S559    1.498   .     D
O540   S559    1.504   .     D
O541   S559    1.673   .     S
O542   S560    1.499   .     D
O543   S640    1.500   .     S
O545   S560    1.683   .     S
O556   S557    1.500   .     D
S560   O703    1.500   1_455 S
C561   O631    1.313   .     A
C561   O613    1.310   .     A
C561   C564    1.491   .     S
C562   C564    1.413   .     A
C562   S640    1.779   .     S
C563   C583    1.403   .     A
C563   C572    1.476   .     S
C563   C584    1.420   .     A
C564   C582    1.432   .     A
C565   N612    1.354   .     A
C565   O626    1.387   .     S
C566   N611    1.381   .     A
C566   O627    1.392   .     S
C566   C87     1.439   1_565 S
C567   N612    1.370   .     A
C567   O628    1.387   .     S
C568   O629    1.397   .     S
C568   N611    1.412   .     A
C568   C85     1.456   1_565 S
C569   O626    1.390   .     S
C569   C570    1.518   .     S
C569   H606    1.103   .     S
C569   H607    1.109   .     S
C570   H608    1.104   .     S
C570   H610    1.112   .     S
C570   H609    1.102   .     S
C571   O627    1.415   .     S
C571   C573    1.528   .     S
C571   H588    1.098   .     S
C571   H589    1.111   .     S
C572   O624    1.306   .     A
C572   O630    1.308   .     A
C573   H592    1.111   .     S
C573   H590    1.109   .     S
C573   H591    1.106   .     S
C574   H593    1.097   .     S
C574   H594    1.117   .     S
C574   O628    1.423   .     S
C574   C575    1.512   .     S
C575   H597    1.108   .     S
C575   H595    1.106   .     S
C575   H1316   1.111   .     S
C576   C577    1.534   .     S
C576   H600    1.116   .     S
C576   O629    1.421   .     S
C576   H599    1.104   .     S
C577   H603    1.106   .     S
C577   H602    1.112   .     S
C577   H601    1.107   .     S
C578   O635    1.296   .     A
C578   O632    1.301   .     A
C578   C580    1.412   .     S
C579   C581    1.411   .     S
C579   O633    1.309   .     A
C579   O634    1.289   .     A
C580   C2021   1.192   1_554 S
C581   C1300   1.192   .     S
C582   S637    1.797   .     S
C583   S638    1.767   .     S
C583   C642    1.391   .     S
C584   S639    1.772   .     S
C584   C662    1.419   .     S
Cu585  O613    1.993   .     S
Cu585  O634    1.927   .     S
Cu585  Cu586   2.713   .     S
Cu585  N611    2.039   .     S
Cu585  O632    1.938   .     S
Cu585  O630    1.987   .     S
Cu586  O633    1.938   .     S
Cu586  O624    1.993   .     S
Cu586  O631    1.987   .     S
Cu586  N612    2.039   .     S
Cu586  O635    1.927   .     S
H587   O615    0.990   .     S
H596   C2015   1.111   1_554 S
H598   O618    0.990   .     S
H604   O621    0.990   .     S
H605   O625    0.990   .     S
O614   S637    1.499   .     D
O615   S637    1.671   .     S
O616   S638    1.503   .     D
O617   S638    1.501   .     D
O618   S638    1.678   .     S
O619   S639    1.498   .     D
O620   S639    1.504   .     D
O621   S639    1.673   .     S
O622   S640    1.499   .     D
O623   S720    1.500   .     S
O625   S640    1.683   .     S
O636   S637    1.500   .     D
C641   O711    1.313   .     A
C641   O693    1.310   .     A
C641   C644    1.491   .     S
C642   C644    1.413   .     A
C642   S720    1.779   .     S
C643   C663    1.403   .     A
C643   C652    1.476   .     S
C643   C664    1.420   .     A
C644   C662    1.432   .     A
C645   N692    1.354   .     A
C645   O706    1.387   .     S
C646   N691    1.381   .     A
C646   O707    1.392   .     S
C646   C167    1.439   1_565 S
C647   N692    1.370   .     A
C647   O708    1.387   .     S
C648   O709    1.397   .     S
C648   N691    1.412   .     A
C648   C165    1.456   1_565 S
C649   O706    1.390   .     S
C649   C650    1.518   .     S
C649   H686    1.103   .     S
C649   H687    1.109   .     S
C650   H688    1.104   .     S
C650   H690    1.112   .     S
C650   H689    1.102   .     S
C651   O707    1.415   .     S
C651   C653    1.528   .     S
C651   H668    1.098   .     S
C651   H669    1.111   .     S
C652   O704    1.306   .     A
C652   O710    1.308   .     A
C653   H672    1.111   .     S
C653   H670    1.109   .     S
C653   H671    1.106   .     S
C654   H673    1.097   .     S
C654   H674    1.117   .     S
C654   O708    1.423   .     S
C654   C655    1.512   .     S
C655   H677    1.108   .     S
C655   H675    1.106   .     S
C655   H1396   1.111   .     S
C656   C657    1.534   .     S
C656   H680    1.116   .     S
C656   O709    1.421   .     S
C656   H679    1.104   .     S
C657   H683    1.106   .     S
C657   H682    1.112   .     S
C657   H681    1.107   .     S
C658   O715    1.296   .     A
C658   O712    1.301   .     A
C658   C660    1.412   .     S
C659   C661    1.411   .     S
C659   O713    1.309   .     A
C659   O714    1.289   .     A
C660   C2101   1.192   1_554 S
C661   C1380   1.192   .     S
C662   S717    1.797   .     S
C663   S718    1.767   .     S
C663   C482    1.391   1_655 S
C664   S719    1.772   .     S
C664   C502    1.419   1_655 S
Cu665  O693    1.993   .     S
Cu665  O714    1.927   .     S
Cu665  Cu666   2.713   .     S
Cu665  N691    2.039   .     S
Cu665  O712    1.938   .     S
Cu665  O710    1.987   .     S
Cu666  O713    1.938   .     S
Cu666  O704    1.993   .     S
Cu666  O711    1.987   .     S
Cu666  N692    2.039   .     S
Cu666  O715    1.927   .     S
H667   O695    0.990   .     S
H676   C2095   1.111   1_554 S
H678   O698    0.990   .     S
H684   O701    0.990   .     S
H685   O705    0.990   .     S
O694   S717    1.499   .     D
O695   S717    1.671   .     S
O696   S718    1.503   .     D
O697   S718    1.501   .     D
O698   S718    1.678   .     S
O699   S719    1.498   .     D
O700   S719    1.504   .     D
O701   S719    1.673   .     S
O702   S720    1.499   .     D
O703   S560    1.500   1_655 S
O705   S720    1.683   .     S
O716   S717    1.500   .     D
C721   O791    1.313   .     A
C721   O773    1.310   .     A
C721   C724    1.491   .     S
C722   C724    1.413   .     A
C722   S800    1.779   .     S
C722   C903    1.391   1_455 S
C723   C743    1.403   .     A
C723   C732    1.476   .     S
C723   C744    1.420   .     A
C724   C742    1.432   .     A
C725   N772    1.354   .     A
C725   O786    1.387   .     S
C725   C1208   1.456   1_545 S
C726   N771    1.381   .     A
C726   O787    1.392   .     S
C726   C967    1.439   .     S
C727   N772    1.370   .     A
C727   O788    1.387   .     S
C727   C1206   1.439   1_545 S
C728   O789    1.397   .     S
C728   N771    1.412   .     A
C728   C965    1.456   .     S
C729   O786    1.390   .     S
C729   C730    1.518   .     S
C729   H766    1.103   .     S
C729   H767    1.109   .     S
C730   H768    1.104   .     S
C730   H770    1.112   .     S
C730   H769    1.102   .     S
C731   O787    1.415   .     S
C731   C733    1.528   .     S
C731   H748    1.098   .     S
C731   H749    1.111   .     S
C732   O784    1.306   .     A
C732   O790    1.308   .     A
C733   H752    1.111   .     S
C733   H750    1.109   .     S
C733   H751    1.106   .     S
C734   H753    1.097   .     S
C734   H754    1.117   .     S
C734   O788    1.423   .     S
C734   C735    1.512   .     S
C735   H757    1.108   .     S
C735   H755    1.106   .     S
C735   H1476   1.111   .     S
C736   C737    1.534   .     S
C736   H760    1.116   .     S
C736   O789    1.421   .     S
C736   H759    1.104   .     S
C737   H763    1.106   .     S
C737   H762    1.112   .     S
C737   H761    1.107   .     S
C738   O795    1.296   .     A
C738   O792    1.301   .     A
C738   C740    1.412   .     S
C739   C741    1.411   .     S
C739   O793    1.309   .     A
C739   O794    1.289   .     A
C741   C1460   1.192   .     S
C742   S797    1.797   .     S
C742   C904    1.419   1_455 S
C743   S798    1.767   .     S
C743   C802    1.391   .     S
C744   S799    1.772   .     S
C744   C822    1.419   .     S
Cu745  O773    1.993   .     S
Cu745  O794    1.927   .     S
Cu745  Cu746   2.713   .     S
Cu745  N771    2.039   .     S
Cu745  O792    1.938   .     S
Cu745  O790    1.987   .     S
Cu746  O793    1.938   .     S
Cu746  O784    1.993   .     S
Cu746  O791    1.987   .     S
Cu746  N772    2.039   .     S
Cu746  O795    1.927   .     S
H747   O775    0.990   .     S
H758   O778    0.990   .     S
H764   O781    0.990   .     S
H765   O785    0.990   .     S
O774   S797    1.499   .     D
O775   S797    1.671   .     S
O776   S798    1.503   .     D
O777   S798    1.501   .     D
O778   S798    1.678   .     S
O779   S799    1.498   .     D
O780   S799    1.504   .     D
O781   S799    1.673   .     S
O782   S800    1.499   .     D
O783   S880    1.500   .     S
O785   S800    1.683   .     S
O796   S797    1.500   .     D
S800   O943    1.500   1_455 S
C801   O871    1.313   .     A
C801   O853    1.310   .     A
C801   C804    1.491   .     S
C802   C804    1.413   .     A
C802   S880    1.779   .     S
C803   C823    1.403   .     A
C803   C812    1.476   .     S
C803   C824    1.420   .     A
C804   C822    1.432   .     A
C805   N852    1.354   .     A
C805   O866    1.387   .     S
C805   C1288   1.456   1_545 S
C806   N851    1.381   .     A
C806   O867    1.392   .     S
C806   C1047   1.439   .     S
C807   N852    1.370   .     A
C807   O868    1.387   .     S
C807   C1286   1.439   1_545 S
C808   O869    1.397   .     S
C808   N851    1.412   .     A
C808   C1045   1.456   .     S
C809   O866    1.390   .     S
C809   C810    1.518   .     S
C809   H846    1.103   .     S
C809   H847    1.109   .     S
C810   H848    1.104   .     S
C810   H850    1.112   .     S
C810   H849    1.102   .     S
C811   O867    1.415   .     S
C811   C813    1.528   .     S
C811   H828    1.098   .     S
C811   H829    1.111   .     S
C812   O864    1.306   .     A
C812   O870    1.308   .     A
C813   H832    1.111   .     S
C813   H830    1.109   .     S
C813   H831    1.106   .     S
C814   H833    1.097   .     S
C814   H834    1.117   .     S
C814   O868    1.423   .     S
C814   C815    1.512   .     S
C815   H837    1.108   .     S
C815   H835    1.106   .     S
C815   H1556   1.111   .     S
C816   C817    1.534   .     S
C816   H840    1.116   .     S
C816   O869    1.421   .     S
C816   H839    1.104   .     S
C817   H843    1.106   .     S
C817   H842    1.112   .     S
C817   H841    1.107   .     S
C818   O875    1.296   .     A
C818   O872    1.301   .     A
C818   C820    1.412   .     S
C819   C821    1.411   .     S
C819   O873    1.309   .     A
C819   O874    1.289   .     A
C821   C1540   1.192   .     S
C822   S877    1.797   .     S
C823   S878    1.767   .     S
C823   C882    1.391   .     S
C824   S879    1.772   .     S
C824   C902    1.419   .     S
Cu825  O853    1.993   .     S
Cu825  O874    1.927   .     S
Cu825  Cu826   2.713   .     S
Cu825  N851    2.039   .     S
Cu825  O872    1.938   .     S
Cu825  O870    1.987   .     S
Cu826  O873    1.938   .     S
Cu826  O864    1.993   .     S
Cu826  O871    1.987   .     S
Cu826  N852    2.039   .     S
Cu826  O875    1.927   .     S
H827   O855    0.990   .     S
H838   O858    0.990   .     S
H844   O861    0.990   .     S
H845   O865    0.990   .     S
O854   S877    1.499   .     D
O855   S877    1.671   .     S
O856   S878    1.503   .     D
O857   S878    1.501   .     D
O858   S878    1.678   .     S
O859   S879    1.498   .     D
O860   S879    1.504   .     D
O861   S879    1.673   .     S
O862   S880    1.499   .     D
O863   S960    1.500   .     S
O865   S880    1.683   .     S
O876   S877    1.500   .     D
C881   O951    1.313   .     A
C881   O933    1.310   .     A
C881   C884    1.491   .     S
C882   C884    1.413   .     A
C882   S960    1.779   .     S
C883   C903    1.403   .     A
C883   C892    1.476   .     S
C883   C904    1.420   .     A
C884   C902    1.432   .     A
C885   N932    1.354   .     A
C885   O946    1.387   .     S
C885   C1368   1.456   1_545 S
C886   N931    1.381   .     A
C886   O947    1.392   .     S
C886   C1127   1.439   .     S
C887   N932    1.370   .     A
C887   O948    1.387   .     S
C887   C1366   1.439   1_545 S
C888   O949    1.397   .     S
C888   N931    1.412   .     A
C888   C1125   1.456   .     S
C889   O946    1.390   .     S
C889   C890    1.518   .     S
C889   H926    1.103   .     S
C889   H927    1.109   .     S
C890   H928    1.104   .     S
C890   H930    1.112   .     S
C890   H929    1.102   .     S
C891   O947    1.415   .     S
C891   C893    1.528   .     S
C891   H908    1.098   .     S
C891   H909    1.111   .     S
C892   O944    1.306   .     A
C892   O950    1.308   .     A
C893   H912    1.111   .     S
C893   H910    1.109   .     S
C893   H911    1.106   .     S
C894   H913    1.097   .     S
C894   H914    1.117   .     S
C894   O948    1.423   .     S
C894   C895    1.512   .     S
C895   H917    1.108   .     S
C895   H915    1.106   .     S
C895   H1636   1.111   .     S
C896   C897    1.534   .     S
C896   H920    1.116   .     S
C896   O949    1.421   .     S
C896   H919    1.104   .     S
C897   H923    1.106   .     S
C897   H922    1.112   .     S
C897   H921    1.107   .     S
C898   O955    1.296   .     A
C898   O952    1.301   .     A
C898   C900    1.412   .     S
C899   C901    1.411   .     S
C899   O953    1.309   .     A
C899   O954    1.289   .     A
C901   C1620   1.192   .     S
C902   S957    1.797   .     S
C903   S958    1.767   .     S
C903   C722    1.391   1_655 S
C904   S959    1.772   .     S
C904   C742    1.419   1_655 S
Cu905  O933    1.993   .     S
Cu905  O954    1.927   .     S
Cu905  Cu906   2.713   .     S
Cu905  N931    2.039   .     S
Cu905  O952    1.938   .     S
Cu905  O950    1.987   .     S
Cu906  O953    1.938   .     S
Cu906  O944    1.993   .     S
Cu906  O951    1.987   .     S
Cu906  N932    2.039   .     S
Cu906  O955    1.927   .     S
H907   O935    0.990   .     S
H918   O938    0.990   .     S
H924   O941    0.990   .     S
H925   O945    0.990   .     S
O934   S957    1.499   .     D
O935   S957    1.671   .     S
O936   S958    1.503   .     D
O937   S958    1.501   .     D
O938   S958    1.678   .     S
O939   S959    1.498   .     D
O940   S959    1.504   .     D
O941   S959    1.673   .     S
O942   S960    1.499   .     D
O943   S800    1.500   1_655 S
O945   S960    1.683   .     S
O956   S957    1.500   .     D
C961   O1031   1.313   .     A
C961   O1013   1.310   .     A
C961   C964    1.491   .     S
C962   C964    1.413   .     A
C962   S1040   1.779   .     S
C962   C1143   1.391   1_455 S
C963   C983    1.403   .     A
C963   C972    1.476   .     S
C963   C984    1.420   .     A
C964   C982    1.432   .     A
C965   N1012   1.354   .     A
C965   O1026   1.387   .     S
C966   N1011   1.381   .     A
C966   O1027   1.392   .     S
C966   C1207   1.439   .     S
C967   N1012   1.370   .     A
C967   O1028   1.387   .     S
C968   O1029   1.397   .     S
C968   N1011   1.412   .     A
C968   C1205   1.456   .     S
C969   O1026   1.390   .     S
C969   C970    1.518   .     S
C969   H1006   1.103   .     S
C969   H1007   1.109   .     S
C970   H1008   1.104   .     S
C970   H1010   1.112   .     S
C970   H1009   1.102   .     S
C971   O1027   1.415   .     S
C971   C973    1.528   .     S
C971   H988    1.098   .     S
C971   H989    1.111   .     S
C972   O1024   1.306   .     A
C972   O1030   1.308   .     A
C973   H992    1.111   .     S
C973   H990    1.109   .     S
C973   H991    1.106   .     S
C974   H993    1.097   .     S
C974   H994    1.117   .     S
C974   O1028   1.423   .     S
C974   C975    1.512   .     S
C975   H997    1.108   .     S
C975   H995    1.106   .     S
C975   H1716   1.111   .     S
C976   C977    1.534   .     S
C976   H1000   1.116   .     S
C976   O1029   1.421   .     S
C976   H999    1.104   .     S
C977   H1003   1.106   .     S
C977   H1002   1.112   .     S
C977   H1001   1.107   .     S
C978   O1035   1.296   .     A
C978   O1032   1.301   .     A
C978   C980    1.412   .     S
C979   C981    1.411   .     S
C979   O1033   1.309   .     A
C979   O1034   1.289   .     A
C981   C1700   1.192   .     S
C982   S1037   1.797   .     S
C982   C1144   1.419   1_455 S
C983   S1038   1.767   .     S
C983   C1042   1.391   .     S
C984   S1039   1.772   .     S
C984   C1062   1.419   .     S
Cu985  O1013   1.993   .     S
Cu985  O1034   1.927   .     S
Cu985  Cu986   2.713   .     S
Cu985  N1011   2.039   .     S
Cu985  O1032   1.938   .     S
Cu985  O1030   1.987   .     S
Cu986  O1033   1.938   .     S
Cu986  O1024   1.993   .     S
Cu986  O1031   1.987   .     S
Cu986  N1012   2.039   .     S
Cu986  O1035   1.927   .     S
H987   O1015   0.990   .     S
H998   O1018   0.990   .     S
H1004  O1021   0.990   .     S
H1005  O1025   0.990   .     S
O1014  S1037   1.499   .     D
O1015  S1037   1.671   .     S
O1016  S1038   1.503   .     D
O1017  S1038   1.501   .     D
O1018  S1038   1.678   .     S
O1019  S1039   1.498   .     D
O1020  S1039   1.504   .     D
O1021  S1039   1.673   .     S
O1022  S1040   1.499   .     D
O1023  S1120   1.500   .     S
O1025  S1040   1.683   .     S
O1036  S1037   1.500   .     D
S1040  O1183   1.500   1_455 S
C1041  O1111   1.313   .     A
C1041  O1093   1.310   .     A
C1041  C1044   1.491   .     S
C1042  C1044   1.413   .     A
C1042  S1120   1.779   .     S
C1043  C1063   1.403   .     A
C1043  C1052   1.476   .     S
C1043  C1064   1.420   .     A
C1044  C1062   1.432   .     A
C1045  N1092   1.354   .     A
C1045  O1106   1.387   .     S
C1046  N1091   1.381   .     A
C1046  O1107   1.392   .     S
C1046  C1287   1.439   .     S
C1047  N1092   1.370   .     A
C1047  O1108   1.387   .     S
C1048  O1109   1.397   .     S
C1048  N1091   1.412   .     A
C1048  C1285   1.456   .     S
C1049  O1106   1.390   .     S
C1049  C1050   1.518   .     S
C1049  H1086   1.103   .     S
C1049  H1087   1.109   .     S
C1050  H1088   1.104   .     S
C1050  H1090   1.112   .     S
C1050  H1089   1.102   .     S
C1051  O1107   1.415   .     S
C1051  C1053   1.528   .     S
C1051  H1068   1.098   .     S
C1051  H1069   1.111   .     S
C1052  O1104   1.306   .     A
C1052  O1110   1.308   .     A
C1053  H1072   1.111   .     S
C1053  H1070   1.109   .     S
C1053  H1071   1.106   .     S
C1054  H1073   1.097   .     S
C1054  H1074   1.117   .     S
C1054  O1108   1.423   .     S
C1054  C1055   1.512   .     S
C1055  H1077   1.108   .     S
C1055  H1075   1.106   .     S
C1055  H1796   1.111   .     S
C1056  C1057   1.534   .     S
C1056  H1080   1.116   .     S
C1056  O1109   1.421   .     S
C1056  H1079   1.104   .     S
C1057  H1083   1.106   .     S
C1057  H1082   1.112   .     S
C1057  H1081   1.107   .     S
C1058  O1115   1.296   .     A
C1058  O1112   1.301   .     A
C1058  C1060   1.412   .     S
C1059  C1061   1.411   .     S
C1059  O1113   1.309   .     A
C1059  O1114   1.289   .     A
C1061  C1780   1.192   .     S
C1062  S1117   1.797   .     S
C1063  S1118   1.767   .     S
C1063  C1122   1.391   .     S
C1064  S1119   1.772   .     S
C1064  C1142   1.419   .     S
Cu1065 O1093   1.993   .     S
Cu1065 O1114   1.927   .     S
Cu1065 Cu1066  2.713   .     S
Cu1065 N1091   2.039   .     S
Cu1065 O1112   1.938   .     S
Cu1065 O1110   1.987   .     S
Cu1066 O1113   1.938   .     S
Cu1066 O1104   1.993   .     S
Cu1066 O1111   1.987   .     S
Cu1066 N1092   2.039   .     S
Cu1066 O1115   1.927   .     S
H1067  O1095   0.990   .     S
H1078  O1098   0.990   .     S
H1084  O1101   0.990   .     S
H1085  O1105   0.990   .     S
O1094  S1117   1.499   .     D
O1095  S1117   1.671   .     S
O1096  S1118   1.503   .     D
O1097  S1118   1.501   .     D
O1098  S1118   1.678   .     S
O1099  S1119   1.498   .     D
O1100  S1119   1.504   .     D
O1101  S1119   1.673   .     S
O1102  S1120   1.499   .     D
O1103  S1200   1.500   .     S
O1105  S1120   1.683   .     S
O1116  S1117   1.500   .     D
C1121  O1191   1.313   .     A
C1121  O1173   1.310   .     A
C1121  C1124   1.491   .     S
C1122  C1124   1.413   .     A
C1122  S1200   1.779   .     S
C1123  C1143   1.403   .     A
C1123  C1132   1.476   .     S
C1123  C1144   1.420   .     A
C1124  C1142   1.432   .     A
C1125  N1172   1.354   .     A
C1125  O1186   1.387   .     S
C1126  N1171   1.381   .     A
C1126  O1187   1.392   .     S
C1126  C1367   1.439   .     S
C1127  N1172   1.370   .     A
C1127  O1188   1.387   .     S
C1128  O1189   1.397   .     S
C1128  N1171   1.412   .     A
C1128  C1365   1.456   .     S
C1129  O1186   1.390   .     S
C1129  C1130   1.518   .     S
C1129  H1166   1.103   .     S
C1129  H1167   1.109   .     S
C1130  H1168   1.104   .     S
C1130  H1170   1.112   .     S
C1130  H1169   1.102   .     S
C1131  O1187   1.415   .     S
C1131  C1133   1.528   .     S
C1131  H1148   1.098   .     S
C1131  H1149   1.111   .     S
C1132  O1184   1.306   .     A
C1132  O1190   1.308   .     A
C1133  H1152   1.111   .     S
C1133  H1150   1.109   .     S
C1133  H1151   1.106   .     S
C1134  H1153   1.097   .     S
C1134  H1154   1.117   .     S
C1134  O1188   1.423   .     S
C1134  C1135   1.512   .     S
C1135  H1157   1.108   .     S
C1135  H1155   1.106   .     S
C1135  H1876   1.111   .     S
C1136  C1137   1.534   .     S
C1136  H1160   1.116   .     S
C1136  O1189   1.421   .     S
C1136  H1159   1.104   .     S
C1137  H1163   1.106   .     S
C1137  H1162   1.112   .     S
C1137  H1161   1.107   .     S
C1138  O1195   1.296   .     A
C1138  O1192   1.301   .     A
C1138  C1140   1.412   .     S
C1139  C1141   1.411   .     S
C1139  O1193   1.309   .     A
C1139  O1194   1.289   .     A
C1141  C1860   1.192   .     S
C1142  S1197   1.797   .     S
C1143  S1198   1.767   .     S
C1143  C962    1.391   1_655 S
C1144  S1199   1.772   .     S
C1144  C982    1.419   1_655 S
Cu1145 O1173   1.993   .     S
Cu1145 O1194   1.927   .     S
Cu1145 Cu1146  2.713   .     S
Cu1145 N1171   2.039   .     S
Cu1145 O1192   1.938   .     S
Cu1145 O1190   1.987   .     S
Cu1146 O1193   1.938   .     S
Cu1146 O1184   1.993   .     S
Cu1146 O1191   1.987   .     S
Cu1146 N1172   2.039   .     S
Cu1146 O1195   1.927   .     S
H1147  O1175   0.990   .     S
H1158  O1178   0.990   .     S
H1164  O1181   0.990   .     S
H1165  O1185   0.990   .     S
O1174  S1197   1.499   .     D
O1175  S1197   1.671   .     S
O1176  S1198   1.503   .     D
O1177  S1198   1.501   .     D
O1178  S1198   1.678   .     S
O1179  S1199   1.498   .     D
O1180  S1199   1.504   .     D
O1181  S1199   1.673   .     S
O1182  S1200   1.499   .     D
O1183  S1040   1.500   1_655 S
O1185  S1200   1.683   .     S
O1196  S1197   1.500   .     D
C1201  O1271   1.313   .     A
C1201  O1253   1.310   .     A
C1201  C1204   1.491   .     S
C1202  C1204   1.413   .     A
C1202  S1280   1.779   .     S
C1202  C1383   1.391   1_455 S
C1203  C1223   1.403   .     A
C1203  C1212   1.476   .     S
C1203  C1224   1.420   .     A
C1204  C1222   1.432   .     A
C1205  N1252   1.354   .     A
C1205  O1266   1.387   .     S
C1206  N1251   1.381   .     A
C1206  O1267   1.392   .     S
C1206  C727    1.439   1_565 S
C1207  N1252   1.370   .     A
C1207  O1268   1.387   .     S
C1208  O1269   1.397   .     S
C1208  N1251   1.412   .     A
C1208  C725    1.456   1_565 S
C1209  O1266   1.390   .     S
C1209  C1210   1.518   .     S
C1209  H1246   1.103   .     S
C1209  H1247   1.109   .     S
C1210  H1248   1.104   .     S
C1210  H1250   1.112   .     S
C1210  H1249   1.102   .     S
C1211  O1267   1.415   .     S
C1211  C1213   1.528   .     S
C1211  H1228   1.098   .     S
C1211  H1229   1.111   .     S
C1212  O1264   1.306   .     A
C1212  O1270   1.308   .     A
C1213  H1232   1.111   .     S
C1213  H1230   1.109   .     S
C1213  H1231   1.106   .     S
C1214  H1233   1.097   .     S
C1214  H1234   1.117   .     S
C1214  O1268   1.423   .     S
C1214  C1215   1.512   .     S
C1215  H1237   1.108   .     S
C1215  H1235   1.106   .     S
C1215  H1956   1.111   .     S
C1216  C1217   1.534   .     S
C1216  H1240   1.116   .     S
C1216  O1269   1.421   .     S
C1216  H1239   1.104   .     S
C1217  H1243   1.106   .     S
C1217  H1242   1.112   .     S
C1217  H1241   1.107   .     S
C1218  O1275   1.296   .     A
C1218  O1272   1.301   .     A
C1218  C1220   1.412   .     S
C1219  C1221   1.411   .     S
C1219  O1273   1.309   .     A
C1219  O1274   1.289   .     A
C1221  C1940   1.192   .     S
C1222  S1277   1.797   .     S
C1222  C1384   1.419   1_455 S
C1223  S1278   1.767   .     S
C1223  C1282   1.391   .     S
C1224  S1279   1.772   .     S
C1224  C1302   1.419   .     S
Cu1225 O1253   1.993   .     S
Cu1225 O1274   1.927   .     S
Cu1225 Cu1226  2.713   .     S
Cu1225 N1251   2.039   .     S
Cu1225 O1272   1.938   .     S
Cu1225 O1270   1.987   .     S
Cu1226 O1273   1.938   .     S
Cu1226 O1264   1.993   .     S
Cu1226 O1271   1.987   .     S
Cu1226 N1252   2.039   .     S
Cu1226 O1275   1.927   .     S
H1227  O1255   0.990   .     S
H1238  O1258   0.990   .     S
H1244  O1261   0.990   .     S
H1245  O1265   0.990   .     S
O1254  S1277   1.499   .     D
O1255  S1277   1.671   .     S
O1256  S1278   1.503   .     D
O1257  S1278   1.501   .     D
O1258  S1278   1.678   .     S
O1259  S1279   1.498   .     D
O1260  S1279   1.504   .     D
O1261  S1279   1.673   .     S
O1262  S1280   1.499   .     D
O1263  S1360   1.500   .     S
O1265  S1280   1.683   .     S
O1276  S1277   1.500   .     D
S1280  O1423   1.500   1_455 S
C1281  O1351   1.313   .     A
C1281  O1333   1.310   .     A
C1281  C1284   1.491   .     S
C1282  C1284   1.413   .     A
C1282  S1360   1.779   .     S
C1283  C1303   1.403   .     A
C1283  C1292   1.476   .     S
C1283  C1304   1.420   .     A
C1284  C1302   1.432   .     A
C1285  N1332   1.354   .     A
C1285  O1346   1.387   .     S
C1286  N1331   1.381   .     A
C1286  O1347   1.392   .     S
C1286  C807    1.439   1_565 S
C1287  N1332   1.370   .     A
C1287  O1348   1.387   .     S
C1288  O1349   1.397   .     S
C1288  N1331   1.412   .     A
C1288  C805    1.456   1_565 S
C1289  O1346   1.390   .     S
C1289  C1290   1.518   .     S
C1289  H1326   1.103   .     S
C1289  H1327   1.109   .     S
C1290  H1328   1.104   .     S
C1290  H1330   1.112   .     S
C1290  H1329   1.102   .     S
C1291  O1347   1.415   .     S
C1291  C1293   1.528   .     S
C1291  H1308   1.098   .     S
C1291  H1309   1.111   .     S
C1292  O1344   1.306   .     A
C1292  O1350   1.308   .     A
C1293  H1312   1.111   .     S
C1293  H1310   1.109   .     S
C1293  H1311   1.106   .     S
C1294  H1313   1.097   .     S
C1294  H1314   1.117   .     S
C1294  O1348   1.423   .     S
C1294  C1295   1.512   .     S
C1295  H1317   1.108   .     S
C1295  H1315   1.106   .     S
C1295  H2036   1.111   .     S
C1296  C1297   1.534   .     S
C1296  H1320   1.116   .     S
C1296  O1349   1.421   .     S
C1296  H1319   1.104   .     S
C1297  H1323   1.106   .     S
C1297  H1322   1.112   .     S
C1297  H1321   1.107   .     S
C1298  O1355   1.296   .     A
C1298  O1352   1.301   .     A
C1298  C1300   1.412   .     S
C1299  C1301   1.411   .     S
C1299  O1353   1.309   .     A
C1299  O1354   1.289   .     A
C1301  C2020   1.192   .     S
C1302  S1357   1.797   .     S
C1303  S1358   1.767   .     S
C1303  C1362   1.391   .     S
C1304  S1359   1.772   .     S
C1304  C1382   1.419   .     S
Cu1305 O1333   1.993   .     S
Cu1305 O1354   1.927   .     S
Cu1305 Cu1306  2.713   .     S
Cu1305 N1331   2.039   .     S
Cu1305 O1352   1.938   .     S
Cu1305 O1350   1.987   .     S
Cu1306 O1353   1.938   .     S
Cu1306 O1344   1.993   .     S
Cu1306 O1351   1.987   .     S
Cu1306 N1332   2.039   .     S
Cu1306 O1355   1.927   .     S
H1307  O1335   0.990   .     S
H1318  O1338   0.990   .     S
H1324  O1341   0.990   .     S
H1325  O1345   0.990   .     S
O1334  S1357   1.499   .     D
O1335  S1357   1.671   .     S
O1336  S1358   1.503   .     D
O1337  S1358   1.501   .     D
O1338  S1358   1.678   .     S
O1339  S1359   1.498   .     D
O1340  S1359   1.504   .     D
O1341  S1359   1.673   .     S
O1342  S1360   1.499   .     D
O1343  S1440   1.500   .     S
O1345  S1360   1.683   .     S
O1356  S1357   1.500   .     D
C1361  O1431   1.313   .     A
C1361  O1413   1.310   .     A
C1361  C1364   1.491   .     S
C1362  C1364   1.413   .     A
C1362  S1440   1.779   .     S
C1363  C1383   1.403   .     A
C1363  C1372   1.476   .     S
C1363  C1384   1.420   .     A
C1364  C1382   1.432   .     A
C1365  N1412   1.354   .     A
C1365  O1426   1.387   .     S
C1366  N1411   1.381   .     A
C1366  O1427   1.392   .     S
C1366  C887    1.439   1_565 S
C1367  N1412   1.370   .     A
C1367  O1428   1.387   .     S
C1368  O1429   1.397   .     S
C1368  N1411   1.412   .     A
C1368  C885    1.456   1_565 S
C1369  O1426   1.390   .     S
C1369  C1370   1.518   .     S
C1369  H1406   1.103   .     S
C1369  H1407   1.109   .     S
C1370  H1408   1.104   .     S
C1370  H1410   1.112   .     S
C1370  H1409   1.102   .     S
C1371  O1427   1.415   .     S
C1371  C1373   1.528   .     S
C1371  H1388   1.098   .     S
C1371  H1389   1.111   .     S
C1372  O1424   1.306   .     A
C1372  O1430   1.308   .     A
C1373  H1392   1.111   .     S
C1373  H1390   1.109   .     S
C1373  H1391   1.106   .     S
C1374  H1393   1.097   .     S
C1374  H1394   1.117   .     S
C1374  O1428   1.423   .     S
C1374  C1375   1.512   .     S
C1375  H1397   1.108   .     S
C1375  H1395   1.106   .     S
C1375  H2116   1.111   .     S
C1376  C1377   1.534   .     S
C1376  H1400   1.116   .     S
C1376  O1429   1.421   .     S
C1376  H1399   1.104   .     S
C1377  H1403   1.106   .     S
C1377  H1402   1.112   .     S
C1377  H1401   1.107   .     S
C1378  O1435   1.296   .     A
C1378  O1432   1.301   .     A
C1378  C1380   1.412   .     S
C1379  C1381   1.411   .     S
C1379  O1433   1.309   .     A
C1379  O1434   1.289   .     A
C1381  C2100   1.192   .     S
C1382  S1437   1.797   .     S
C1383  S1438   1.767   .     S
C1383  C1202   1.391   1_655 S
C1384  S1439   1.772   .     S
C1384  C1222   1.419   1_655 S
Cu1385 O1413   1.993   .     S
Cu1385 O1434   1.927   .     S
Cu1385 Cu1386  2.713   .     S
Cu1385 N1411   2.039   .     S
Cu1385 O1432   1.938   .     S
Cu1385 O1430   1.987   .     S
Cu1386 O1433   1.938   .     S
Cu1386 O1424   1.993   .     S
Cu1386 O1431   1.987   .     S
Cu1386 N1412   2.039   .     S
Cu1386 O1435   1.927   .     S
H1387  O1415   0.990   .     S
H1398  O1418   0.990   .     S
H1404  O1421   0.990   .     S
H1405  O1425   0.990   .     S
O1414  S1437   1.499   .     D
O1415  S1437   1.671   .     S
O1416  S1438   1.503   .     D
O1417  S1438   1.501   .     D
O1418  S1438   1.678   .     S
O1419  S1439   1.498   .     D
O1420  S1439   1.504   .     D
O1421  S1439   1.673   .     S
O1422  S1440   1.499   .     D
O1423  S1280   1.500   1_655 S
O1425  S1440   1.683   .     S
O1436  S1437   1.500   .     D
C1441  O1511   1.313   .     A
C1441  O1493   1.310   .     A
C1441  C1444   1.491   .     S
C1442  C1444   1.413   .     A
C1442  S1520   1.779   .     S
C1442  C1623   1.391   1_455 S
C1443  C1463   1.403   .     A
C1443  C1452   1.476   .     S
C1443  C1464   1.420   .     A
C1444  C1462   1.432   .     A
C1445  N1492   1.354   .     A
C1445  O1506   1.387   .     S
C1445  C1928   1.456   1_545 S
C1446  N1491   1.381   .     A
C1446  O1507   1.392   .     S
C1446  C1687   1.439   .     S
C1447  N1492   1.370   .     A
C1447  O1508   1.387   .     S
C1447  C1926   1.439   1_545 S
C1448  O1509   1.397   .     S
C1448  N1491   1.412   .     A
C1448  C1685   1.456   .     S
C1449  O1506   1.390   .     S
C1449  C1450   1.518   .     S
C1449  H1486   1.103   .     S
C1449  H1487   1.109   .     S
C1450  H1488   1.104   .     S
C1450  H1490   1.112   .     S
C1450  H1489   1.102   .     S
C1451  O1507   1.415   .     S
C1451  C1453   1.528   .     S
C1451  H1468   1.098   .     S
C1451  H1469   1.111   .     S
C1452  O1504   1.306   .     A
C1452  O1510   1.308   .     A
C1453  H1472   1.111   .     S
C1453  H1470   1.109   .     S
C1453  H1471   1.106   .     S
C1454  H1473   1.097   .     S
C1454  H1474   1.117   .     S
C1454  O1508   1.423   .     S
C1454  C1455   1.512   .     S
C1455  H1477   1.108   .     S
C1455  H1475   1.106   .     S
C1455  H36     1.111   1_556 S
C1456  C1457   1.534   .     S
C1456  H1480   1.116   .     S
C1456  O1509   1.421   .     S
C1456  H1479   1.104   .     S
C1457  H1483   1.106   .     S
C1457  H1482   1.112   .     S
C1457  H1481   1.107   .     S
C1458  O1515   1.296   .     A
C1458  O1512   1.301   .     A
C1458  C1460   1.412   .     S
C1459  C1461   1.411   .     S
C1459  O1513   1.309   .     A
C1459  O1514   1.289   .     A
C1461  C20     1.192   1_556 S
C1462  S1517   1.797   .     S
C1462  C1624   1.419   1_455 S
C1463  S1518   1.767   .     S
C1463  C1522   1.391   .     S
C1464  S1519   1.772   .     S
C1464  C1542   1.419   .     S
Cu1465 O1493   1.993   .     S
Cu1465 O1514   1.927   .     S
Cu1465 Cu1466  2.713   .     S
Cu1465 N1491   2.039   .     S
Cu1465 O1512   1.938   .     S
Cu1465 O1510   1.987   .     S
Cu1466 O1513   1.938   .     S
Cu1466 O1504   1.993   .     S
Cu1466 O1511   1.987   .     S
Cu1466 N1492   2.039   .     S
Cu1466 O1515   1.927   .     S
H1467  O1495   0.990   .     S
H1478  O1498   0.990   .     S
H1484  O1501   0.990   .     S
H1485  O1505   0.990   .     S
O1494  S1517   1.499   .     D
O1495  S1517   1.671   .     S
O1496  S1518   1.503   .     D
O1497  S1518   1.501   .     D
O1498  S1518   1.678   .     S
O1499  S1519   1.498   .     D
O1500  S1519   1.504   .     D
O1501  S1519   1.673   .     S
O1502  S1520   1.499   .     D
O1503  S1600   1.500   .     S
O1505  S1520   1.683   .     S
O1516  S1517   1.500   .     D
S1520  O1663   1.500   1_455 S
C1521  O1591   1.313   .     A
C1521  O1573   1.310   .     A
C1521  C1524   1.491   .     S
C1522  C1524   1.413   .     A
C1522  S1600   1.779   .     S
C1523  C1543   1.403   .     A
C1523  C1532   1.476   .     S
C1523  C1544   1.420   .     A
C1524  C1542   1.432   .     A
C1525  N1572   1.354   .     A
C1525  O1586   1.387   .     S
C1525  C2008   1.456   1_545 S
C1526  N1571   1.381   .     A
C1526  O1587   1.392   .     S
C1526  C1767   1.439   .     S
C1527  N1572   1.370   .     A
C1527  O1588   1.387   .     S
C1527  C2006   1.439   1_545 S
C1528  O1589   1.397   .     S
C1528  N1571   1.412   .     A
C1528  C1765   1.456   .     S
C1529  O1586   1.390   .     S
C1529  C1530   1.518   .     S
C1529  H1566   1.103   .     S
C1529  H1567   1.109   .     S
C1530  H1568   1.104   .     S
C1530  H1570   1.112   .     S
C1530  H1569   1.102   .     S
C1531  O1587   1.415   .     S
C1531  C1533   1.528   .     S
C1531  H1548   1.098   .     S
C1531  H1549   1.111   .     S
C1532  O1584   1.306   .     A
C1532  O1590   1.308   .     A
C1533  H1552   1.111   .     S
C1533  H1550   1.109   .     S
C1533  H1551   1.106   .     S
C1534  H1553   1.097   .     S
C1534  H1554   1.117   .     S
C1534  O1588   1.423   .     S
C1534  C1535   1.512   .     S
C1535  H1557   1.108   .     S
C1535  H1555   1.106   .     S
C1535  H116    1.111   1_556 S
C1536  C1537   1.534   .     S
C1536  H1560   1.116   .     S
C1536  O1589   1.421   .     S
C1536  H1559   1.104   .     S
C1537  H1563   1.106   .     S
C1537  H1562   1.112   .     S
C1537  H1561   1.107   .     S
C1538  O1595   1.296   .     A
C1538  O1592   1.301   .     A
C1538  C1540   1.412   .     S
C1539  C1541   1.411   .     S
C1539  O1593   1.309   .     A
C1539  O1594   1.289   .     A
C1541  C100    1.192   1_556 S
C1542  S1597   1.797   .     S
C1543  S1598   1.767   .     S
C1543  C1602   1.391   .     S
C1544  S1599   1.772   .     S
C1544  C1622   1.419   .     S
Cu1545 O1573   1.993   .     S
Cu1545 O1594   1.927   .     S
Cu1545 Cu1546  2.713   .     S
Cu1545 N1571   2.039   .     S
Cu1545 O1592   1.938   .     S
Cu1545 O1590   1.987   .     S
Cu1546 O1593   1.938   .     S
Cu1546 O1584   1.993   .     S
Cu1546 O1591   1.987   .     S
Cu1546 N1572   2.039   .     S
Cu1546 O1595   1.927   .     S
H1547  O1575   0.990   .     S
H1558  O1578   0.990   .     S
H1564  O1581   0.990   .     S
H1565  O1585   0.990   .     S
O1574  S1597   1.499   .     D
O1575  S1597   1.671   .     S
O1576  S1598   1.503   .     D
O1577  S1598   1.501   .     D
O1578  S1598   1.678   .     S
O1579  S1599   1.498   .     D
O1580  S1599   1.504   .     D
O1581  S1599   1.673   .     S
O1582  S1600   1.499   .     D
O1583  S1680   1.500   .     S
O1585  S1600   1.683   .     S
O1596  S1597   1.500   .     D
C1601  O1671   1.313   .     A
C1601  O1653   1.310   .     A
C1601  C1604   1.491   .     S
C1602  C1604   1.413   .     A
C1602  S1680   1.779   .     S
C1603  C1623   1.403   .     A
C1603  C1612   1.476   .     S
C1603  C1624   1.420   .     A
C1604  C1622   1.432   .     A
C1605  N1652   1.354   .     A
C1605  O1666   1.387   .     S
C1605  C2088   1.456   1_545 S
C1606  N1651   1.381   .     A
C1606  O1667   1.392   .     S
C1606  C1847   1.439   .     S
C1607  N1652   1.370   .     A
C1607  O1668   1.387   .     S
C1607  C2086   1.439   1_545 S
C1608  O1669   1.397   .     S
C1608  N1651   1.412   .     A
C1608  C1845   1.456   .     S
C1609  O1666   1.390   .     S
C1609  C1610   1.518   .     S
C1609  H1646   1.103   .     S
C1609  H1647   1.109   .     S
C1610  H1648   1.104   .     S
C1610  H1650   1.112   .     S
C1610  H1649   1.102   .     S
C1611  O1667   1.415   .     S
C1611  C1613   1.528   .     S
C1611  H1628   1.098   .     S
C1611  H1629   1.111   .     S
C1612  O1664   1.306   .     A
C1612  O1670   1.308   .     A
C1613  H1632   1.111   .     S
C1613  H1630   1.109   .     S
C1613  H1631   1.106   .     S
C1614  H1633   1.097   .     S
C1614  H1634   1.117   .     S
C1614  O1668   1.423   .     S
C1614  C1615   1.512   .     S
C1615  H1637   1.108   .     S
C1615  H1635   1.106   .     S
C1615  H196    1.111   1_556 S
C1616  C1617   1.534   .     S
C1616  H1640   1.116   .     S
C1616  O1669   1.421   .     S
C1616  H1639   1.104   .     S
C1617  H1643   1.106   .     S
C1617  H1642   1.112   .     S
C1617  H1641   1.107   .     S
C1618  O1675   1.296   .     A
C1618  O1672   1.301   .     A
C1618  C1620   1.412   .     S
C1619  C1621   1.411   .     S
C1619  O1673   1.309   .     A
C1619  O1674   1.289   .     A
C1621  C180    1.192   1_556 S
C1622  S1677   1.797   .     S
C1623  S1678   1.767   .     S
C1623  C1442   1.391   1_655 S
C1624  S1679   1.772   .     S
C1624  C1462   1.419   1_655 S
Cu1625 O1653   1.993   .     S
Cu1625 O1674   1.927   .     S
Cu1625 Cu1626  2.713   .     S
Cu1625 N1651   2.039   .     S
Cu1625 O1672   1.938   .     S
Cu1625 O1670   1.987   .     S
Cu1626 O1673   1.938   .     S
Cu1626 O1664   1.993   .     S
Cu1626 O1671   1.987   .     S
Cu1626 N1652   2.039   .     S
Cu1626 O1675   1.927   .     S
H1627  O1655   0.990   .     S
H1638  O1658   0.990   .     S
H1644  O1661   0.990   .     S
H1645  O1665   0.990   .     S
O1654  S1677   1.499   .     D
O1655  S1677   1.671   .     S
O1656  S1678   1.503   .     D
O1657  S1678   1.501   .     D
O1658  S1678   1.678   .     S
O1659  S1679   1.498   .     D
O1660  S1679   1.504   .     D
O1661  S1679   1.673   .     S
O1662  S1680   1.499   .     D
O1663  S1520   1.500   1_655 S
O1665  S1680   1.683   .     S
O1676  S1677   1.500   .     D
C1681  O1751   1.313   .     A
C1681  O1733   1.310   .     A
C1681  C1684   1.491   .     S
C1682  C1684   1.413   .     A
C1682  S1760   1.779   .     S
C1682  C1863   1.391   1_455 S
C1683  C1703   1.403   .     A
C1683  C1692   1.476   .     S
C1683  C1704   1.420   .     A
C1684  C1702   1.432   .     A
C1685  N1732   1.354   .     A
C1685  O1746   1.387   .     S
C1686  N1731   1.381   .     A
C1686  O1747   1.392   .     S
C1686  C1927   1.439   .     S
C1687  N1732   1.370   .     A
C1687  O1748   1.387   .     S
C1688  O1749   1.397   .     S
C1688  N1731   1.412   .     A
C1688  C1925   1.456   .     S
C1689  O1746   1.390   .     S
C1689  C1690   1.518   .     S
C1689  H1726   1.103   .     S
C1689  H1727   1.109   .     S
C1690  H1728   1.104   .     S
C1690  H1730   1.112   .     S
C1690  H1729   1.102   .     S
C1691  O1747   1.415   .     S
C1691  C1693   1.528   .     S
C1691  H1708   1.098   .     S
C1691  H1709   1.111   .     S
C1692  O1744   1.306   .     A
C1692  O1750   1.308   .     A
C1693  H1712   1.111   .     S
C1693  H1710   1.109   .     S
C1693  H1711   1.106   .     S
C1694  H1713   1.097   .     S
C1694  H1714   1.117   .     S
C1694  O1748   1.423   .     S
C1694  C1695   1.512   .     S
C1695  H1717   1.108   .     S
C1695  H1715   1.106   .     S
C1695  H276    1.111   1_556 S
C1696  C1697   1.534   .     S
C1696  H1720   1.116   .     S
C1696  O1749   1.421   .     S
C1696  H1719   1.104   .     S
C1697  H1723   1.106   .     S
C1697  H1722   1.112   .     S
C1697  H1721   1.107   .     S
C1698  O1755   1.296   .     A
C1698  O1752   1.301   .     A
C1698  C1700   1.412   .     S
C1699  C1701   1.411   .     S
C1699  O1753   1.309   .     A
C1699  O1754   1.289   .     A
C1701  C260    1.192   1_556 S
C1702  S1757   1.797   .     S
C1702  C1864   1.419   1_455 S
C1703  S1758   1.767   .     S
C1703  C1762   1.391   .     S
C1704  S1759   1.772   .     S
C1704  C1782   1.419   .     S
Cu1705 O1733   1.993   .     S
Cu1705 O1754   1.927   .     S
Cu1705 Cu1706  2.713   .     S
Cu1705 N1731   2.039   .     S
Cu1705 O1752   1.938   .     S
Cu1705 O1750   1.987   .     S
Cu1706 O1753   1.938   .     S
Cu1706 O1744   1.993   .     S
Cu1706 O1751   1.987   .     S
Cu1706 N1732   2.039   .     S
Cu1706 O1755   1.927   .     S
H1707  O1735   0.990   .     S
H1718  O1738   0.990   .     S
H1724  O1741   0.990   .     S
H1725  O1745   0.990   .     S
O1734  S1757   1.499   .     D
O1735  S1757   1.671   .     S
O1736  S1758   1.503   .     D
O1737  S1758   1.501   .     D
O1738  S1758   1.678   .     S
O1739  S1759   1.498   .     D
O1740  S1759   1.504   .     D
O1741  S1759   1.673   .     S
O1742  S1760   1.499   .     D
O1743  S1840   1.500   .     S
O1745  S1760   1.683   .     S
O1756  S1757   1.500   .     D
S1760  O1903   1.500   1_455 S
C1761  O1831   1.313   .     A
C1761  O1813   1.310   .     A
C1761  C1764   1.491   .     S
C1762  C1764   1.413   .     A
C1762  S1840   1.779   .     S
C1763  C1783   1.403   .     A
C1763  C1772   1.476   .     S
C1763  C1784   1.420   .     A
C1764  C1782   1.432   .     A
C1765  N1812   1.354   .     A
C1765  O1826   1.387   .     S
C1766  N1811   1.381   .     A
C1766  O1827   1.392   .     S
C1766  C2007   1.439   .     S
C1767  N1812   1.370   .     A
C1767  O1828   1.387   .     S
C1768  O1829   1.397   .     S
C1768  N1811   1.412   .     A
C1768  C2005   1.456   .     S
C1769  O1826   1.390   .     S
C1769  C1770   1.518   .     S
C1769  H1806   1.103   .     S
C1769  H1807   1.109   .     S
C1770  H1808   1.104   .     S
C1770  H1810   1.112   .     S
C1770  H1809   1.102   .     S
C1771  O1827   1.415   .     S
C1771  C1773   1.528   .     S
C1771  H1788   1.098   .     S
C1771  H1789   1.111   .     S
C1772  O1824   1.306   .     A
C1772  O1830   1.308   .     A
C1773  H1792   1.111   .     S
C1773  H1790   1.109   .     S
C1773  H1791   1.106   .     S
C1774  H1793   1.097   .     S
C1774  H1794   1.117   .     S
C1774  O1828   1.423   .     S
C1774  C1775   1.512   .     S
C1775  H1797   1.108   .     S
C1775  H1795   1.106   .     S
C1775  H356    1.111   1_556 S
C1776  C1777   1.534   .     S
C1776  H1800   1.116   .     S
C1776  O1829   1.421   .     S
C1776  H1799   1.104   .     S
C1777  H1803   1.106   .     S
C1777  H1802   1.112   .     S
C1777  H1801   1.107   .     S
C1778  O1835   1.296   .     A
C1778  O1832   1.301   .     A
C1778  C1780   1.412   .     S
C1779  C1781   1.411   .     S
C1779  O1833   1.309   .     A
C1779  O1834   1.289   .     A
C1781  C340    1.192   1_556 S
C1782  S1837   1.797   .     S
C1783  S1838   1.767   .     S
C1783  C1842   1.391   .     S
C1784  S1839   1.772   .     S
C1784  C1862   1.419   .     S
Cu1785 O1813   1.993   .     S
Cu1785 O1834   1.927   .     S
Cu1785 Cu1786  2.713   .     S
Cu1785 N1811   2.039   .     S
Cu1785 O1832   1.938   .     S
Cu1785 O1830   1.987   .     S
Cu1786 O1833   1.938   .     S
Cu1786 O1824   1.993   .     S
Cu1786 O1831   1.987   .     S
Cu1786 N1812   2.039   .     S
Cu1786 O1835   1.927   .     S
H1787  O1815   0.990   .     S
H1798  O1818   0.990   .     S
H1804  O1821   0.990   .     S
H1805  O1825   0.990   .     S
O1814  S1837   1.499   .     D
O1815  S1837   1.671   .     S
O1816  S1838   1.503   .     D
O1817  S1838   1.501   .     D
O1818  S1838   1.678   .     S
O1819  S1839   1.498   .     D
O1820  S1839   1.504   .     D
O1821  S1839   1.673   .     S
O1822  S1840   1.499   .     D
O1823  S1920   1.500   .     S
O1825  S1840   1.683   .     S
O1836  S1837   1.500   .     D
C1841  O1911   1.313   .     A
C1841  O1893   1.310   .     A
C1841  C1844   1.491   .     S
C1842  C1844   1.413   .     A
C1842  S1920   1.779   .     S
C1843  C1863   1.403   .     A
C1843  C1852   1.476   .     S
C1843  C1864   1.420   .     A
C1844  C1862   1.432   .     A
C1845  N1892   1.354   .     A
C1845  O1906   1.387   .     S
C1846  N1891   1.381   .     A
C1846  O1907   1.392   .     S
C1846  C2087   1.439   .     S
C1847  N1892   1.370   .     A
C1847  O1908   1.387   .     S
C1848  O1909   1.397   .     S
C1848  N1891   1.412   .     A
C1848  C2085   1.456   .     S
C1849  O1906   1.390   .     S
C1849  C1850   1.518   .     S
C1849  H1886   1.103   .     S
C1849  H1887   1.109   .     S
C1850  H1888   1.104   .     S
C1850  H1890   1.112   .     S
C1850  H1889   1.102   .     S
C1851  O1907   1.415   .     S
C1851  C1853   1.528   .     S
C1851  H1868   1.098   .     S
C1851  H1869   1.111   .     S
C1852  O1904   1.306   .     A
C1852  O1910   1.308   .     A
C1853  H1872   1.111   .     S
C1853  H1870   1.109   .     S
C1853  H1871   1.106   .     S
C1854  H1873   1.097   .     S
C1854  H1874   1.117   .     S
C1854  O1908   1.423   .     S
C1854  C1855   1.512   .     S
C1855  H1877   1.108   .     S
C1855  H1875   1.106   .     S
C1855  H436    1.111   1_556 S
C1856  C1857   1.534   .     S
C1856  H1880   1.116   .     S
C1856  O1909   1.421   .     S
C1856  H1879   1.104   .     S
C1857  H1883   1.106   .     S
C1857  H1882   1.112   .     S
C1857  H1881   1.107   .     S
C1858  O1915   1.296   .     A
C1858  O1912   1.301   .     A
C1858  C1860   1.412   .     S
C1859  C1861   1.411   .     S
C1859  O1913   1.309   .     A
C1859  O1914   1.289   .     A
C1861  C420    1.192   1_556 S
C1862  S1917   1.797   .     S
C1863  S1918   1.767   .     S
C1863  C1682   1.391   1_655 S
C1864  S1919   1.772   .     S
C1864  C1702   1.419   1_655 S
Cu1865 O1893   1.993   .     S
Cu1865 O1914   1.927   .     S
Cu1865 Cu1866  2.713   .     S
Cu1865 N1891   2.039   .     S
Cu1865 O1912   1.938   .     S
Cu1865 O1910   1.987   .     S
Cu1866 O1913   1.938   .     S
Cu1866 O1904   1.993   .     S
Cu1866 O1911   1.987   .     S
Cu1866 N1892   2.039   .     S
Cu1866 O1915   1.927   .     S
H1867  O1895   0.990   .     S
H1878  O1898   0.990   .     S
H1884  O1901   0.990   .     S
H1885  O1905   0.990   .     S
O1894  S1917   1.499   .     D
O1895  S1917   1.671   .     S
O1896  S1918   1.503   .     D
O1897  S1918   1.501   .     D
O1898  S1918   1.678   .     S
O1899  S1919   1.498   .     D
O1900  S1919   1.504   .     D
O1901  S1919   1.673   .     S
O1902  S1920   1.499   .     D
O1903  S1760   1.500   1_655 S
O1905  S1920   1.683   .     S
O1916  S1917   1.500   .     D
C1921  O1991   1.313   .     A
C1921  O1973   1.310   .     A
C1921  C1924   1.491   .     S
C1922  C1924   1.413   .     A
C1922  S2000   1.779   .     S
C1922  C2103   1.391   1_455 S
C1923  C1943   1.403   .     A
C1923  C1932   1.476   .     S
C1923  C1944   1.420   .     A
C1924  C1942   1.432   .     A
C1925  N1972   1.354   .     A
C1925  O1986   1.387   .     S
C1926  N1971   1.381   .     A
C1926  O1987   1.392   .     S
C1926  C1447   1.439   1_565 S
C1927  N1972   1.370   .     A
C1927  O1988   1.387   .     S
C1928  O1989   1.397   .     S
C1928  N1971   1.412   .     A
C1928  C1445   1.456   1_565 S
C1929  O1986   1.390   .     S
C1929  C1930   1.518   .     S
C1929  H1966   1.103   .     S
C1929  H1967   1.109   .     S
C1930  H1968   1.104   .     S
C1930  H1970   1.112   .     S
C1930  H1969   1.102   .     S
C1931  O1987   1.415   .     S
C1931  C1933   1.528   .     S
C1931  H1948   1.098   .     S
C1931  H1949   1.111   .     S
C1932  O1984   1.306   .     A
C1932  O1990   1.308   .     A
C1933  H1952   1.111   .     S
C1933  H1950   1.109   .     S
C1933  H1951   1.106   .     S
C1934  H1953   1.097   .     S
C1934  H1954   1.117   .     S
C1934  O1988   1.423   .     S
C1934  C1935   1.512   .     S
C1935  H1957   1.108   .     S
C1935  H1955   1.106   .     S
C1935  H516    1.111   1_556 S
C1936  C1937   1.534   .     S
C1936  H1960   1.116   .     S
C1936  O1989   1.421   .     S
C1936  H1959   1.104   .     S
C1937  H1963   1.106   .     S
C1937  H1962   1.112   .     S
C1937  H1961   1.107   .     S
C1938  O1995   1.296   .     A
C1938  O1992   1.301   .     A
C1938  C1940   1.412   .     S
C1939  C1941   1.411   .     S
C1939  O1993   1.309   .     A
C1939  O1994   1.289   .     A
C1941  C500    1.192   1_556 S
C1942  S1997   1.797   .     S
C1942  C2104   1.419   1_455 S
C1943  S1998   1.767   .     S
C1943  C2002   1.391   .     S
C1944  S1999   1.772   .     S
C1944  C2022   1.419   .     S
Cu1945 O1973   1.993   .     S
Cu1945 O1994   1.927   .     S
Cu1945 Cu1946  2.713   .     S
Cu1945 N1971   2.039   .     S
Cu1945 O1992   1.938   .     S
Cu1945 O1990   1.987   .     S
Cu1946 O1993   1.938   .     S
Cu1946 O1984   1.993   .     S
Cu1946 O1991   1.987   .     S
Cu1946 N1972   2.039   .     S
Cu1946 O1995   1.927   .     S
H1947  O1975   0.990   .     S
H1958  O1978   0.990   .     S
H1964  O1981   0.990   .     S
H1965  O1985   0.990   .     S
O1974  S1997   1.499   .     D
O1975  S1997   1.671   .     S
O1976  S1998   1.503   .     D
O1977  S1998   1.501   .     D
O1978  S1998   1.678   .     S
O1979  S1999   1.498   .     D
O1980  S1999   1.504   .     D
O1981  S1999   1.673   .     S
O1982  S2000   1.499   .     D
O1983  S2080   1.500   .     S
O1985  S2000   1.683   .     S
O1996  S1997   1.500   .     D
S2000  O2143   1.500   1_455 S
C2001  O2071   1.313   .     A
C2001  O2053   1.310   .     A
C2001  C2004   1.491   .     S
C2002  C2004   1.413   .     A
C2002  S2080   1.779   .     S
C2003  C2023   1.403   .     A
C2003  C2012   1.476   .     S
C2003  C2024   1.420   .     A
C2004  C2022   1.432   .     A
C2005  N2052   1.354   .     A
C2005  O2066   1.387   .     S
C2006  N2051   1.381   .     A
C2006  O2067   1.392   .     S
C2006  C1527   1.439   1_565 S
C2007  N2052   1.370   .     A
C2007  O2068   1.387   .     S
C2008  O2069   1.397   .     S
C2008  N2051   1.412   .     A
C2008  C1525   1.456   1_565 S
C2009  O2066   1.390   .     S
C2009  C2010   1.518   .     S
C2009  H2046   1.103   .     S
C2009  H2047   1.109   .     S
C2010  H2048   1.104   .     S
C2010  H2050   1.112   .     S
C2010  H2049   1.102   .     S
C2011  O2067   1.415   .     S
C2011  C2013   1.528   .     S
C2011  H2028   1.098   .     S
C2011  H2029   1.111   .     S
C2012  O2064   1.306   .     A
C2012  O2070   1.308   .     A
C2013  H2032   1.111   .     S
C2013  H2030   1.109   .     S
C2013  H2031   1.106   .     S
C2014  H2033   1.097   .     S
C2014  H2034   1.117   .     S
C2014  O2068   1.423   .     S
C2014  C2015   1.512   .     S
C2015  H2037   1.108   .     S
C2015  H2035   1.106   .     S
C2015  H596    1.111   1_556 S
C2016  C2017   1.534   .     S
C2016  H2040   1.116   .     S
C2016  O2069   1.421   .     S
C2016  H2039   1.104   .     S
C2017  H2043   1.106   .     S
C2017  H2042   1.112   .     S
C2017  H2041   1.107   .     S
C2018  O2075   1.296   .     A
C2018  O2072   1.301   .     A
C2018  C2020   1.412   .     S
C2019  C2021   1.411   .     S
C2019  O2073   1.309   .     A
C2019  O2074   1.289   .     A
C2021  C580    1.192   1_556 S
C2022  S2077   1.797   .     S
C2023  S2078   1.767   .     S
C2023  C2082   1.391   .     S
C2024  S2079   1.772   .     S
C2024  C2102   1.419   .     S
Cu2025 O2053   1.993   .     S
Cu2025 O2074   1.927   .     S
Cu2025 Cu2026  2.713   .     S
Cu2025 N2051   2.039   .     S
Cu2025 O2072   1.938   .     S
Cu2025 O2070   1.987   .     S
Cu2026 O2073   1.938   .     S
Cu2026 O2064   1.993   .     S
Cu2026 O2071   1.987   .     S
Cu2026 N2052   2.039   .     S
Cu2026 O2075   1.927   .     S
H2027  O2055   0.990   .     S
H2038  O2058   0.990   .     S
H2044  O2061   0.990   .     S
H2045  O2065   0.990   .     S
O2054  S2077   1.499   .     D
O2055  S2077   1.671   .     S
O2056  S2078   1.503   .     D
O2057  S2078   1.501   .     D
O2058  S2078   1.678   .     S
O2059  S2079   1.498   .     D
O2060  S2079   1.504   .     D
O2061  S2079   1.673   .     S
O2062  S2080   1.499   .     D
O2063  S2160   1.500   .     S
O2065  S2080   1.683   .     S
O2076  S2077   1.500   .     D
C2081  O2151   1.313   .     A
C2081  O2133   1.310   .     A
C2081  C2084   1.491   .     S
C2082  C2084   1.413   .     A
C2082  S2160   1.779   .     S
C2083  C2103   1.403   .     A
C2083  C2092   1.476   .     S
C2083  C2104   1.420   .     A
C2084  C2102   1.432   .     A
C2085  N2132   1.354   .     A
C2085  O2146   1.387   .     S
C2086  N2131   1.381   .     A
C2086  O2147   1.392   .     S
C2086  C1607   1.439   1_565 S
C2087  N2132   1.370   .     A
C2087  O2148   1.387   .     S
C2088  O2149   1.397   .     S
C2088  N2131   1.412   .     A
C2088  C1605   1.456   1_565 S
C2089  O2146   1.390   .     S
C2089  C2090   1.518   .     S
C2089  H2126   1.103   .     S
C2089  H2127   1.109   .     S
C2090  H2128   1.104   .     S
C2090  H2130   1.112   .     S
C2090  H2129   1.102   .     S
C2091  O2147   1.415   .     S
C2091  C2093   1.528   .     S
C2091  H2108   1.098   .     S
C2091  H2109   1.111   .     S
C2092  O2144   1.306   .     A
C2092  O2150   1.308   .     A
C2093  H2112   1.111   .     S
C2093  H2110   1.109   .     S
C2093  H2111   1.106   .     S
C2094  H2113   1.097   .     S
C2094  H2114   1.117   .     S
C2094  O2148   1.423   .     S
C2094  C2095   1.512   .     S
C2095  H2117   1.108   .     S
C2095  H2115   1.106   .     S
C2095  H676    1.111   1_556 S
C2096  C2097   1.534   .     S
C2096  H2120   1.116   .     S
C2096  O2149   1.421   .     S
C2096  H2119   1.104   .     S
C2097  H2123   1.106   .     S
C2097  H2122   1.112   .     S
C2097  H2121   1.107   .     S
C2098  O2155   1.296   .     A
C2098  O2152   1.301   .     A
C2098  C2100   1.412   .     S
C2099  C2101   1.411   .     S
C2099  O2153   1.309   .     A
C2099  O2154   1.289   .     A
C2101  C660    1.192   1_556 S
C2102  S2157   1.797   .     S
C2103  S2158   1.767   .     S
C2103  C1922   1.391   1_655 S
C2104  S2159   1.772   .     S
C2104  C1942   1.419   1_655 S
Cu2105 O2133   1.993   .     S
Cu2105 O2154   1.927   .     S
Cu2105 Cu2106  2.713   .     S
Cu2105 N2131   2.039   .     S
Cu2105 O2152   1.938   .     S
Cu2105 O2150   1.987   .     S
Cu2106 O2153   1.938   .     S
Cu2106 O2144   1.993   .     S
Cu2106 O2151   1.987   .     S
Cu2106 N2132   2.039   .     S
Cu2106 O2155   1.927   .     S
H2107  O2135   0.990   .     S
H2118  O2138   0.990   .     S
H2124  O2141   0.990   .     S
H2125  O2145   0.990   .     S
O2134  S2157   1.499   .     D
O2135  S2157   1.671   .     S
O2136  S2158   1.503   .     D
O2137  S2158   1.501   .     D
O2138  S2158   1.678   .     S
O2139  S2159   1.498   .     D
O2140  S2159   1.504   .     D
O2141  S2159   1.673   .     S
O2142  S2160   1.499   .     D
O2143  S2000   1.500   1_655 S
O2145  S2160   1.683   .     S
O2156  S2157   1.500   .     D
