data_str_m2_o2_o10_pcu_sym.127
_audit_creation_date              2020-01-03
_audit_creation_method            'Materials Studio'
_symmetry_space_group_name_H-M    'P1'
_symmetry_Int_Tables_number       1
_symmetry_cell_setting            triclinic
loop_
_symmetry_equiv_pos_as_xyz
  x,y,z
_cell_length_a                    26.1743
_cell_length_b                    30.2368
_cell_length_c                    27.8126
_cell_angle_alpha                 89.0379
_cell_angle_beta                  98.2184
_cell_angle_gamma                 90.7512
loop_
_atom_site_label
_atom_site_type_symbol
_atom_site_fract_x
_atom_site_fract_y
_atom_site_fract_z
_atom_site_U_iso_or_equiv
_atom_site_adp_type
_atom_site_occupancy
C1     C     0.16538   0.16484   0.25018   0.00000  Uiso   1.00
C2     C     0.16560   0.33510   0.24934   0.00000  Uiso   1.00
C3     C     0.20676   0.27057   0.05932   0.00000  Uiso   1.00
C4     C     0.13245   0.22299   0.44156   0.00000  Uiso   1.00
C5     C     0.20549   0.27075   0.10968   0.00000  Uiso   1.00
C6     C     0.13230   0.22432   0.39107   0.00000  Uiso   1.00
C7     C     0.12857   0.22800   0.10001   0.00000  Uiso   1.00
C8     C     0.20076   0.27662   0.39909   0.00000  Uiso   1.00
C9     C     0.12668   0.22991   0.04902   0.00000  Uiso   1.00
C10    C     0.19947   0.27843   0.44974   0.00000  Uiso   1.00
C11    C     0.16652   0.25049   0.02734   0.00000  Uiso   1.00
C12    C     0.16620   0.25052   0.47248   0.00000  Uiso   1.00
C13    C     0.06790   0.24997   0.23751   0.00000  Uiso   1.00
C14    C     0.26544   0.25001   0.26249   0.00000  Uiso   1.00
C15    C     0.01255   0.24999   0.23069   0.00000  Uiso   1.00
C16    C     0.32080   0.24993   0.26933   0.00000  Uiso   1.00
C17    C     0.14527   0.04398   0.28224   0.00000  Uiso   1.00
C18    C     0.14835   0.45455   0.20741   0.00000  Uiso   1.00
C19    C     0.13983   0.08982   0.28220   0.00000  Uiso   1.00
C20    C     0.14291   0.40852   0.20715   0.00000  Uiso   1.00
C21    C     0.16595   0.11626   0.25054   0.00000  Uiso   1.00
C22    C     0.16627   0.38359   0.24807   0.00000  Uiso   1.00
C23    C     0.19404   0.09559   0.21787   0.00000  Uiso   1.00
C24    C     0.19232   0.40560   0.28860   0.00000  Uiso   1.00
C25    C     0.19733   0.04976   0.21713   0.00000  Uiso   1.00
C26    C     0.19585   0.45146   0.28878   0.00000  Uiso   1.00
C27    C     0.17350   0.02402   0.24980   0.00000  Uiso   1.00
C28    C     0.17424   0.47590   0.24807   0.00000  Uiso   1.00
Cu29   Cu    0.16667   0.25000   0.29822   0.00000  Uiso   1.00
Cu30   Cu    0.16667   0.25001   0.20179   0.00000  Uiso   1.00
H31    H     0.32571   0.25009   0.19369   0.00000  Uiso   1.00
H32    H     0.00765   0.24980   0.30632   0.00000  Uiso   1.00
H33    H     0.12597   0.02336   0.30650   0.00000  Uiso   1.00
H34    H     0.13057   0.47419   0.17674   0.00000  Uiso   1.00
H35    H     0.21389   0.11500   0.19299   0.00000  Uiso   1.00
H36    H     0.21030   0.38726   0.32021   0.00000  Uiso   1.00
H37    H     0.21871   0.03436   0.19142   0.00000  Uiso   1.00
H38    H     0.21530   0.46796   0.32067   0.00000  Uiso   1.00
H39    H     0.23967   0.28605   0.04634   0.00000  Uiso   1.00
H40    H     0.10586   0.20020   0.45540   0.00000  Uiso   1.00
H41    H     0.23610   0.28733   0.13311   0.00000  Uiso   1.00
H42    H     0.10444   0.20467   0.36808   0.00000  Uiso   1.00
H43    H     0.09350   0.21538   0.02727   0.00000  Uiso   1.00
H44    H     0.22380   0.30248   0.47039   0.00000  Uiso   1.00
N45    N     0.16667   0.25001   0.12935   0.00000  Uiso   1.00
N46    N     0.16667   0.24999   0.37066   0.00000  Uiso   1.00
O47    O     0.16667   0.18573   0.29072   0.00000  Uiso   1.00
O48    O     0.16666   0.31428   0.20929   0.00000  Uiso   1.00
O49    O     0.16667   0.18573   0.20928   0.00000  Uiso   1.00
O50    O     0.16666   0.31427   0.29072   0.00000  Uiso   1.00
O51    O     0.09161   0.25000   0.28132   0.00000  Uiso   1.00
O52    O     0.24172   0.25001   0.21868   0.00000  Uiso   1.00
O53    O     0.09161   0.25000   0.19989   0.00000  Uiso   1.00
O54    O     0.24172   0.25000   0.30012   0.00000  Uiso   1.00
S55    S     0.09811   0.11121   0.32063   0.00000  Uiso   1.00
O56    O     0.07032   0.15124   0.29795   0.00000  Uiso   1.00
O57    O     0.05880   0.07657   0.32998   0.00000  Uiso   1.00
O58    O     0.13392   0.12438   0.37364   0.00000  Uiso   1.00
H59    H     0.10959   0.12347   0.39785   0.00000  Uiso   1.00
S60    S     0.10365   0.38441   0.15679   0.00000  Uiso   1.00
O61    O     0.06866   0.34975   0.17434   0.00000  Uiso   1.00
O62    O     0.07126   0.41907   0.12797   0.00000  Uiso   1.00
O63    O     0.14171   0.36105   0.12070   0.00000  Uiso   1.00
H64    H     0.11783   0.34423   0.09661   0.00000  Uiso   1.00
O65    O     0.09018   0.20604   0.12053   0.00000  Uiso   1.00
C66    C     0.09232   0.16029   0.11179   0.00000  Uiso   1.00
H67    H     0.06856   0.14248   0.13603   0.00000  Uiso   1.00
H68    H     0.13233   0.14732   0.12013   0.00000  Uiso   1.00
H69    H     0.07573   0.15271   0.07375   0.00000  Uiso   1.00
O70    O     0.23297   0.30459   0.37694   0.00000  Uiso   1.00
C71    C     0.28503   0.29723   0.39653   0.00000  Uiso   1.00
H72    H     0.30996   0.31206   0.37132   0.00000  Uiso   1.00
H73    H     0.29424   0.26133   0.40019   0.00000  Uiso   1.00
H74    H     0.29502   0.31388   0.43197   0.00000  Uiso   1.00
C75    C     0.49871   0.16484   0.25018   0.00000  Uiso   1.00
C76    C     0.49893   0.33510   0.24934   0.00000  Uiso   1.00
C77    C     0.54009   0.27057   0.05932   0.00000  Uiso   1.00
C78    C     0.46578   0.22299   0.44156   0.00000  Uiso   1.00
C79    C     0.53882   0.27075   0.10968   0.00000  Uiso   1.00
C80    C     0.46564   0.22432   0.39107   0.00000  Uiso   1.00
C81    C     0.46190   0.22800   0.10001   0.00000  Uiso   1.00
C82    C     0.53410   0.27662   0.39909   0.00000  Uiso   1.00
C83    C     0.46001   0.22991   0.04902   0.00000  Uiso   1.00
C84    C     0.53280   0.27843   0.44974   0.00000  Uiso   1.00
C85    C     0.49985   0.25049   0.02734   0.00000  Uiso   1.00
C86    C     0.49954   0.25052   0.47248   0.00000  Uiso   1.00
C87    C     0.40123   0.24997   0.23751   0.00000  Uiso   1.00
C88    C     0.59877   0.25001   0.26249   0.00000  Uiso   1.00
C89    C     0.34588   0.24999   0.23069   0.00000  Uiso   1.00
C90    C     0.65413   0.24993   0.26933   0.00000  Uiso   1.00
C91    C     0.47860   0.04398   0.28224   0.00000  Uiso   1.00
C92    C     0.48169   0.45455   0.20741   0.00000  Uiso   1.00
C93    C     0.47316   0.08982   0.28220   0.00000  Uiso   1.00
C94    C     0.47625   0.40852   0.20715   0.00000  Uiso   1.00
C95    C     0.49929   0.11626   0.25054   0.00000  Uiso   1.00
C96    C     0.49960   0.38359   0.24807   0.00000  Uiso   1.00
C97    C     0.52738   0.09559   0.21787   0.00000  Uiso   1.00
C98    C     0.52566   0.40560   0.28860   0.00000  Uiso   1.00
C99    C     0.53066   0.04976   0.21713   0.00000  Uiso   1.00
C100   C     0.52918   0.45146   0.28878   0.00000  Uiso   1.00
C101   C     0.50683   0.02402   0.24980   0.00000  Uiso   1.00
C102   C     0.50758   0.47590   0.24807   0.00000  Uiso   1.00
Cu103  Cu    0.50000   0.25000   0.29822   0.00000  Uiso   1.00
Cu104  Cu    0.50000   0.25001   0.20179   0.00000  Uiso   1.00
H105   H     0.65904   0.25009   0.19369   0.00000  Uiso   1.00
H106   H     0.34098   0.24980   0.30632   0.00000  Uiso   1.00
H107   H     0.45930   0.02336   0.30650   0.00000  Uiso   1.00
H108   H     0.46391   0.47419   0.17674   0.00000  Uiso   1.00
H109   H     0.54723   0.11500   0.19299   0.00000  Uiso   1.00
H110   H     0.54364   0.38726   0.32021   0.00000  Uiso   1.00
H111   H     0.55204   0.03436   0.19142   0.00000  Uiso   1.00
H112   H     0.54863   0.46796   0.32067   0.00000  Uiso   1.00
H113   H     0.57300   0.28605   0.04634   0.00000  Uiso   1.00
H114   H     0.43919   0.20020   0.45540   0.00000  Uiso   1.00
H115   H     0.56943   0.28733   0.13311   0.00000  Uiso   1.00
H116   H     0.43777   0.20467   0.36808   0.00000  Uiso   1.00
H117   H     0.42683   0.21538   0.02727   0.00000  Uiso   1.00
H118   H     0.55714   0.30248   0.47039   0.00000  Uiso   1.00
N119   N     0.50000   0.25001   0.12935   0.00000  Uiso   1.00
N120   N     0.50000   0.24999   0.37066   0.00000  Uiso   1.00
O121   O     0.50000   0.18573   0.29072   0.00000  Uiso   1.00
O122   O     0.50000   0.31428   0.20929   0.00000  Uiso   1.00
O123   O     0.50000   0.18573   0.20928   0.00000  Uiso   1.00
O124   O     0.50000   0.31427   0.29072   0.00000  Uiso   1.00
O125   O     0.42495   0.25000   0.28132   0.00000  Uiso   1.00
O126   O     0.57505   0.25001   0.21868   0.00000  Uiso   1.00
O127   O     0.42495   0.25000   0.19989   0.00000  Uiso   1.00
O128   O     0.57505   0.25000   0.30012   0.00000  Uiso   1.00
S129   S     0.43144   0.11121   0.32063   0.00000  Uiso   1.00
O130   O     0.40366   0.15124   0.29795   0.00000  Uiso   1.00
O131   O     0.39214   0.07657   0.32998   0.00000  Uiso   1.00
O132   O     0.46725   0.12438   0.37364   0.00000  Uiso   1.00
H133   H     0.44292   0.12347   0.39785   0.00000  Uiso   1.00
S134   S     0.43698   0.38441   0.15679   0.00000  Uiso   1.00
O135   O     0.40199   0.34975   0.17434   0.00000  Uiso   1.00
O136   O     0.40459   0.41907   0.12797   0.00000  Uiso   1.00
O137   O     0.47504   0.36105   0.12070   0.00000  Uiso   1.00
H138   H     0.45116   0.34423   0.09661   0.00000  Uiso   1.00
O139   O     0.42351   0.20604   0.12053   0.00000  Uiso   1.00
C140   C     0.42566   0.16029   0.11179   0.00000  Uiso   1.00
H141   H     0.40189   0.14248   0.13603   0.00000  Uiso   1.00
H142   H     0.46567   0.14732   0.12013   0.00000  Uiso   1.00
H143   H     0.40906   0.15271   0.07375   0.00000  Uiso   1.00
O144   O     0.56630   0.30459   0.37694   0.00000  Uiso   1.00
C145   C     0.61836   0.29723   0.39653   0.00000  Uiso   1.00
H146   H     0.64329   0.31206   0.37132   0.00000  Uiso   1.00
H147   H     0.62757   0.26133   0.40019   0.00000  Uiso   1.00
H148   H     0.62835   0.31388   0.43197   0.00000  Uiso   1.00
C149   C     0.83204   0.16484   0.25018   0.00000  Uiso   1.00
C150   C     0.83227   0.33510   0.24934   0.00000  Uiso   1.00
C151   C     0.87343   0.27057   0.05932   0.00000  Uiso   1.00
C152   C     0.79911   0.22299   0.44156   0.00000  Uiso   1.00
C153   C     0.87215   0.27075   0.10968   0.00000  Uiso   1.00
C154   C     0.79897   0.22432   0.39107   0.00000  Uiso   1.00
C155   C     0.79523   0.22800   0.10001   0.00000  Uiso   1.00
C156   C     0.86743   0.27662   0.39909   0.00000  Uiso   1.00
C157   C     0.79334   0.22991   0.04902   0.00000  Uiso   1.00
C158   C     0.86614   0.27843   0.44974   0.00000  Uiso   1.00
C159   C     0.83318   0.25049   0.02734   0.00000  Uiso   1.00
C160   C     0.83287   0.25052   0.47248   0.00000  Uiso   1.00
C161   C     0.73456   0.24997   0.23751   0.00000  Uiso   1.00
C162   C     0.93211   0.25001   0.26249   0.00000  Uiso   1.00
C163   C     0.67921   0.24999   0.23069   0.00000  Uiso   1.00
C164   C     0.98747   0.24993   0.26933   0.00000  Uiso   1.00
C165   C     0.81194   0.04398   0.28224   0.00000  Uiso   1.00
C166   C     0.81502   0.45455   0.20741   0.00000  Uiso   1.00
C167   C     0.80650   0.08982   0.28220   0.00000  Uiso   1.00
C168   C     0.80958   0.40852   0.20715   0.00000  Uiso   1.00
C169   C     0.83262   0.11626   0.25054   0.00000  Uiso   1.00
C170   C     0.83293   0.38359   0.24807   0.00000  Uiso   1.00
C171   C     0.86071   0.09559   0.21787   0.00000  Uiso   1.00
C172   C     0.85899   0.40560   0.28860   0.00000  Uiso   1.00
C173   C     0.86400   0.04976   0.21713   0.00000  Uiso   1.00
C174   C     0.86251   0.45146   0.28878   0.00000  Uiso   1.00
C175   C     0.84016   0.02402   0.24980   0.00000  Uiso   1.00
C176   C     0.84091   0.47590   0.24807   0.00000  Uiso   1.00
Cu177  Cu    0.83333   0.25000   0.29822   0.00000  Uiso   1.00
Cu178  Cu    0.83333   0.25001   0.20179   0.00000  Uiso   1.00
H179   H     0.99237   0.25009   0.19369   0.00000  Uiso   1.00
H180   H     0.67431   0.24980   0.30632   0.00000  Uiso   1.00
H181   H     0.79263   0.02336   0.30650   0.00000  Uiso   1.00
H182   H     0.79724   0.47419   0.17674   0.00000  Uiso   1.00
H183   H     0.88056   0.11500   0.19299   0.00000  Uiso   1.00
H184   H     0.87697   0.38726   0.32021   0.00000  Uiso   1.00
H185   H     0.88537   0.03436   0.19142   0.00000  Uiso   1.00
H186   H     0.88196   0.46796   0.32067   0.00000  Uiso   1.00
H187   H     0.90633   0.28605   0.04634   0.00000  Uiso   1.00
H188   H     0.77252   0.20020   0.45540   0.00000  Uiso   1.00
H189   H     0.90277   0.28733   0.13311   0.00000  Uiso   1.00
H190   H     0.77111   0.20467   0.36808   0.00000  Uiso   1.00
H191   H     0.76017   0.21538   0.02727   0.00000  Uiso   1.00
H192   H     0.89047   0.30248   0.47039   0.00000  Uiso   1.00
N193   N     0.83333   0.25001   0.12935   0.00000  Uiso   1.00
N194   N     0.83333   0.24999   0.37066   0.00000  Uiso   1.00
O195   O     0.83334   0.18573   0.29072   0.00000  Uiso   1.00
O196   O     0.83333   0.31428   0.20929   0.00000  Uiso   1.00
O197   O     0.83334   0.18573   0.20928   0.00000  Uiso   1.00
O198   O     0.83333   0.31427   0.29072   0.00000  Uiso   1.00
O199   O     0.75828   0.25000   0.28132   0.00000  Uiso   1.00
O200   O     0.90839   0.25001   0.21868   0.00000  Uiso   1.00
O201   O     0.75828   0.25000   0.19989   0.00000  Uiso   1.00
O202   O     0.90839   0.25000   0.30012   0.00000  Uiso   1.00
S203   S     0.76477   0.11121   0.32063   0.00000  Uiso   1.00
O204   O     0.73699   0.15124   0.29795   0.00000  Uiso   1.00
O205   O     0.72547   0.07657   0.32998   0.00000  Uiso   1.00
O206   O     0.80059   0.12438   0.37364   0.00000  Uiso   1.00
H207   H     0.77626   0.12347   0.39785   0.00000  Uiso   1.00
S208   S     0.77031   0.38441   0.15679   0.00000  Uiso   1.00
O209   O     0.73533   0.34975   0.17434   0.00000  Uiso   1.00
O210   O     0.73793   0.41907   0.12797   0.00000  Uiso   1.00
O211   O     0.80838   0.36105   0.12070   0.00000  Uiso   1.00
H212   H     0.78450   0.34423   0.09661   0.00000  Uiso   1.00
O213   O     0.75684   0.20604   0.12053   0.00000  Uiso   1.00
C214   C     0.75899   0.16029   0.11179   0.00000  Uiso   1.00
H215   H     0.73523   0.14248   0.13603   0.00000  Uiso   1.00
H216   H     0.79900   0.14732   0.12013   0.00000  Uiso   1.00
H217   H     0.74239   0.15271   0.07375   0.00000  Uiso   1.00
O218   O     0.89964   0.30459   0.37694   0.00000  Uiso   1.00
C219   C     0.95169   0.29723   0.39653   0.00000  Uiso   1.00
H220   H     0.97662   0.31206   0.37132   0.00000  Uiso   1.00
H221   H     0.96091   0.26133   0.40019   0.00000  Uiso   1.00
H222   H     0.96169   0.31388   0.43197   0.00000  Uiso   1.00
C223   C     0.16538   0.66484   0.25018   0.00000  Uiso   1.00
C224   C     0.16560   0.83510   0.24934   0.00000  Uiso   1.00
C225   C     0.20676   0.77057   0.05932   0.00000  Uiso   1.00
C226   C     0.13245   0.72299   0.44156   0.00000  Uiso   1.00
C227   C     0.20549   0.77075   0.10968   0.00000  Uiso   1.00
C228   C     0.13230   0.72432   0.39107   0.00000  Uiso   1.00
C229   C     0.12857   0.72800   0.10001   0.00000  Uiso   1.00
C230   C     0.20076   0.77662   0.39909   0.00000  Uiso   1.00
C231   C     0.12668   0.72991   0.04902   0.00000  Uiso   1.00
C232   C     0.19947   0.77843   0.44974   0.00000  Uiso   1.00
C233   C     0.16652   0.75049   0.02734   0.00000  Uiso   1.00
C234   C     0.16620   0.75052   0.47248   0.00000  Uiso   1.00
C235   C     0.06790   0.74997   0.23751   0.00000  Uiso   1.00
C236   C     0.26544   0.75001   0.26249   0.00000  Uiso   1.00
C237   C     0.01255   0.74999   0.23069   0.00000  Uiso   1.00
C238   C     0.32080   0.74993   0.26933   0.00000  Uiso   1.00
C239   C     0.14527   0.54398   0.28224   0.00000  Uiso   1.00
C240   C     0.14835   0.95455   0.20741   0.00000  Uiso   1.00
C241   C     0.13983   0.58982   0.28220   0.00000  Uiso   1.00
C242   C     0.14291   0.90852   0.20715   0.00000  Uiso   1.00
C243   C     0.16595   0.61626   0.25054   0.00000  Uiso   1.00
C244   C     0.16627   0.88359   0.24807   0.00000  Uiso   1.00
C245   C     0.19404   0.59559   0.21787   0.00000  Uiso   1.00
C246   C     0.19232   0.90560   0.28860   0.00000  Uiso   1.00
C247   C     0.19733   0.54976   0.21713   0.00000  Uiso   1.00
C248   C     0.19585   0.95146   0.28878   0.00000  Uiso   1.00
C249   C     0.17350   0.52402   0.24980   0.00000  Uiso   1.00
C250   C     0.17424   0.97590   0.24807   0.00000  Uiso   1.00
Cu251  Cu    0.16667   0.75000   0.29822   0.00000  Uiso   1.00
Cu252  Cu    0.16667   0.75001   0.20179   0.00000  Uiso   1.00
H253   H     0.32571   0.75009   0.19369   0.00000  Uiso   1.00
H254   H     0.00765   0.74980   0.30632   0.00000  Uiso   1.00
H255   H     0.12597   0.52336   0.30650   0.00000  Uiso   1.00
H256   H     0.13057   0.97419   0.17674   0.00000  Uiso   1.00
H257   H     0.21389   0.61500   0.19299   0.00000  Uiso   1.00
H258   H     0.21030   0.88726   0.32021   0.00000  Uiso   1.00
H259   H     0.21871   0.53436   0.19142   0.00000  Uiso   1.00
H260   H     0.21530   0.96796   0.32067   0.00000  Uiso   1.00
H261   H     0.23967   0.78605   0.04634   0.00000  Uiso   1.00
H262   H     0.10586   0.70020   0.45540   0.00000  Uiso   1.00
H263   H     0.23610   0.78733   0.13311   0.00000  Uiso   1.00
H264   H     0.10444   0.70467   0.36808   0.00000  Uiso   1.00
H265   H     0.09350   0.71538   0.02727   0.00000  Uiso   1.00
H266   H     0.22380   0.80248   0.47039   0.00000  Uiso   1.00
N267   N     0.16667   0.75001   0.12935   0.00000  Uiso   1.00
N268   N     0.16667   0.74999   0.37066   0.00000  Uiso   1.00
O269   O     0.16667   0.68573   0.29072   0.00000  Uiso   1.00
O270   O     0.16666   0.81428   0.20929   0.00000  Uiso   1.00
O271   O     0.16667   0.68573   0.20928   0.00000  Uiso   1.00
O272   O     0.16666   0.81427   0.29072   0.00000  Uiso   1.00
O273   O     0.09161   0.75000   0.28132   0.00000  Uiso   1.00
O274   O     0.24172   0.75001   0.21868   0.00000  Uiso   1.00
O275   O     0.09161   0.75000   0.19989   0.00000  Uiso   1.00
O276   O     0.24172   0.75000   0.30012   0.00000  Uiso   1.00
S277   S     0.09811   0.61121   0.32063   0.00000  Uiso   1.00
O278   O     0.07032   0.65124   0.29795   0.00000  Uiso   1.00
O279   O     0.05880   0.57657   0.32998   0.00000  Uiso   1.00
O280   O     0.13392   0.62438   0.37364   0.00000  Uiso   1.00
H281   H     0.10959   0.62347   0.39785   0.00000  Uiso   1.00
S282   S     0.10365   0.88441   0.15679   0.00000  Uiso   1.00
O283   O     0.06866   0.84975   0.17434   0.00000  Uiso   1.00
O284   O     0.07126   0.91907   0.12797   0.00000  Uiso   1.00
O285   O     0.14171   0.86105   0.12070   0.00000  Uiso   1.00
H286   H     0.11783   0.84423   0.09661   0.00000  Uiso   1.00
O287   O     0.09018   0.70604   0.12053   0.00000  Uiso   1.00
C288   C     0.09232   0.66029   0.11179   0.00000  Uiso   1.00
H289   H     0.06856   0.64248   0.13603   0.00000  Uiso   1.00
H290   H     0.13233   0.64732   0.12013   0.00000  Uiso   1.00
H291   H     0.07573   0.65271   0.07375   0.00000  Uiso   1.00
O292   O     0.23297   0.80459   0.37694   0.00000  Uiso   1.00
C293   C     0.28503   0.79723   0.39653   0.00000  Uiso   1.00
H294   H     0.30996   0.81206   0.37132   0.00000  Uiso   1.00
H295   H     0.29424   0.76133   0.40019   0.00000  Uiso   1.00
H296   H     0.29502   0.81388   0.43197   0.00000  Uiso   1.00
C297   C     0.49871   0.66484   0.25018   0.00000  Uiso   1.00
C298   C     0.49893   0.83510   0.24934   0.00000  Uiso   1.00
C299   C     0.54009   0.77057   0.05932   0.00000  Uiso   1.00
C300   C     0.46578   0.72299   0.44156   0.00000  Uiso   1.00
C301   C     0.53882   0.77075   0.10968   0.00000  Uiso   1.00
C302   C     0.46564   0.72432   0.39107   0.00000  Uiso   1.00
C303   C     0.46190   0.72800   0.10001   0.00000  Uiso   1.00
C304   C     0.53410   0.77662   0.39909   0.00000  Uiso   1.00
C305   C     0.46001   0.72991   0.04902   0.00000  Uiso   1.00
C306   C     0.53280   0.77843   0.44974   0.00000  Uiso   1.00
C307   C     0.49985   0.75049   0.02734   0.00000  Uiso   1.00
C308   C     0.49954   0.75052   0.47248   0.00000  Uiso   1.00
C309   C     0.40123   0.74997   0.23751   0.00000  Uiso   1.00
C310   C     0.59877   0.75001   0.26249   0.00000  Uiso   1.00
C311   C     0.34588   0.74999   0.23069   0.00000  Uiso   1.00
C312   C     0.65413   0.74993   0.26933   0.00000  Uiso   1.00
C313   C     0.47860   0.54398   0.28224   0.00000  Uiso   1.00
C314   C     0.48169   0.95455   0.20741   0.00000  Uiso   1.00
C315   C     0.47316   0.58982   0.28220   0.00000  Uiso   1.00
C316   C     0.47625   0.90852   0.20715   0.00000  Uiso   1.00
C317   C     0.49929   0.61626   0.25054   0.00000  Uiso   1.00
C318   C     0.49960   0.88359   0.24807   0.00000  Uiso   1.00
C319   C     0.52738   0.59559   0.21787   0.00000  Uiso   1.00
C320   C     0.52566   0.90560   0.28860   0.00000  Uiso   1.00
C321   C     0.53066   0.54976   0.21713   0.00000  Uiso   1.00
C322   C     0.52918   0.95146   0.28878   0.00000  Uiso   1.00
C323   C     0.50683   0.52402   0.24980   0.00000  Uiso   1.00
C324   C     0.50758   0.97590   0.24807   0.00000  Uiso   1.00
Cu325  Cu    0.50000   0.75000   0.29822   0.00000  Uiso   1.00
Cu326  Cu    0.50000   0.75001   0.20179   0.00000  Uiso   1.00
H327   H     0.65904   0.75009   0.19369   0.00000  Uiso   1.00
H328   H     0.34098   0.74980   0.30632   0.00000  Uiso   1.00
H329   H     0.45930   0.52336   0.30650   0.00000  Uiso   1.00
H330   H     0.46391   0.97419   0.17674   0.00000  Uiso   1.00
H331   H     0.54723   0.61500   0.19299   0.00000  Uiso   1.00
H332   H     0.54364   0.88726   0.32021   0.00000  Uiso   1.00
H333   H     0.55204   0.53436   0.19142   0.00000  Uiso   1.00
H334   H     0.54863   0.96796   0.32067   0.00000  Uiso   1.00
H335   H     0.57300   0.78605   0.04634   0.00000  Uiso   1.00
H336   H     0.43919   0.70020   0.45540   0.00000  Uiso   1.00
H337   H     0.56943   0.78733   0.13311   0.00000  Uiso   1.00
H338   H     0.43777   0.70467   0.36808   0.00000  Uiso   1.00
H339   H     0.42683   0.71538   0.02727   0.00000  Uiso   1.00
H340   H     0.55714   0.80248   0.47039   0.00000  Uiso   1.00
N341   N     0.50000   0.75001   0.12935   0.00000  Uiso   1.00
N342   N     0.50000   0.74999   0.37066   0.00000  Uiso   1.00
O343   O     0.50000   0.68573   0.29072   0.00000  Uiso   1.00
O344   O     0.50000   0.81428   0.20929   0.00000  Uiso   1.00
O345   O     0.50000   0.68573   0.20928   0.00000  Uiso   1.00
O346   O     0.50000   0.81427   0.29072   0.00000  Uiso   1.00
O347   O     0.42495   0.75000   0.28132   0.00000  Uiso   1.00
O348   O     0.57505   0.75001   0.21868   0.00000  Uiso   1.00
O349   O     0.42495   0.75000   0.19989   0.00000  Uiso   1.00
O350   O     0.57505   0.75000   0.30012   0.00000  Uiso   1.00
S351   S     0.43144   0.61121   0.32063   0.00000  Uiso   1.00
O352   O     0.40366   0.65124   0.29795   0.00000  Uiso   1.00
O353   O     0.39214   0.57657   0.32998   0.00000  Uiso   1.00
O354   O     0.46725   0.62438   0.37364   0.00000  Uiso   1.00
H355   H     0.44292   0.62347   0.39785   0.00000  Uiso   1.00
S356   S     0.43698   0.88441   0.15679   0.00000  Uiso   1.00
O357   O     0.40199   0.84975   0.17434   0.00000  Uiso   1.00
O358   O     0.40459   0.91907   0.12797   0.00000  Uiso   1.00
O359   O     0.47504   0.86105   0.12070   0.00000  Uiso   1.00
H360   H     0.45116   0.84423   0.09661   0.00000  Uiso   1.00
O361   O     0.42351   0.70604   0.12053   0.00000  Uiso   1.00
C362   C     0.42566   0.66029   0.11179   0.00000  Uiso   1.00
H363   H     0.40189   0.64248   0.13603   0.00000  Uiso   1.00
H364   H     0.46567   0.64732   0.12013   0.00000  Uiso   1.00
H365   H     0.40906   0.65271   0.07375   0.00000  Uiso   1.00
O366   O     0.56630   0.80459   0.37694   0.00000  Uiso   1.00
C367   C     0.61836   0.79723   0.39653   0.00000  Uiso   1.00
H368   H     0.64329   0.81206   0.37132   0.00000  Uiso   1.00
H369   H     0.62757   0.76133   0.40019   0.00000  Uiso   1.00
H370   H     0.62835   0.81388   0.43197   0.00000  Uiso   1.00
C371   C     0.83204   0.66484   0.25018   0.00000  Uiso   1.00
C372   C     0.83227   0.83510   0.24934   0.00000  Uiso   1.00
C373   C     0.87343   0.77057   0.05932   0.00000  Uiso   1.00
C374   C     0.79911   0.72299   0.44156   0.00000  Uiso   1.00
C375   C     0.87215   0.77075   0.10968   0.00000  Uiso   1.00
C376   C     0.79897   0.72432   0.39107   0.00000  Uiso   1.00
C377   C     0.79523   0.72800   0.10001   0.00000  Uiso   1.00
C378   C     0.86743   0.77662   0.39909   0.00000  Uiso   1.00
C379   C     0.79334   0.72991   0.04902   0.00000  Uiso   1.00
C380   C     0.86614   0.77843   0.44974   0.00000  Uiso   1.00
C381   C     0.83318   0.75049   0.02734   0.00000  Uiso   1.00
C382   C     0.83287   0.75052   0.47248   0.00000  Uiso   1.00
C383   C     0.73456   0.74997   0.23751   0.00000  Uiso   1.00
C384   C     0.93211   0.75001   0.26249   0.00000  Uiso   1.00
C385   C     0.67921   0.74999   0.23069   0.00000  Uiso   1.00
C386   C     0.98747   0.74993   0.26933   0.00000  Uiso   1.00
C387   C     0.81194   0.54398   0.28224   0.00000  Uiso   1.00
C388   C     0.81502   0.95455   0.20741   0.00000  Uiso   1.00
C389   C     0.80650   0.58982   0.28220   0.00000  Uiso   1.00
C390   C     0.80958   0.90852   0.20715   0.00000  Uiso   1.00
C391   C     0.83262   0.61626   0.25054   0.00000  Uiso   1.00
C392   C     0.83293   0.88359   0.24807   0.00000  Uiso   1.00
C393   C     0.86071   0.59559   0.21787   0.00000  Uiso   1.00
C394   C     0.85899   0.90560   0.28860   0.00000  Uiso   1.00
C395   C     0.86400   0.54976   0.21713   0.00000  Uiso   1.00
C396   C     0.86251   0.95146   0.28878   0.00000  Uiso   1.00
C397   C     0.84016   0.52402   0.24980   0.00000  Uiso   1.00
C398   C     0.84091   0.97590   0.24807   0.00000  Uiso   1.00
Cu399  Cu    0.83333   0.75000   0.29822   0.00000  Uiso   1.00
Cu400  Cu    0.83333   0.75001   0.20179   0.00000  Uiso   1.00
H401   H     0.99237   0.75009   0.19369   0.00000  Uiso   1.00
H402   H     0.67431   0.74980   0.30632   0.00000  Uiso   1.00
H403   H     0.79263   0.52336   0.30650   0.00000  Uiso   1.00
H404   H     0.79724   0.97419   0.17674   0.00000  Uiso   1.00
H405   H     0.88056   0.61500   0.19299   0.00000  Uiso   1.00
H406   H     0.87697   0.88726   0.32021   0.00000  Uiso   1.00
H407   H     0.88537   0.53436   0.19142   0.00000  Uiso   1.00
H408   H     0.88196   0.96796   0.32067   0.00000  Uiso   1.00
H409   H     0.90633   0.78605   0.04634   0.00000  Uiso   1.00
H410   H     0.77252   0.70020   0.45540   0.00000  Uiso   1.00
H411   H     0.90277   0.78733   0.13311   0.00000  Uiso   1.00
H412   H     0.77111   0.70467   0.36808   0.00000  Uiso   1.00
H413   H     0.76017   0.71538   0.02727   0.00000  Uiso   1.00
H414   H     0.89047   0.80248   0.47039   0.00000  Uiso   1.00
N415   N     0.83333   0.75001   0.12935   0.00000  Uiso   1.00
N416   N     0.83333   0.74999   0.37066   0.00000  Uiso   1.00
O417   O     0.83334   0.68573   0.29072   0.00000  Uiso   1.00
O418   O     0.83333   0.81428   0.20929   0.00000  Uiso   1.00
O419   O     0.83334   0.68573   0.20928   0.00000  Uiso   1.00
O420   O     0.83333   0.81427   0.29072   0.00000  Uiso   1.00
O421   O     0.75828   0.75000   0.28132   0.00000  Uiso   1.00
O422   O     0.90839   0.75001   0.21868   0.00000  Uiso   1.00
O423   O     0.75828   0.75000   0.19989   0.00000  Uiso   1.00
O424   O     0.90839   0.75000   0.30012   0.00000  Uiso   1.00
S425   S     0.76477   0.61121   0.32063   0.00000  Uiso   1.00
O426   O     0.73699   0.65124   0.29795   0.00000  Uiso   1.00
O427   O     0.72547   0.57657   0.32998   0.00000  Uiso   1.00
O428   O     0.80059   0.62438   0.37364   0.00000  Uiso   1.00
H429   H     0.77626   0.62347   0.39785   0.00000  Uiso   1.00
S430   S     0.77031   0.88441   0.15679   0.00000  Uiso   1.00
O431   O     0.73533   0.84975   0.17434   0.00000  Uiso   1.00
O432   O     0.73793   0.91907   0.12797   0.00000  Uiso   1.00
O433   O     0.80838   0.86105   0.12070   0.00000  Uiso   1.00
H434   H     0.78450   0.84423   0.09661   0.00000  Uiso   1.00
O435   O     0.75684   0.70604   0.12053   0.00000  Uiso   1.00
C436   C     0.75899   0.66029   0.11179   0.00000  Uiso   1.00
H437   H     0.73523   0.64248   0.13603   0.00000  Uiso   1.00
H438   H     0.79900   0.64732   0.12013   0.00000  Uiso   1.00
H439   H     0.74239   0.65271   0.07375   0.00000  Uiso   1.00
O440   O     0.89964   0.80459   0.37694   0.00000  Uiso   1.00
C441   C     0.95169   0.79723   0.39653   0.00000  Uiso   1.00
H442   H     0.97662   0.81206   0.37132   0.00000  Uiso   1.00
H443   H     0.96091   0.76133   0.40019   0.00000  Uiso   1.00
H444   H     0.96169   0.81388   0.43197   0.00000  Uiso   1.00
C445   C     0.16538   0.16484   0.75018   0.00000  Uiso   1.00
C446   C     0.16560   0.33510   0.74934   0.00000  Uiso   1.00
C447   C     0.20676   0.27057   0.55932   0.00000  Uiso   1.00
C448   C     0.13245   0.22299   0.94156   0.00000  Uiso   1.00
C449   C     0.20549   0.27075   0.60968   0.00000  Uiso   1.00
C450   C     0.13230   0.22432   0.89107   0.00000  Uiso   1.00
C451   C     0.12857   0.22800   0.60001   0.00000  Uiso   1.00
C452   C     0.20076   0.27662   0.89909   0.00000  Uiso   1.00
C453   C     0.12668   0.22991   0.54902   0.00000  Uiso   1.00
C454   C     0.19947   0.27843   0.94974   0.00000  Uiso   1.00
C455   C     0.16652   0.25049   0.52734   0.00000  Uiso   1.00
C456   C     0.16620   0.25052   0.97248   0.00000  Uiso   1.00
C457   C     0.06790   0.24997   0.73751   0.00000  Uiso   1.00
C458   C     0.26544   0.25001   0.76249   0.00000  Uiso   1.00
C459   C     0.01255   0.24999   0.73069   0.00000  Uiso   1.00
C460   C     0.32080   0.24993   0.76933   0.00000  Uiso   1.00
C461   C     0.14527   0.04398   0.78224   0.00000  Uiso   1.00
C462   C     0.14835   0.45455   0.70741   0.00000  Uiso   1.00
C463   C     0.13983   0.08982   0.78220   0.00000  Uiso   1.00
C464   C     0.14291   0.40852   0.70715   0.00000  Uiso   1.00
C465   C     0.16595   0.11626   0.75054   0.00000  Uiso   1.00
C466   C     0.16627   0.38359   0.74807   0.00000  Uiso   1.00
C467   C     0.19404   0.09559   0.71787   0.00000  Uiso   1.00
C468   C     0.19232   0.40560   0.78860   0.00000  Uiso   1.00
C469   C     0.19733   0.04976   0.71713   0.00000  Uiso   1.00
C470   C     0.19585   0.45146   0.78878   0.00000  Uiso   1.00
C471   C     0.17350   0.02402   0.74980   0.00000  Uiso   1.00
C472   C     0.17424   0.47590   0.74807   0.00000  Uiso   1.00
Cu473  Cu    0.16667   0.25000   0.79822   0.00000  Uiso   1.00
Cu474  Cu    0.16667   0.25001   0.70179   0.00000  Uiso   1.00
H475   H     0.32571   0.25009   0.69369   0.00000  Uiso   1.00
H476   H     0.00765   0.24980   0.80632   0.00000  Uiso   1.00
H477   H     0.12597   0.02336   0.80650   0.00000  Uiso   1.00
H478   H     0.13057   0.47419   0.67674   0.00000  Uiso   1.00
H479   H     0.21389   0.11500   0.69299   0.00000  Uiso   1.00
H480   H     0.21030   0.38726   0.82021   0.00000  Uiso   1.00
H481   H     0.21871   0.03436   0.69142   0.00000  Uiso   1.00
H482   H     0.21530   0.46796   0.82067   0.00000  Uiso   1.00
H483   H     0.23967   0.28605   0.54634   0.00000  Uiso   1.00
H484   H     0.10586   0.20020   0.95540   0.00000  Uiso   1.00
H485   H     0.23610   0.28733   0.63311   0.00000  Uiso   1.00
H486   H     0.10444   0.20467   0.86808   0.00000  Uiso   1.00
H487   H     0.09350   0.21538   0.52727   0.00000  Uiso   1.00
H488   H     0.22380   0.30248   0.97039   0.00000  Uiso   1.00
N489   N     0.16667   0.25001   0.62935   0.00000  Uiso   1.00
N490   N     0.16667   0.24999   0.87066   0.00000  Uiso   1.00
O491   O     0.16667   0.18573   0.79072   0.00000  Uiso   1.00
O492   O     0.16666   0.31428   0.70929   0.00000  Uiso   1.00
O493   O     0.16667   0.18573   0.70928   0.00000  Uiso   1.00
O494   O     0.16666   0.31427   0.79072   0.00000  Uiso   1.00
O495   O     0.09161   0.25000   0.78132   0.00000  Uiso   1.00
O496   O     0.24172   0.25001   0.71868   0.00000  Uiso   1.00
O497   O     0.09161   0.25000   0.69989   0.00000  Uiso   1.00
O498   O     0.24172   0.25000   0.80012   0.00000  Uiso   1.00
S499   S     0.09811   0.11121   0.82063   0.00000  Uiso   1.00
O500   O     0.07032   0.15124   0.79795   0.00000  Uiso   1.00
O501   O     0.05880   0.07657   0.82998   0.00000  Uiso   1.00
O502   O     0.13392   0.12438   0.87364   0.00000  Uiso   1.00
H503   H     0.10959   0.12347   0.89785   0.00000  Uiso   1.00
S504   S     0.10365   0.38441   0.65679   0.00000  Uiso   1.00
O505   O     0.06866   0.34975   0.67434   0.00000  Uiso   1.00
O506   O     0.07126   0.41907   0.62797   0.00000  Uiso   1.00
O507   O     0.14171   0.36105   0.62070   0.00000  Uiso   1.00
H508   H     0.11783   0.34423   0.59661   0.00000  Uiso   1.00
O509   O     0.09018   0.20604   0.62053   0.00000  Uiso   1.00
C510   C     0.09232   0.16029   0.61179   0.00000  Uiso   1.00
H511   H     0.06856   0.14248   0.63603   0.00000  Uiso   1.00
H512   H     0.13233   0.14732   0.62013   0.00000  Uiso   1.00
H513   H     0.07573   0.15271   0.57375   0.00000  Uiso   1.00
O514   O     0.23297   0.30459   0.87694   0.00000  Uiso   1.00
C515   C     0.28503   0.29723   0.89653   0.00000  Uiso   1.00
H516   H     0.30996   0.31206   0.87132   0.00000  Uiso   1.00
H517   H     0.29424   0.26133   0.90019   0.00000  Uiso   1.00
H518   H     0.29502   0.31388   0.93197   0.00000  Uiso   1.00
C519   C     0.49871   0.16484   0.75018   0.00000  Uiso   1.00
C520   C     0.49893   0.33510   0.74934   0.00000  Uiso   1.00
C521   C     0.54009   0.27057   0.55932   0.00000  Uiso   1.00
C522   C     0.46578   0.22299   0.94156   0.00000  Uiso   1.00
C523   C     0.53882   0.27075   0.60968   0.00000  Uiso   1.00
C524   C     0.46564   0.22432   0.89107   0.00000  Uiso   1.00
C525   C     0.46190   0.22800   0.60001   0.00000  Uiso   1.00
C526   C     0.53410   0.27662   0.89909   0.00000  Uiso   1.00
C527   C     0.46001   0.22991   0.54902   0.00000  Uiso   1.00
C528   C     0.53280   0.27843   0.94974   0.00000  Uiso   1.00
C529   C     0.49985   0.25049   0.52734   0.00000  Uiso   1.00
C530   C     0.49954   0.25052   0.97248   0.00000  Uiso   1.00
C531   C     0.40123   0.24997   0.73751   0.00000  Uiso   1.00
C532   C     0.59877   0.25001   0.76249   0.00000  Uiso   1.00
C533   C     0.34588   0.24999   0.73069   0.00000  Uiso   1.00
C534   C     0.65413   0.24993   0.76933   0.00000  Uiso   1.00
C535   C     0.47860   0.04398   0.78224   0.00000  Uiso   1.00
C536   C     0.48169   0.45455   0.70741   0.00000  Uiso   1.00
C537   C     0.47316   0.08982   0.78220   0.00000  Uiso   1.00
C538   C     0.47625   0.40852   0.70715   0.00000  Uiso   1.00
C539   C     0.49929   0.11626   0.75054   0.00000  Uiso   1.00
C540   C     0.49960   0.38359   0.74807   0.00000  Uiso   1.00
C541   C     0.52738   0.09559   0.71787   0.00000  Uiso   1.00
C542   C     0.52566   0.40560   0.78860   0.00000  Uiso   1.00
C543   C     0.53066   0.04976   0.71713   0.00000  Uiso   1.00
C544   C     0.52918   0.45146   0.78878   0.00000  Uiso   1.00
C545   C     0.50683   0.02402   0.74980   0.00000  Uiso   1.00
C546   C     0.50758   0.47590   0.74807   0.00000  Uiso   1.00
Cu547  Cu    0.50000   0.25000   0.79822   0.00000  Uiso   1.00
Cu548  Cu    0.50000   0.25001   0.70179   0.00000  Uiso   1.00
H549   H     0.65904   0.25009   0.69369   0.00000  Uiso   1.00
H550   H     0.34098   0.24980   0.80632   0.00000  Uiso   1.00
H551   H     0.45930   0.02336   0.80650   0.00000  Uiso   1.00
H552   H     0.46391   0.47419   0.67674   0.00000  Uiso   1.00
H553   H     0.54723   0.11500   0.69299   0.00000  Uiso   1.00
H554   H     0.54364   0.38726   0.82021   0.00000  Uiso   1.00
H555   H     0.55204   0.03436   0.69142   0.00000  Uiso   1.00
H556   H     0.54863   0.46796   0.82067   0.00000  Uiso   1.00
H557   H     0.57300   0.28605   0.54634   0.00000  Uiso   1.00
H558   H     0.43919   0.20020   0.95540   0.00000  Uiso   1.00
H559   H     0.56943   0.28733   0.63311   0.00000  Uiso   1.00
H560   H     0.43777   0.20467   0.86808   0.00000  Uiso   1.00
H561   H     0.42683   0.21538   0.52727   0.00000  Uiso   1.00
H562   H     0.55714   0.30248   0.97039   0.00000  Uiso   1.00
N563   N     0.50000   0.25001   0.62935   0.00000  Uiso   1.00
N564   N     0.50000   0.24999   0.87066   0.00000  Uiso   1.00
O565   O     0.50000   0.18573   0.79072   0.00000  Uiso   1.00
O566   O     0.50000   0.31428   0.70929   0.00000  Uiso   1.00
O567   O     0.50000   0.18573   0.70928   0.00000  Uiso   1.00
O568   O     0.50000   0.31427   0.79072   0.00000  Uiso   1.00
O569   O     0.42495   0.25000   0.78132   0.00000  Uiso   1.00
O570   O     0.57505   0.25001   0.71868   0.00000  Uiso   1.00
O571   O     0.42495   0.25000   0.69989   0.00000  Uiso   1.00
O572   O     0.57505   0.25000   0.80012   0.00000  Uiso   1.00
S573   S     0.43144   0.11121   0.82063   0.00000  Uiso   1.00
O574   O     0.40366   0.15124   0.79795   0.00000  Uiso   1.00
O575   O     0.39214   0.07657   0.82998   0.00000  Uiso   1.00
O576   O     0.46725   0.12438   0.87364   0.00000  Uiso   1.00
H577   H     0.44292   0.12347   0.89785   0.00000  Uiso   1.00
S578   S     0.43698   0.38441   0.65679   0.00000  Uiso   1.00
O579   O     0.40199   0.34975   0.67434   0.00000  Uiso   1.00
O580   O     0.40459   0.41907   0.62797   0.00000  Uiso   1.00
O581   O     0.47504   0.36105   0.62070   0.00000  Uiso   1.00
H582   H     0.45116   0.34423   0.59661   0.00000  Uiso   1.00
O583   O     0.42351   0.20604   0.62053   0.00000  Uiso   1.00
C584   C     0.42566   0.16029   0.61179   0.00000  Uiso   1.00
H585   H     0.40189   0.14248   0.63603   0.00000  Uiso   1.00
H586   H     0.46567   0.14732   0.62013   0.00000  Uiso   1.00
H587   H     0.40906   0.15271   0.57375   0.00000  Uiso   1.00
O588   O     0.56630   0.30459   0.87694   0.00000  Uiso   1.00
C589   C     0.61836   0.29723   0.89653   0.00000  Uiso   1.00
H590   H     0.64329   0.31206   0.87132   0.00000  Uiso   1.00
H591   H     0.62757   0.26133   0.90019   0.00000  Uiso   1.00
H592   H     0.62835   0.31388   0.93197   0.00000  Uiso   1.00
C593   C     0.83204   0.16484   0.75018   0.00000  Uiso   1.00
C594   C     0.83227   0.33510   0.74934   0.00000  Uiso   1.00
C595   C     0.87343   0.27057   0.55932   0.00000  Uiso   1.00
C596   C     0.79911   0.22299   0.94156   0.00000  Uiso   1.00
C597   C     0.87215   0.27075   0.60968   0.00000  Uiso   1.00
C598   C     0.79897   0.22432   0.89107   0.00000  Uiso   1.00
C599   C     0.79523   0.22800   0.60001   0.00000  Uiso   1.00
C600   C     0.86743   0.27662   0.89909   0.00000  Uiso   1.00
C601   C     0.79334   0.22991   0.54902   0.00000  Uiso   1.00
C602   C     0.86614   0.27843   0.94974   0.00000  Uiso   1.00
C603   C     0.83318   0.25049   0.52734   0.00000  Uiso   1.00
C604   C     0.83287   0.25052   0.97248   0.00000  Uiso   1.00
C605   C     0.73456   0.24997   0.73751   0.00000  Uiso   1.00
C606   C     0.93211   0.25001   0.76249   0.00000  Uiso   1.00
C607   C     0.67921   0.24999   0.73069   0.00000  Uiso   1.00
C608   C     0.98747   0.24993   0.76933   0.00000  Uiso   1.00
C609   C     0.81194   0.04398   0.78224   0.00000  Uiso   1.00
C610   C     0.81502   0.45455   0.70741   0.00000  Uiso   1.00
C611   C     0.80650   0.08982   0.78220   0.00000  Uiso   1.00
C612   C     0.80958   0.40852   0.70715   0.00000  Uiso   1.00
C613   C     0.83262   0.11626   0.75054   0.00000  Uiso   1.00
C614   C     0.83293   0.38359   0.74807   0.00000  Uiso   1.00
C615   C     0.86071   0.09559   0.71787   0.00000  Uiso   1.00
C616   C     0.85899   0.40560   0.78860   0.00000  Uiso   1.00
C617   C     0.86400   0.04976   0.71713   0.00000  Uiso   1.00
C618   C     0.86251   0.45146   0.78878   0.00000  Uiso   1.00
C619   C     0.84016   0.02402   0.74980   0.00000  Uiso   1.00
C620   C     0.84091   0.47590   0.74807   0.00000  Uiso   1.00
Cu621  Cu    0.83333   0.25000   0.79822   0.00000  Uiso   1.00
Cu622  Cu    0.83333   0.25001   0.70179   0.00000  Uiso   1.00
H623   H     0.99237   0.25009   0.69369   0.00000  Uiso   1.00
H624   H     0.67431   0.24980   0.80632   0.00000  Uiso   1.00
H625   H     0.79263   0.02336   0.80650   0.00000  Uiso   1.00
H626   H     0.79724   0.47419   0.67674   0.00000  Uiso   1.00
H627   H     0.88056   0.11500   0.69299   0.00000  Uiso   1.00
H628   H     0.87697   0.38726   0.82021   0.00000  Uiso   1.00
H629   H     0.88537   0.03436   0.69142   0.00000  Uiso   1.00
H630   H     0.88196   0.46796   0.82067   0.00000  Uiso   1.00
H631   H     0.90633   0.28605   0.54634   0.00000  Uiso   1.00
H632   H     0.77252   0.20020   0.95540   0.00000  Uiso   1.00
H633   H     0.90277   0.28733   0.63311   0.00000  Uiso   1.00
H634   H     0.77111   0.20467   0.86808   0.00000  Uiso   1.00
H635   H     0.76017   0.21538   0.52727   0.00000  Uiso   1.00
H636   H     0.89047   0.30248   0.97039   0.00000  Uiso   1.00
N637   N     0.83333   0.25001   0.62935   0.00000  Uiso   1.00
N638   N     0.83333   0.24999   0.87066   0.00000  Uiso   1.00
O639   O     0.83334   0.18573   0.79072   0.00000  Uiso   1.00
O640   O     0.83333   0.31428   0.70929   0.00000  Uiso   1.00
O641   O     0.83334   0.18573   0.70928   0.00000  Uiso   1.00
O642   O     0.83333   0.31427   0.79072   0.00000  Uiso   1.00
O643   O     0.75828   0.25000   0.78132   0.00000  Uiso   1.00
O644   O     0.90839   0.25001   0.71868   0.00000  Uiso   1.00
O645   O     0.75828   0.25000   0.69989   0.00000  Uiso   1.00
O646   O     0.90839   0.25000   0.80012   0.00000  Uiso   1.00
S647   S     0.76477   0.11121   0.82063   0.00000  Uiso   1.00
O648   O     0.73699   0.15124   0.79795   0.00000  Uiso   1.00
O649   O     0.72547   0.07657   0.82998   0.00000  Uiso   1.00
O650   O     0.80059   0.12438   0.87364   0.00000  Uiso   1.00
H651   H     0.77626   0.12347   0.89785   0.00000  Uiso   1.00
S652   S     0.77031   0.38441   0.65679   0.00000  Uiso   1.00
O653   O     0.73533   0.34975   0.67434   0.00000  Uiso   1.00
O654   O     0.73793   0.41907   0.62797   0.00000  Uiso   1.00
O655   O     0.80838   0.36105   0.62070   0.00000  Uiso   1.00
H656   H     0.78450   0.34423   0.59661   0.00000  Uiso   1.00
O657   O     0.75684   0.20604   0.62053   0.00000  Uiso   1.00
C658   C     0.75899   0.16029   0.61179   0.00000  Uiso   1.00
H659   H     0.73523   0.14248   0.63603   0.00000  Uiso   1.00
H660   H     0.79900   0.14732   0.62013   0.00000  Uiso   1.00
H661   H     0.74239   0.15271   0.57375   0.00000  Uiso   1.00
O662   O     0.89964   0.30459   0.87694   0.00000  Uiso   1.00
C663   C     0.95169   0.29723   0.89653   0.00000  Uiso   1.00
H664   H     0.97662   0.31206   0.87132   0.00000  Uiso   1.00
H665   H     0.96091   0.26133   0.90019   0.00000  Uiso   1.00
H666   H     0.96169   0.31388   0.93197   0.00000  Uiso   1.00
C667   C     0.16538   0.66484   0.75018   0.00000  Uiso   1.00
C668   C     0.16560   0.83510   0.74934   0.00000  Uiso   1.00
C669   C     0.20676   0.77057   0.55932   0.00000  Uiso   1.00
C670   C     0.13245   0.72299   0.94156   0.00000  Uiso   1.00
C671   C     0.20549   0.77075   0.60968   0.00000  Uiso   1.00
C672   C     0.13230   0.72432   0.89107   0.00000  Uiso   1.00
C673   C     0.12857   0.72800   0.60001   0.00000  Uiso   1.00
C674   C     0.20076   0.77662   0.89909   0.00000  Uiso   1.00
C675   C     0.12668   0.72991   0.54902   0.00000  Uiso   1.00
C676   C     0.19947   0.77843   0.94974   0.00000  Uiso   1.00
C677   C     0.16652   0.75049   0.52734   0.00000  Uiso   1.00
C678   C     0.16620   0.75052   0.97248   0.00000  Uiso   1.00
C679   C     0.06790   0.74997   0.73751   0.00000  Uiso   1.00
C680   C     0.26544   0.75001   0.76249   0.00000  Uiso   1.00
C681   C     0.01255   0.74999   0.73069   0.00000  Uiso   1.00
C682   C     0.32080   0.74993   0.76933   0.00000  Uiso   1.00
C683   C     0.14527   0.54398   0.78224   0.00000  Uiso   1.00
C684   C     0.14835   0.95455   0.70741   0.00000  Uiso   1.00
C685   C     0.13983   0.58982   0.78220   0.00000  Uiso   1.00
C686   C     0.14291   0.90852   0.70715   0.00000  Uiso   1.00
C687   C     0.16595   0.61626   0.75054   0.00000  Uiso   1.00
C688   C     0.16627   0.88359   0.74807   0.00000  Uiso   1.00
C689   C     0.19404   0.59559   0.71787   0.00000  Uiso   1.00
C690   C     0.19232   0.90560   0.78860   0.00000  Uiso   1.00
C691   C     0.19733   0.54976   0.71713   0.00000  Uiso   1.00
C692   C     0.19585   0.95146   0.78878   0.00000  Uiso   1.00
C693   C     0.17350   0.52402   0.74980   0.00000  Uiso   1.00
C694   C     0.17424   0.97590   0.74807   0.00000  Uiso   1.00
Cu695  Cu    0.16667   0.75000   0.79822   0.00000  Uiso   1.00
Cu696  Cu    0.16667   0.75001   0.70179   0.00000  Uiso   1.00
H697   H     0.32571   0.75009   0.69369   0.00000  Uiso   1.00
H698   H     0.00765   0.74980   0.80632   0.00000  Uiso   1.00
H699   H     0.12597   0.52336   0.80650   0.00000  Uiso   1.00
H700   H     0.13057   0.97419   0.67674   0.00000  Uiso   1.00
H701   H     0.21389   0.61500   0.69299   0.00000  Uiso   1.00
H702   H     0.21030   0.88726   0.82021   0.00000  Uiso   1.00
H703   H     0.21871   0.53436   0.69142   0.00000  Uiso   1.00
H704   H     0.21530   0.96796   0.82067   0.00000  Uiso   1.00
H705   H     0.23967   0.78605   0.54634   0.00000  Uiso   1.00
H706   H     0.10586   0.70020   0.95540   0.00000  Uiso   1.00
H707   H     0.23610   0.78733   0.63311   0.00000  Uiso   1.00
H708   H     0.10444   0.70467   0.86808   0.00000  Uiso   1.00
H709   H     0.09350   0.71538   0.52727   0.00000  Uiso   1.00
H710   H     0.22380   0.80248   0.97039   0.00000  Uiso   1.00
N711   N     0.16667   0.75001   0.62935   0.00000  Uiso   1.00
N712   N     0.16667   0.74999   0.87066   0.00000  Uiso   1.00
O713   O     0.16667   0.68573   0.79072   0.00000  Uiso   1.00
O714   O     0.16666   0.81428   0.70929   0.00000  Uiso   1.00
O715   O     0.16667   0.68573   0.70928   0.00000  Uiso   1.00
O716   O     0.16666   0.81427   0.79072   0.00000  Uiso   1.00
O717   O     0.09161   0.75000   0.78132   0.00000  Uiso   1.00
O718   O     0.24172   0.75001   0.71868   0.00000  Uiso   1.00
O719   O     0.09161   0.75000   0.69989   0.00000  Uiso   1.00
O720   O     0.24172   0.75000   0.80012   0.00000  Uiso   1.00
S721   S     0.09811   0.61121   0.82063   0.00000  Uiso   1.00
O722   O     0.07032   0.65124   0.79795   0.00000  Uiso   1.00
O723   O     0.05880   0.57657   0.82998   0.00000  Uiso   1.00
O724   O     0.13392   0.62438   0.87364   0.00000  Uiso   1.00
H725   H     0.10959   0.62347   0.89785   0.00000  Uiso   1.00
S726   S     0.10365   0.88441   0.65679   0.00000  Uiso   1.00
O727   O     0.06866   0.84975   0.67434   0.00000  Uiso   1.00
O728   O     0.07126   0.91907   0.62797   0.00000  Uiso   1.00
O729   O     0.14171   0.86105   0.62070   0.00000  Uiso   1.00
H730   H     0.11783   0.84423   0.59661   0.00000  Uiso   1.00
O731   O     0.09018   0.70604   0.62053   0.00000  Uiso   1.00
C732   C     0.09232   0.66029   0.61179   0.00000  Uiso   1.00
H733   H     0.06856   0.64248   0.63603   0.00000  Uiso   1.00
H734   H     0.13233   0.64732   0.62013   0.00000  Uiso   1.00
H735   H     0.07573   0.65271   0.57375   0.00000  Uiso   1.00
O736   O     0.23297   0.80459   0.87694   0.00000  Uiso   1.00
C737   C     0.28503   0.79723   0.89653   0.00000  Uiso   1.00
H738   H     0.30996   0.81206   0.87132   0.00000  Uiso   1.00
H739   H     0.29424   0.76133   0.90019   0.00000  Uiso   1.00
H740   H     0.29502   0.81388   0.93197   0.00000  Uiso   1.00
C741   C     0.49871   0.66484   0.75018   0.00000  Uiso   1.00
C742   C     0.49893   0.83510   0.74934   0.00000  Uiso   1.00
C743   C     0.54009   0.77057   0.55932   0.00000  Uiso   1.00
C744   C     0.46578   0.72299   0.94156   0.00000  Uiso   1.00
C745   C     0.53882   0.77075   0.60968   0.00000  Uiso   1.00
C746   C     0.46564   0.72432   0.89107   0.00000  Uiso   1.00
C747   C     0.46190   0.72800   0.60001   0.00000  Uiso   1.00
C748   C     0.53410   0.77662   0.89909   0.00000  Uiso   1.00
C749   C     0.46001   0.72991   0.54902   0.00000  Uiso   1.00
C750   C     0.53280   0.77843   0.94974   0.00000  Uiso   1.00
C751   C     0.49985   0.75049   0.52734   0.00000  Uiso   1.00
C752   C     0.49954   0.75052   0.97248   0.00000  Uiso   1.00
C753   C     0.40123   0.74997   0.73751   0.00000  Uiso   1.00
C754   C     0.59877   0.75001   0.76249   0.00000  Uiso   1.00
C755   C     0.34588   0.74999   0.73069   0.00000  Uiso   1.00
C756   C     0.65413   0.74993   0.76933   0.00000  Uiso   1.00
C757   C     0.47860   0.54398   0.78224   0.00000  Uiso   1.00
C758   C     0.48169   0.95455   0.70741   0.00000  Uiso   1.00
C759   C     0.47316   0.58982   0.78220   0.00000  Uiso   1.00
C760   C     0.47625   0.90852   0.70715   0.00000  Uiso   1.00
C761   C     0.49929   0.61626   0.75054   0.00000  Uiso   1.00
C762   C     0.49960   0.88359   0.74807   0.00000  Uiso   1.00
C763   C     0.52738   0.59559   0.71787   0.00000  Uiso   1.00
C764   C     0.52566   0.90560   0.78860   0.00000  Uiso   1.00
C765   C     0.53066   0.54976   0.71713   0.00000  Uiso   1.00
C766   C     0.52918   0.95146   0.78878   0.00000  Uiso   1.00
C767   C     0.50683   0.52402   0.74980   0.00000  Uiso   1.00
C768   C     0.50758   0.97590   0.74807   0.00000  Uiso   1.00
Cu769  Cu    0.50000   0.75000   0.79822   0.00000  Uiso   1.00
Cu770  Cu    0.50000   0.75001   0.70179   0.00000  Uiso   1.00
H771   H     0.65904   0.75009   0.69369   0.00000  Uiso   1.00
H772   H     0.34098   0.74980   0.80632   0.00000  Uiso   1.00
H773   H     0.45930   0.52336   0.80650   0.00000  Uiso   1.00
H774   H     0.46391   0.97419   0.67674   0.00000  Uiso   1.00
H775   H     0.54723   0.61500   0.69299   0.00000  Uiso   1.00
H776   H     0.54364   0.88726   0.82021   0.00000  Uiso   1.00
H777   H     0.55204   0.53436   0.69142   0.00000  Uiso   1.00
H778   H     0.54863   0.96796   0.82067   0.00000  Uiso   1.00
H779   H     0.57300   0.78605   0.54634   0.00000  Uiso   1.00
H780   H     0.43919   0.70020   0.95540   0.00000  Uiso   1.00
H781   H     0.56943   0.78733   0.63311   0.00000  Uiso   1.00
H782   H     0.43777   0.70467   0.86808   0.00000  Uiso   1.00
H783   H     0.42683   0.71538   0.52727   0.00000  Uiso   1.00
H784   H     0.55714   0.80248   0.97039   0.00000  Uiso   1.00
N785   N     0.50000   0.75001   0.62935   0.00000  Uiso   1.00
N786   N     0.50000   0.74999   0.87066   0.00000  Uiso   1.00
O787   O     0.50000   0.68573   0.79072   0.00000  Uiso   1.00
O788   O     0.50000   0.81428   0.70929   0.00000  Uiso   1.00
O789   O     0.50000   0.68573   0.70928   0.00000  Uiso   1.00
O790   O     0.50000   0.81427   0.79072   0.00000  Uiso   1.00
O791   O     0.42495   0.75000   0.78132   0.00000  Uiso   1.00
O792   O     0.57505   0.75001   0.71868   0.00000  Uiso   1.00
O793   O     0.42495   0.75000   0.69989   0.00000  Uiso   1.00
O794   O     0.57505   0.75000   0.80012   0.00000  Uiso   1.00
S795   S     0.43144   0.61121   0.82063   0.00000  Uiso   1.00
O796   O     0.40366   0.65124   0.79795   0.00000  Uiso   1.00
O797   O     0.39214   0.57657   0.82998   0.00000  Uiso   1.00
O798   O     0.46725   0.62438   0.87364   0.00000  Uiso   1.00
H799   H     0.44292   0.62347   0.89785   0.00000  Uiso   1.00
S800   S     0.43698   0.88441   0.65679   0.00000  Uiso   1.00
O801   O     0.40199   0.84975   0.67434   0.00000  Uiso   1.00
O802   O     0.40459   0.91907   0.62797   0.00000  Uiso   1.00
O803   O     0.47504   0.86105   0.62070   0.00000  Uiso   1.00
H804   H     0.45116   0.84423   0.59661   0.00000  Uiso   1.00
O805   O     0.42351   0.70604   0.62053   0.00000  Uiso   1.00
C806   C     0.42566   0.66029   0.61179   0.00000  Uiso   1.00
H807   H     0.40189   0.64248   0.63603   0.00000  Uiso   1.00
H808   H     0.46567   0.64732   0.62013   0.00000  Uiso   1.00
H809   H     0.40906   0.65271   0.57375   0.00000  Uiso   1.00
O810   O     0.56630   0.80459   0.87694   0.00000  Uiso   1.00
C811   C     0.61836   0.79723   0.89653   0.00000  Uiso   1.00
H812   H     0.64329   0.81206   0.87132   0.00000  Uiso   1.00
H813   H     0.62757   0.76133   0.90019   0.00000  Uiso   1.00
H814   H     0.62835   0.81388   0.93197   0.00000  Uiso   1.00
C815   C     0.83204   0.66484   0.75018   0.00000  Uiso   1.00
C816   C     0.83227   0.83510   0.74934   0.00000  Uiso   1.00
C817   C     0.87343   0.77057   0.55932   0.00000  Uiso   1.00
C818   C     0.79911   0.72299   0.94156   0.00000  Uiso   1.00
C819   C     0.87215   0.77075   0.60968   0.00000  Uiso   1.00
C820   C     0.79897   0.72432   0.89107   0.00000  Uiso   1.00
C821   C     0.79523   0.72800   0.60001   0.00000  Uiso   1.00
C822   C     0.86743   0.77662   0.89909   0.00000  Uiso   1.00
C823   C     0.79334   0.72991   0.54902   0.00000  Uiso   1.00
C824   C     0.86614   0.77843   0.94974   0.00000  Uiso   1.00
C825   C     0.83318   0.75049   0.52734   0.00000  Uiso   1.00
C826   C     0.83287   0.75052   0.97248   0.00000  Uiso   1.00
C827   C     0.73456   0.74997   0.73751   0.00000  Uiso   1.00
C828   C     0.93211   0.75001   0.76249   0.00000  Uiso   1.00
C829   C     0.67921   0.74999   0.73069   0.00000  Uiso   1.00
C830   C     0.98747   0.74993   0.76933   0.00000  Uiso   1.00
C831   C     0.81194   0.54398   0.78224   0.00000  Uiso   1.00
C832   C     0.81502   0.95455   0.70741   0.00000  Uiso   1.00
C833   C     0.80650   0.58982   0.78220   0.00000  Uiso   1.00
C834   C     0.80958   0.90852   0.70715   0.00000  Uiso   1.00
C835   C     0.83262   0.61626   0.75054   0.00000  Uiso   1.00
C836   C     0.83293   0.88359   0.74807   0.00000  Uiso   1.00
C837   C     0.86071   0.59559   0.71787   0.00000  Uiso   1.00
C838   C     0.85899   0.90560   0.78860   0.00000  Uiso   1.00
C839   C     0.86400   0.54976   0.71713   0.00000  Uiso   1.00
C840   C     0.86251   0.95146   0.78878   0.00000  Uiso   1.00
C841   C     0.84016   0.52402   0.74980   0.00000  Uiso   1.00
C842   C     0.84091   0.97590   0.74807   0.00000  Uiso   1.00
Cu843  Cu    0.83333   0.75000   0.79822   0.00000  Uiso   1.00
Cu844  Cu    0.83333   0.75001   0.70179   0.00000  Uiso   1.00
H845   H     0.99237   0.75009   0.69369   0.00000  Uiso   1.00
H846   H     0.67431   0.74980   0.80632   0.00000  Uiso   1.00
H847   H     0.79263   0.52336   0.80650   0.00000  Uiso   1.00
H848   H     0.79724   0.97419   0.67674   0.00000  Uiso   1.00
H849   H     0.88056   0.61500   0.69299   0.00000  Uiso   1.00
H850   H     0.87697   0.88726   0.82021   0.00000  Uiso   1.00
H851   H     0.88537   0.53436   0.69142   0.00000  Uiso   1.00
H852   H     0.88196   0.96796   0.82067   0.00000  Uiso   1.00
H853   H     0.90633   0.78605   0.54634   0.00000  Uiso   1.00
H854   H     0.77252   0.70020   0.95540   0.00000  Uiso   1.00
H855   H     0.90277   0.78733   0.63311   0.00000  Uiso   1.00
H856   H     0.77111   0.70467   0.86808   0.00000  Uiso   1.00
H857   H     0.76017   0.71538   0.52727   0.00000  Uiso   1.00
H858   H     0.89047   0.80248   0.97039   0.00000  Uiso   1.00
N859   N     0.83333   0.75001   0.62935   0.00000  Uiso   1.00
N860   N     0.83333   0.74999   0.87066   0.00000  Uiso   1.00
O861   O     0.83334   0.68573   0.79072   0.00000  Uiso   1.00
O862   O     0.83333   0.81428   0.70929   0.00000  Uiso   1.00
O863   O     0.83334   0.68573   0.70928   0.00000  Uiso   1.00
O864   O     0.83333   0.81427   0.79072   0.00000  Uiso   1.00
O865   O     0.75828   0.75000   0.78132   0.00000  Uiso   1.00
O866   O     0.90839   0.75001   0.71868   0.00000  Uiso   1.00
O867   O     0.75828   0.75000   0.69989   0.00000  Uiso   1.00
O868   O     0.90839   0.75000   0.80012   0.00000  Uiso   1.00
S869   S     0.76477   0.61121   0.82063   0.00000  Uiso   1.00
O870   O     0.73699   0.65124   0.79795   0.00000  Uiso   1.00
O871   O     0.72547   0.57657   0.82998   0.00000  Uiso   1.00
O872   O     0.80059   0.62438   0.87364   0.00000  Uiso   1.00
H873   H     0.77626   0.62347   0.89785   0.00000  Uiso   1.00
S874   S     0.77031   0.88441   0.65679   0.00000  Uiso   1.00
O875   O     0.73533   0.84975   0.67434   0.00000  Uiso   1.00
O876   O     0.73793   0.91907   0.62797   0.00000  Uiso   1.00
O877   O     0.80838   0.86105   0.62070   0.00000  Uiso   1.00
H878   H     0.78450   0.84423   0.59661   0.00000  Uiso   1.00
O879   O     0.75684   0.70604   0.62053   0.00000  Uiso   1.00
C880   C     0.75899   0.66029   0.61179   0.00000  Uiso   1.00
H881   H     0.73523   0.64248   0.63603   0.00000  Uiso   1.00
H882   H     0.79900   0.64732   0.62013   0.00000  Uiso   1.00
H883   H     0.74239   0.65271   0.57375   0.00000  Uiso   1.00
O884   O     0.89964   0.80459   0.87694   0.00000  Uiso   1.00
C885   C     0.95169   0.79723   0.89653   0.00000  Uiso   1.00
H886   H     0.97662   0.81206   0.87132   0.00000  Uiso   1.00
H887   H     0.96091   0.76133   0.90019   0.00000  Uiso   1.00
H888   H     0.96169   0.81388   0.93197   0.00000  Uiso   1.00
loop_
_geom_bond_atom_site_label_1
_geom_bond_atom_site_label_2
_geom_bond_distance
_geom_bond_site_symmetry_2
_ccdc_geom_bond_type
C1     C21     1.469   .     S
C1     O47     1.297   .     A
C1     O49     1.296   .     A
C2     C22     1.466   .     S
C2     O48     1.293   .     A
C2     O50     1.300   .     A
C3     C5      1.406   .     A
C3     H39     1.079   .     S
C3     C11     1.415   .     A
C4     H40     1.078   .     S
C4     C12     1.414   .     A
C4     C6      1.404   .     A
C5     N45     1.362   .     A
C5     H41     1.081   .     S
C6     H42     1.078   .     S
C6     N46     1.359   .     A
C7     O65     1.382   .     S
C7     N45     1.368   .     A
C7     C9      1.412   .     A
C8     O70     1.385   .     S
C8     N46     1.368   .     A
C8     C10     1.416   .     A
C9     C11     1.410   .     A
C9     H43     1.078   .     S
C10    C12     1.411   .     A
C10    H44     1.078   .     S
C11    C456    1.525   1_554 S
C12    C455    1.525   .     S
C13    C15     1.434   .     S
C13    O53     1.291   .     A
C13    O51     1.286   .     A
C14    O54     1.291   .     A
C14    C16     1.434   .     S
C14    O52     1.286   .     A
C15    C164    1.337   1_455 S
C15    H179    1.087   1_455 S
C16    C89     1.337   .     S
C16    H106    1.087   .     S
C17    H33     1.084   .     S
C17    C27     1.394   .     A
C17    C19     1.395   .     A
C18    C28     1.396   .     A
C18    H34     1.083   .     S
C18    C20     1.397   .     A
C19    S55     1.769   .     S
C19    C21     1.420   .     A
C20    S60     1.776   .     S
C20    C22     1.422   .     A
C21    C23     1.407   .     A
C22    C24     1.404   .     A
C23    H35     1.084   .     S
C23    C25     1.390   .     A
C24    H36     1.083   .     S
C24    C26     1.388   .     A
C25    C27     1.395   .     A
C25    H37     1.083   .     S
C26    H38     1.083   .     S
C26    C28     1.396   .     A
C27    C250    1.457   1_545 S
C28    C249    1.457   .     S
Cu29   N46     2.015   .     S
Cu29   Cu30    2.682   .     S
Cu29   O47     1.958   .     S
Cu29   O50     1.951   .     S
Cu29   O51     1.953   .     S
Cu29   O54     1.958   .     S
Cu30   N45     2.015   .     S
Cu30   O53     1.958   .     S
Cu30   O48     1.958   .     S
Cu30   O49     1.951   .     S
Cu30   O52     1.953   .     S
H31    C89     1.087   .     S
H32    C164    1.087   1_455 S
S55    O56     1.503   .     D
S55    O57     1.504   .     D
S55    O58     1.681   .     S
O58    H59     0.991   .     S
S60    O62     1.503   .     D
S60    O63     1.681   .     S
S60    O61     1.503   .     D
O63    H64     0.991   .     S
O65    C66     1.412   .     S
C66    H68     1.115   .     S
C66    H67     1.109   .     S
C66    H69     1.111   .     S
O70    C71     1.412   .     S
C71    H74     1.110   .     S
C71    H72     1.109   .     S
C71    H73     1.115   .     S
C75    C95     1.469   .     S
C75    O121    1.297   .     A
C75    O123    1.296   .     A
C76    C96     1.466   .     S
C76    O122    1.293   .     A
C76    O124    1.300   .     A
C77    C79     1.406   .     A
C77    H113    1.079   .     S
C77    C85     1.415   .     A
C78    H114    1.078   .     S
C78    C86     1.414   .     A
C78    C80     1.404   .     A
C79    N119    1.362   .     A
C79    H115    1.081   .     S
C80    H116    1.078   .     S
C80    N120    1.359   .     A
C81    O139    1.382   .     S
C81    N119    1.368   .     A
C81    C83     1.412   .     A
C82    O144    1.385   .     S
C82    N120    1.368   .     A
C82    C84     1.416   .     A
C83    C85     1.410   .     A
C83    H117    1.078   .     S
C84    C86     1.411   .     A
C84    H118    1.078   .     S
C85    C530    1.525   1_554 S
C86    C529    1.525   .     S
C87    C89     1.434   .     S
C87    O127    1.291   .     A
C87    O125    1.286   .     A
C88    O128    1.291   .     A
C88    C90     1.434   .     S
C88    O126    1.286   .     A
C90    C163    1.337   .     S
C90    H180    1.087   .     S
C91    H107    1.084   .     S
C91    C101    1.394   .     A
C91    C93     1.395   .     A
C92    C102    1.396   .     A
C92    H108    1.083   .     S
C92    C94     1.397   .     A
C93    S129    1.769   .     S
C93    C95     1.420   .     A
C94    S134    1.776   .     S
C94    C96     1.422   .     A
C95    C97     1.407   .     A
C96    C98     1.404   .     A
C97    H109    1.084   .     S
C97    C99     1.390   .     A
C98    H110    1.083   .     S
C98    C100    1.388   .     A
C99    C101    1.395   .     A
C99    H111    1.083   .     S
C100   H112    1.083   .     S
C100   C102    1.396   .     A
C101   C324    1.457   1_545 S
C102   C323    1.457   .     S
Cu103  N120    2.015   .     S
Cu103  Cu104   2.682   .     S
Cu103  O121    1.958   .     S
Cu103  O124    1.951   .     S
Cu103  O125    1.953   .     S
Cu103  O128    1.958   .     S
Cu104  N119    2.015   .     S
Cu104  O127    1.958   .     S
Cu104  O122    1.958   .     S
Cu104  O123    1.951   .     S
Cu104  O126    1.953   .     S
H105   C163    1.087   .     S
S129   O130    1.503   .     D
S129   O131    1.504   .     D
S129   O132    1.681   .     S
O132   H133    0.991   .     S
S134   O136    1.503   .     D
S134   O137    1.681   .     S
S134   O135    1.503   .     D
O137   H138    0.991   .     S
O139   C140    1.412   .     S
C140   H142    1.115   .     S
C140   H141    1.109   .     S
C140   H143    1.111   .     S
O144   C145    1.412   .     S
C145   H148    1.110   .     S
C145   H146    1.109   .     S
C145   H147    1.115   .     S
C149   C169    1.469   .     S
C149   O195    1.297   .     A
C149   O197    1.296   .     A
C150   C170    1.466   .     S
C150   O196    1.293   .     A
C150   O198    1.300   .     A
C151   C153    1.406   .     A
C151   H187    1.079   .     S
C151   C159    1.415   .     A
C152   H188    1.078   .     S
C152   C160    1.414   .     A
C152   C154    1.404   .     A
C153   N193    1.362   .     A
C153   H189    1.081   .     S
C154   H190    1.078   .     S
C154   N194    1.359   .     A
C155   O213    1.382   .     S
C155   N193    1.368   .     A
C155   C157    1.412   .     A
C156   O218    1.385   .     S
C156   N194    1.368   .     A
C156   C158    1.416   .     A
C157   C159    1.410   .     A
C157   H191    1.078   .     S
C158   C160    1.411   .     A
C158   H192    1.078   .     S
C159   C604    1.525   1_554 S
C160   C603    1.525   .     S
C161   C163    1.434   .     S
C161   O201    1.291   .     A
C161   O199    1.286   .     A
C162   O202    1.291   .     A
C162   C164    1.434   .     S
C162   O200    1.286   .     A
C164   C15     1.337   1_655 S
C164   H32     1.087   1_655 S
C165   H181    1.084   .     S
C165   C175    1.394   .     A
C165   C167    1.395   .     A
C166   C176    1.396   .     A
C166   H182    1.083   .     S
C166   C168    1.397   .     A
C167   S203    1.769   .     S
C167   C169    1.420   .     A
C168   S208    1.776   .     S
C168   C170    1.422   .     A
C169   C171    1.407   .     A
C170   C172    1.404   .     A
C171   H183    1.084   .     S
C171   C173    1.390   .     A
C172   H184    1.083   .     S
C172   C174    1.388   .     A
C173   C175    1.395   .     A
C173   H185    1.083   .     S
C174   H186    1.083   .     S
C174   C176    1.396   .     A
C175   C398    1.457   1_545 S
C176   C397    1.457   .     S
Cu177  N194    2.015   .     S
Cu177  Cu178   2.682   .     S
Cu177  O195    1.958   .     S
Cu177  O198    1.951   .     S
Cu177  O199    1.953   .     S
Cu177  O202    1.958   .     S
Cu178  N193    2.015   .     S
Cu178  O201    1.958   .     S
Cu178  O196    1.958   .     S
Cu178  O197    1.951   .     S
Cu178  O200    1.953   .     S
H179   C15     1.087   1_655 S
S203   O204    1.503   .     D
S203   O205    1.504   .     D
S203   O206    1.681   .     S
O206   H207    0.991   .     S
S208   O210    1.503   .     D
S208   O211    1.681   .     S
S208   O209    1.503   .     D
O211   H212    0.991   .     S
O213   C214    1.412   .     S
C214   H216    1.115   .     S
C214   H215    1.109   .     S
C214   H217    1.111   .     S
O218   C219    1.412   .     S
C219   H222    1.110   .     S
C219   H220    1.109   .     S
C219   H221    1.115   .     S
C223   C243    1.469   .     S
C223   O269    1.297   .     A
C223   O271    1.296   .     A
C224   C244    1.466   .     S
C224   O270    1.293   .     A
C224   O272    1.300   .     A
C225   C227    1.406   .     A
C225   H261    1.079   .     S
C225   C233    1.415   .     A
C226   H262    1.078   .     S
C226   C234    1.414   .     A
C226   C228    1.404   .     A
C227   N267    1.362   .     A
C227   H263    1.081   .     S
C228   H264    1.078   .     S
C228   N268    1.359   .     A
C229   O287    1.382   .     S
C229   N267    1.368   .     A
C229   C231    1.412   .     A
C230   O292    1.385   .     S
C230   N268    1.368   .     A
C230   C232    1.416   .     A
C231   C233    1.410   .     A
C231   H265    1.078   .     S
C232   C234    1.411   .     A
C232   H266    1.078   .     S
C233   C678    1.525   1_554 S
C234   C677    1.525   .     S
C235   C237    1.434   .     S
C235   O275    1.291   .     A
C235   O273    1.286   .     A
C236   O276    1.291   .     A
C236   C238    1.434   .     S
C236   O274    1.286   .     A
C237   C386    1.337   1_455 S
C237   H401    1.087   1_455 S
C238   C311    1.337   .     S
C238   H328    1.087   .     S
C239   H255    1.084   .     S
C239   C249    1.394   .     A
C239   C241    1.395   .     A
C240   C250    1.396   .     A
C240   H256    1.083   .     S
C240   C242    1.397   .     A
C241   S277    1.769   .     S
C241   C243    1.420   .     A
C242   S282    1.776   .     S
C242   C244    1.422   .     A
C243   C245    1.407   .     A
C244   C246    1.404   .     A
C245   H257    1.084   .     S
C245   C247    1.390   .     A
C246   H258    1.083   .     S
C246   C248    1.388   .     A
C247   C249    1.395   .     A
C247   H259    1.083   .     S
C248   H260    1.083   .     S
C248   C250    1.396   .     A
C250   C27     1.457   1_565 S
Cu251  N268    2.015   .     S
Cu251  Cu252   2.682   .     S
Cu251  O269    1.958   .     S
Cu251  O272    1.951   .     S
Cu251  O273    1.953   .     S
Cu251  O276    1.958   .     S
Cu252  N267    2.015   .     S
Cu252  O275    1.958   .     S
Cu252  O270    1.958   .     S
Cu252  O271    1.951   .     S
Cu252  O274    1.953   .     S
H253   C311    1.087   .     S
H254   C386    1.087   1_455 S
S277   O278    1.503   .     D
S277   O279    1.504   .     D
S277   O280    1.681   .     S
O280   H281    0.991   .     S
S282   O284    1.503   .     D
S282   O285    1.681   .     S
S282   O283    1.503   .     D
O285   H286    0.991   .     S
O287   C288    1.412   .     S
C288   H290    1.115   .     S
C288   H289    1.109   .     S
C288   H291    1.111   .     S
O292   C293    1.412   .     S
C293   H296    1.110   .     S
C293   H294    1.109   .     S
C293   H295    1.115   .     S
C297   C317    1.469   .     S
C297   O343    1.297   .     A
C297   O345    1.296   .     A
C298   C318    1.466   .     S
C298   O344    1.293   .     A
C298   O346    1.300   .     A
C299   C301    1.406   .     A
C299   H335    1.079   .     S
C299   C307    1.415   .     A
C300   H336    1.078   .     S
C300   C308    1.414   .     A
C300   C302    1.404   .     A
C301   N341    1.362   .     A
C301   H337    1.081   .     S
C302   H338    1.078   .     S
C302   N342    1.359   .     A
C303   O361    1.382   .     S
C303   N341    1.368   .     A
C303   C305    1.412   .     A
C304   O366    1.385   .     S
C304   N342    1.368   .     A
C304   C306    1.416   .     A
C305   C307    1.410   .     A
C305   H339    1.078   .     S
C306   C308    1.411   .     A
C306   H340    1.078   .     S
C307   C752    1.525   1_554 S
C308   C751    1.525   .     S
C309   C311    1.434   .     S
C309   O349    1.291   .     A
C309   O347    1.286   .     A
C310   O350    1.291   .     A
C310   C312    1.434   .     S
C310   O348    1.286   .     A
C312   C385    1.337   .     S
C312   H402    1.087   .     S
C313   H329    1.084   .     S
C313   C323    1.394   .     A
C313   C315    1.395   .     A
C314   C324    1.396   .     A
C314   H330    1.083   .     S
C314   C316    1.397   .     A
C315   S351    1.769   .     S
C315   C317    1.420   .     A
C316   S356    1.776   .     S
C316   C318    1.422   .     A
C317   C319    1.407   .     A
C318   C320    1.404   .     A
C319   H331    1.084   .     S
C319   C321    1.390   .     A
C320   H332    1.083   .     S
C320   C322    1.388   .     A
C321   C323    1.395   .     A
C321   H333    1.083   .     S
C322   H334    1.083   .     S
C322   C324    1.396   .     A
C324   C101    1.457   1_565 S
Cu325  N342    2.015   .     S
Cu325  Cu326   2.682   .     S
Cu325  O343    1.958   .     S
Cu325  O346    1.951   .     S
Cu325  O347    1.953   .     S
Cu325  O350    1.958   .     S
Cu326  N341    2.015   .     S
Cu326  O349    1.958   .     S
Cu326  O344    1.958   .     S
Cu326  O345    1.951   .     S
Cu326  O348    1.953   .     S
H327   C385    1.087   .     S
S351   O352    1.503   .     D
S351   O353    1.504   .     D
S351   O354    1.681   .     S
O354   H355    0.991   .     S
S356   O358    1.503   .     D
S356   O359    1.681   .     S
S356   O357    1.503   .     D
O359   H360    0.991   .     S
O361   C362    1.412   .     S
C362   H364    1.115   .     S
C362   H363    1.109   .     S
C362   H365    1.111   .     S
O366   C367    1.412   .     S
C367   H370    1.110   .     S
C367   H368    1.109   .     S
C367   H369    1.115   .     S
C371   C391    1.469   .     S
C371   O417    1.297   .     A
C371   O419    1.296   .     A
C372   C392    1.466   .     S
C372   O418    1.293   .     A
C372   O420    1.300   .     A
C373   C375    1.406   .     A
C373   H409    1.079   .     S
C373   C381    1.415   .     A
C374   H410    1.078   .     S
C374   C382    1.414   .     A
C374   C376    1.404   .     A
C375   N415    1.362   .     A
C375   H411    1.081   .     S
C376   H412    1.078   .     S
C376   N416    1.359   .     A
C377   O435    1.382   .     S
C377   N415    1.368   .     A
C377   C379    1.412   .     A
C378   O440    1.385   .     S
C378   N416    1.368   .     A
C378   C380    1.416   .     A
C379   C381    1.410   .     A
C379   H413    1.078   .     S
C380   C382    1.411   .     A
C380   H414    1.078   .     S
C381   C826    1.525   1_554 S
C382   C825    1.525   .     S
C383   C385    1.434   .     S
C383   O423    1.291   .     A
C383   O421    1.286   .     A
C384   O424    1.291   .     A
C384   C386    1.434   .     S
C384   O422    1.286   .     A
C386   C237    1.337   1_655 S
C386   H254    1.087   1_655 S
C387   H403    1.084   .     S
C387   C397    1.394   .     A
C387   C389    1.395   .     A
C388   C398    1.396   .     A
C388   H404    1.083   .     S
C388   C390    1.397   .     A
C389   S425    1.769   .     S
C389   C391    1.420   .     A
C390   S430    1.776   .     S
C390   C392    1.422   .     A
C391   C393    1.407   .     A
C392   C394    1.404   .     A
C393   H405    1.084   .     S
C393   C395    1.390   .     A
C394   H406    1.083   .     S
C394   C396    1.388   .     A
C395   C397    1.395   .     A
C395   H407    1.083   .     S
C396   H408    1.083   .     S
C396   C398    1.396   .     A
C398   C175    1.457   1_565 S
Cu399  N416    2.015   .     S
Cu399  Cu400   2.682   .     S
Cu399  O417    1.958   .     S
Cu399  O420    1.951   .     S
Cu399  O421    1.953   .     S
Cu399  O424    1.958   .     S
Cu400  N415    2.015   .     S
Cu400  O423    1.958   .     S
Cu400  O418    1.958   .     S
Cu400  O419    1.951   .     S
Cu400  O422    1.953   .     S
H401   C237    1.087   1_655 S
S425   O426    1.503   .     D
S425   O427    1.504   .     D
S425   O428    1.681   .     S
O428   H429    0.991   .     S
S430   O432    1.503   .     D
S430   O433    1.681   .     S
S430   O431    1.503   .     D
O433   H434    0.991   .     S
O435   C436    1.412   .     S
C436   H438    1.115   .     S
C436   H437    1.109   .     S
C436   H439    1.111   .     S
O440   C441    1.412   .     S
C441   H444    1.110   .     S
C441   H442    1.109   .     S
C441   H443    1.115   .     S
C445   C465    1.469   .     S
C445   O491    1.297   .     A
C445   O493    1.296   .     A
C446   C466    1.466   .     S
C446   O492    1.293   .     A
C446   O494    1.300   .     A
C447   C449    1.406   .     A
C447   H483    1.079   .     S
C447   C455    1.415   .     A
C448   H484    1.078   .     S
C448   C456    1.414   .     A
C448   C450    1.404   .     A
C449   N489    1.362   .     A
C449   H485    1.081   .     S
C450   H486    1.078   .     S
C450   N490    1.359   .     A
C451   O509    1.382   .     S
C451   N489    1.368   .     A
C451   C453    1.412   .     A
C452   O514    1.385   .     S
C452   N490    1.368   .     A
C452   C454    1.416   .     A
C453   C455    1.410   .     A
C453   H487    1.078   .     S
C454   C456    1.411   .     A
C454   H488    1.078   .     S
C456   C11     1.525   1_556 S
C457   C459    1.434   .     S
C457   O497    1.291   .     A
C457   O495    1.286   .     A
C458   O498    1.291   .     A
C458   C460    1.434   .     S
C458   O496    1.286   .     A
C459   C608    1.337   1_455 S
C459   H623    1.087   1_455 S
C460   C533    1.337   .     S
C460   H550    1.087   .     S
C461   H477    1.084   .     S
C461   C471    1.394   .     A
C461   C463    1.395   .     A
C462   C472    1.396   .     A
C462   H478    1.083   .     S
C462   C464    1.397   .     A
C463   S499    1.769   .     S
C463   C465    1.420   .     A
C464   S504    1.776   .     S
C464   C466    1.422   .     A
C465   C467    1.407   .     A
C466   C468    1.404   .     A
C467   H479    1.084   .     S
C467   C469    1.390   .     A
C468   H480    1.083   .     S
C468   C470    1.388   .     A
C469   C471    1.395   .     A
C469   H481    1.083   .     S
C470   H482    1.083   .     S
C470   C472    1.396   .     A
C471   C694    1.457   1_545 S
C472   C693    1.457   .     S
Cu473  N490    2.015   .     S
Cu473  Cu474   2.682   .     S
Cu473  O491    1.958   .     S
Cu473  O494    1.951   .     S
Cu473  O495    1.953   .     S
Cu473  O498    1.958   .     S
Cu474  N489    2.015   .     S
Cu474  O497    1.958   .     S
Cu474  O492    1.958   .     S
Cu474  O493    1.951   .     S
Cu474  O496    1.953   .     S
H475   C533    1.087   .     S
H476   C608    1.087   1_455 S
S499   O500    1.503   .     D
S499   O501    1.504   .     D
S499   O502    1.681   .     S
O502   H503    0.991   .     S
S504   O506    1.503   .     D
S504   O507    1.681   .     S
S504   O505    1.503   .     D
O507   H508    0.991   .     S
O509   C510    1.412   .     S
C510   H512    1.115   .     S
C510   H511    1.109   .     S
C510   H513    1.111   .     S
O514   C515    1.412   .     S
C515   H518    1.110   .     S
C515   H516    1.109   .     S
C515   H517    1.115   .     S
C519   C539    1.469   .     S
C519   O565    1.297   .     A
C519   O567    1.296   .     A
C520   C540    1.466   .     S
C520   O566    1.293   .     A
C520   O568    1.300   .     A
C521   C523    1.406   .     A
C521   H557    1.079   .     S
C521   C529    1.415   .     A
C522   H558    1.078   .     S
C522   C530    1.414   .     A
C522   C524    1.404   .     A
C523   N563    1.362   .     A
C523   H559    1.081   .     S
C524   H560    1.078   .     S
C524   N564    1.359   .     A
C525   O583    1.382   .     S
C525   N563    1.368   .     A
C525   C527    1.412   .     A
C526   O588    1.385   .     S
C526   N564    1.368   .     A
C526   C528    1.416   .     A
C527   C529    1.410   .     A
C527   H561    1.078   .     S
C528   C530    1.411   .     A
C528   H562    1.078   .     S
C530   C85     1.525   1_556 S
C531   C533    1.434   .     S
C531   O571    1.291   .     A
C531   O569    1.286   .     A
C532   O572    1.291   .     A
C532   C534    1.434   .     S
C532   O570    1.286   .     A
C534   C607    1.337   .     S
C534   H624    1.087   .     S
C535   H551    1.084   .     S
C535   C545    1.394   .     A
C535   C537    1.395   .     A
C536   C546    1.396   .     A
C536   H552    1.083   .     S
C536   C538    1.397   .     A
C537   S573    1.769   .     S
C537   C539    1.420   .     A
C538   S578    1.776   .     S
C538   C540    1.422   .     A
C539   C541    1.407   .     A
C540   C542    1.404   .     A
C541   H553    1.084   .     S
C541   C543    1.390   .     A
C542   H554    1.083   .     S
C542   C544    1.388   .     A
C543   C545    1.395   .     A
C543   H555    1.083   .     S
C544   H556    1.083   .     S
C544   C546    1.396   .     A
C545   C768    1.457   1_545 S
C546   C767    1.457   .     S
Cu547  N564    2.015   .     S
Cu547  Cu548   2.682   .     S
Cu547  O565    1.958   .     S
Cu547  O568    1.951   .     S
Cu547  O569    1.953   .     S
Cu547  O572    1.958   .     S
Cu548  N563    2.015   .     S
Cu548  O571    1.958   .     S
Cu548  O566    1.958   .     S
Cu548  O567    1.951   .     S
Cu548  O570    1.953   .     S
H549   C607    1.087   .     S
S573   O574    1.503   .     D
S573   O575    1.504   .     D
S573   O576    1.681   .     S
O576   H577    0.991   .     S
S578   O580    1.503   .     D
S578   O581    1.681   .     S
S578   O579    1.503   .     D
O581   H582    0.991   .     S
O583   C584    1.412   .     S
C584   H586    1.115   .     S
C584   H585    1.109   .     S
C584   H587    1.111   .     S
O588   C589    1.412   .     S
C589   H592    1.110   .     S
C589   H590    1.109   .     S
C589   H591    1.115   .     S
C593   C613    1.469   .     S
C593   O639    1.297   .     A
C593   O641    1.296   .     A
C594   C614    1.466   .     S
C594   O640    1.293   .     A
C594   O642    1.300   .     A
C595   C597    1.406   .     A
C595   H631    1.079   .     S
C595   C603    1.415   .     A
C596   H632    1.078   .     S
C596   C604    1.414   .     A
C596   C598    1.404   .     A
C597   N637    1.362   .     A
C597   H633    1.081   .     S
C598   H634    1.078   .     S
C598   N638    1.359   .     A
C599   O657    1.382   .     S
C599   N637    1.368   .     A
C599   C601    1.412   .     A
C600   O662    1.385   .     S
C600   N638    1.368   .     A
C600   C602    1.416   .     A
C601   C603    1.410   .     A
C601   H635    1.078   .     S
C602   C604    1.411   .     A
C602   H636    1.078   .     S
C604   C159    1.525   1_556 S
C605   C607    1.434   .     S
C605   O645    1.291   .     A
C605   O643    1.286   .     A
C606   O646    1.291   .     A
C606   C608    1.434   .     S
C606   O644    1.286   .     A
C608   C459    1.337   1_655 S
C608   H476    1.087   1_655 S
C609   H625    1.084   .     S
C609   C619    1.394   .     A
C609   C611    1.395   .     A
C610   C620    1.396   .     A
C610   H626    1.083   .     S
C610   C612    1.397   .     A
C611   S647    1.769   .     S
C611   C613    1.420   .     A
C612   S652    1.776   .     S
C612   C614    1.422   .     A
C613   C615    1.407   .     A
C614   C616    1.404   .     A
C615   H627    1.084   .     S
C615   C617    1.390   .     A
C616   H628    1.083   .     S
C616   C618    1.388   .     A
C617   C619    1.395   .     A
C617   H629    1.083   .     S
C618   H630    1.083   .     S
C618   C620    1.396   .     A
C619   C842    1.457   1_545 S
C620   C841    1.457   .     S
Cu621  N638    2.015   .     S
Cu621  Cu622   2.682   .     S
Cu621  O639    1.958   .     S
Cu621  O642    1.951   .     S
Cu621  O643    1.953   .     S
Cu621  O646    1.958   .     S
Cu622  N637    2.015   .     S
Cu622  O645    1.958   .     S
Cu622  O640    1.958   .     S
Cu622  O641    1.951   .     S
Cu622  O644    1.953   .     S
H623   C459    1.087   1_655 S
S647   O648    1.503   .     D
S647   O649    1.504   .     D
S647   O650    1.681   .     S
O650   H651    0.991   .     S
S652   O654    1.503   .     D
S652   O655    1.681   .     S
S652   O653    1.503   .     D
O655   H656    0.991   .     S
O657   C658    1.412   .     S
C658   H660    1.115   .     S
C658   H659    1.109   .     S
C658   H661    1.111   .     S
O662   C663    1.412   .     S
C663   H666    1.110   .     S
C663   H664    1.109   .     S
C663   H665    1.115   .     S
C667   C687    1.469   .     S
C667   O713    1.297   .     A
C667   O715    1.296   .     A
C668   C688    1.466   .     S
C668   O714    1.293   .     A
C668   O716    1.300   .     A
C669   C671    1.406   .     A
C669   H705    1.079   .     S
C669   C677    1.415   .     A
C670   H706    1.078   .     S
C670   C678    1.414   .     A
C670   C672    1.404   .     A
C671   N711    1.362   .     A
C671   H707    1.081   .     S
C672   H708    1.078   .     S
C672   N712    1.359   .     A
C673   O731    1.382   .     S
C673   N711    1.368   .     A
C673   C675    1.412   .     A
C674   O736    1.385   .     S
C674   N712    1.368   .     A
C674   C676    1.416   .     A
C675   C677    1.410   .     A
C675   H709    1.078   .     S
C676   C678    1.411   .     A
C676   H710    1.078   .     S
C678   C233    1.525   1_556 S
C679   C681    1.434   .     S
C679   O719    1.291   .     A
C679   O717    1.286   .     A
C680   O720    1.291   .     A
C680   C682    1.434   .     S
C680   O718    1.286   .     A
C681   C830    1.337   1_455 S
C681   H845    1.087   1_455 S
C682   C755    1.337   .     S
C682   H772    1.087   .     S
C683   H699    1.084   .     S
C683   C693    1.394   .     A
C683   C685    1.395   .     A
C684   C694    1.396   .     A
C684   H700    1.083   .     S
C684   C686    1.397   .     A
C685   S721    1.769   .     S
C685   C687    1.420   .     A
C686   S726    1.776   .     S
C686   C688    1.422   .     A
C687   C689    1.407   .     A
C688   C690    1.404   .     A
C689   H701    1.084   .     S
C689   C691    1.390   .     A
C690   H702    1.083   .     S
C690   C692    1.388   .     A
C691   C693    1.395   .     A
C691   H703    1.083   .     S
C692   H704    1.083   .     S
C692   C694    1.396   .     A
C694   C471    1.457   1_565 S
Cu695  N712    2.015   .     S
Cu695  Cu696   2.682   .     S
Cu695  O713    1.958   .     S
Cu695  O716    1.951   .     S
Cu695  O717    1.953   .     S
Cu695  O720    1.958   .     S
Cu696  N711    2.015   .     S
Cu696  O719    1.958   .     S
Cu696  O714    1.958   .     S
Cu696  O715    1.951   .     S
Cu696  O718    1.953   .     S
H697   C755    1.087   .     S
H698   C830    1.087   1_455 S
S721   O722    1.503   .     D
S721   O723    1.504   .     D
S721   O724    1.681   .     S
O724   H725    0.991   .     S
S726   O728    1.503   .     D
S726   O729    1.681   .     S
S726   O727    1.503   .     D
O729   H730    0.991   .     S
O731   C732    1.412   .     S
C732   H734    1.115   .     S
C732   H733    1.109   .     S
C732   H735    1.111   .     S
O736   C737    1.412   .     S
C737   H740    1.110   .     S
C737   H738    1.109   .     S
C737   H739    1.115   .     S
C741   C761    1.469   .     S
C741   O787    1.297   .     A
C741   O789    1.296   .     A
C742   C762    1.466   .     S
C742   O788    1.293   .     A
C742   O790    1.300   .     A
C743   C745    1.406   .     A
C743   H779    1.079   .     S
C743   C751    1.415   .     A
C744   H780    1.078   .     S
C744   C752    1.414   .     A
C744   C746    1.404   .     A
C745   N785    1.362   .     A
C745   H781    1.081   .     S
C746   H782    1.078   .     S
C746   N786    1.359   .     A
C747   O805    1.382   .     S
C747   N785    1.368   .     A
C747   C749    1.412   .     A
C748   O810    1.385   .     S
C748   N786    1.368   .     A
C748   C750    1.416   .     A
C749   C751    1.410   .     A
C749   H783    1.078   .     S
C750   C752    1.411   .     A
C750   H784    1.078   .     S
C752   C307    1.525   1_556 S
C753   C755    1.434   .     S
C753   O793    1.291   .     A
C753   O791    1.286   .     A
C754   O794    1.291   .     A
C754   C756    1.434   .     S
C754   O792    1.286   .     A
C756   C829    1.337   .     S
C756   H846    1.087   .     S
C757   H773    1.084   .     S
C757   C767    1.394   .     A
C757   C759    1.395   .     A
C758   C768    1.396   .     A
C758   H774    1.083   .     S
C758   C760    1.397   .     A
C759   S795    1.769   .     S
C759   C761    1.420   .     A
C760   S800    1.776   .     S
C760   C762    1.422   .     A
C761   C763    1.407   .     A
C762   C764    1.404   .     A
C763   H775    1.084   .     S
C763   C765    1.390   .     A
C764   H776    1.083   .     S
C764   C766    1.388   .     A
C765   C767    1.395   .     A
C765   H777    1.083   .     S
C766   H778    1.083   .     S
C766   C768    1.396   .     A
C768   C545    1.457   1_565 S
Cu769  N786    2.015   .     S
Cu769  Cu770   2.682   .     S
Cu769  O787    1.958   .     S
Cu769  O790    1.951   .     S
Cu769  O791    1.953   .     S
Cu769  O794    1.958   .     S
Cu770  N785    2.015   .     S
Cu770  O793    1.958   .     S
Cu770  O788    1.958   .     S
Cu770  O789    1.951   .     S
Cu770  O792    1.953   .     S
H771   C829    1.087   .     S
S795   O796    1.503   .     D
S795   O797    1.504   .     D
S795   O798    1.681   .     S
O798   H799    0.991   .     S
S800   O802    1.503   .     D
S800   O803    1.681   .     S
S800   O801    1.503   .     D
O803   H804    0.991   .     S
O805   C806    1.412   .     S
C806   H808    1.115   .     S
C806   H807    1.109   .     S
C806   H809    1.111   .     S
O810   C811    1.412   .     S
C811   H814    1.110   .     S
C811   H812    1.109   .     S
C811   H813    1.115   .     S
C815   C835    1.469   .     S
C815   O861    1.297   .     A
C815   O863    1.296   .     A
C816   C836    1.466   .     S
C816   O862    1.293   .     A
C816   O864    1.300   .     A
C817   C819    1.406   .     A
C817   H853    1.079   .     S
C817   C825    1.415   .     A
C818   H854    1.078   .     S
C818   C826    1.414   .     A
C818   C820    1.404   .     A
C819   N859    1.362   .     A
C819   H855    1.081   .     S
C820   H856    1.078   .     S
C820   N860    1.359   .     A
C821   O879    1.382   .     S
C821   N859    1.368   .     A
C821   C823    1.412   .     A
C822   O884    1.385   .     S
C822   N860    1.368   .     A
C822   C824    1.416   .     A
C823   C825    1.410   .     A
C823   H857    1.078   .     S
C824   C826    1.411   .     A
C824   H858    1.078   .     S
C826   C381    1.525   1_556 S
C827   C829    1.434   .     S
C827   O867    1.291   .     A
C827   O865    1.286   .     A
C828   O868    1.291   .     A
C828   C830    1.434   .     S
C828   O866    1.286   .     A
C830   C681    1.337   1_655 S
C830   H698    1.087   1_655 S
C831   H847    1.084   .     S
C831   C841    1.394   .     A
C831   C833    1.395   .     A
C832   C842    1.396   .     A
C832   H848    1.083   .     S
C832   C834    1.397   .     A
C833   S869    1.769   .     S
C833   C835    1.420   .     A
C834   S874    1.776   .     S
C834   C836    1.422   .     A
C835   C837    1.407   .     A
C836   C838    1.404   .     A
C837   H849    1.084   .     S
C837   C839    1.390   .     A
C838   H850    1.083   .     S
C838   C840    1.388   .     A
C839   C841    1.395   .     A
C839   H851    1.083   .     S
C840   H852    1.083   .     S
C840   C842    1.396   .     A
C842   C619    1.457   1_565 S
Cu843  N860    2.015   .     S
Cu843  Cu844   2.682   .     S
Cu843  O861    1.958   .     S
Cu843  O864    1.951   .     S
Cu843  O865    1.953   .     S
Cu843  O868    1.958   .     S
Cu844  N859    2.015   .     S
Cu844  O867    1.958   .     S
Cu844  O862    1.958   .     S
Cu844  O863    1.951   .     S
Cu844  O866    1.953   .     S
H845   C681    1.087   1_655 S
S869   O870    1.503   .     D
S869   O871    1.504   .     D
S869   O872    1.681   .     S
O872   H873    0.991   .     S
S874   O876    1.503   .     D
S874   O877    1.681   .     S
S874   O875    1.503   .     D
O877   H878    0.991   .     S
O879   C880    1.412   .     S
C880   H882    1.115   .     S
C880   H881    1.109   .     S
C880   H883    1.111   .     S
O884   C885    1.412   .     S
C885   H888    1.110   .     S
C885   H886    1.109   .     S
C885   H887    1.115   .     S
