data_str_m3_o1_o17_pcu_sym.61
_audit_creation_date              2020-01-03
_audit_creation_method            'Materials Studio'
_symmetry_space_group_name_H-M    'P1'
_symmetry_Int_Tables_number       1
_symmetry_cell_setting            triclinic
loop_
_symmetry_equiv_pos_as_xyz
  x,y,z
_cell_length_a                    32.1260
_cell_length_b                    29.4200
_cell_length_c                    29.9877
_cell_angle_alpha                 91.0307
_cell_angle_beta                  90.1086
_cell_angle_gamma                 89.9695
loop_
_atom_site_label
_atom_site_type_symbol
_atom_site_fract_x
_atom_site_fract_y
_atom_site_fract_z
_atom_site_U_iso_or_equiv
_atom_site_adp_type
_atom_site_occupancy
C1     C     0.08659   0.16668   0.25004   0.00000  Uiso   1.00
C2     C     0.04245   0.16670   0.25007   0.00000  Uiso   1.00
C3     C     0.19608   0.02444   0.27340   0.00000  Uiso   1.00
C4     C     0.13738   0.30890   0.22641   0.00000  Uiso   1.00
C5     C     0.13739   0.02361   0.22639   0.00000  Uiso   1.00
C6     C     0.19614   0.30974   0.27330   0.00000  Uiso   1.00
C7     C     0.16763   0.16609   0.16303   0.00000  Uiso   1.00
C8     C     0.16741   0.16713   0.33671   0.00000  Uiso   1.00
C9     C     0.18492   0.20495   0.40926   0.00000  Uiso   1.00
C10    C     0.16366   0.12396   0.08927   0.00000  Uiso   1.00
C11    C     0.16710   0.16832   0.38469   0.00000  Uiso   1.00
C12    C     0.24673   0.16665   0.24983   0.00000  Uiso   1.00
C13    C     0.16759   0.16507   0.11459   0.00000  Uiso   1.00
C14    C     0.14758   0.13243   0.40598   0.00000  Uiso   1.00
C15    C     0.17024   0.20685   0.09326   0.00000  Uiso   1.00
C16    C     0.14636   0.13173   0.45186   0.00000  Uiso   1.00
C17    C     0.16931   0.20847   0.04738   0.00000  Uiso   1.00
C18    C     0.15944   0.17029   0.47640   0.00000  Uiso   1.00
C19    C     0.15947   0.16890   0.02275   0.00000  Uiso   1.00
C20    C     0.17405   0.20958   0.45464   0.00000  Uiso   1.00
C21    C     0.15126   0.12746   0.04436   0.00000  Uiso   1.00
C22    C     0.13080   0.09366   0.47336   0.00000  Uiso   1.00
C23    C     0.13219   0.09131   0.01981   0.00000  Uiso   1.00
C24    C     0.17632   0.24956   0.02603   0.00000  Uiso   1.00
C25    C     0.22077   0.23262   0.38984   0.00000  Uiso   1.00
C26    C     0.25719   0.20221   0.37438   0.00000  Uiso   1.00
C27    C     0.29326   0.23050   0.35689   0.00000  Uiso   1.00
C28    C     0.17982   0.07845   0.10648   0.00000  Uiso   1.00
C29    C     0.22616   0.08076   0.11953   0.00000  Uiso   1.00
C30    C     0.24055   0.03629   0.14004   0.00000  Uiso   1.00
C31    C     0.10911   0.05418   0.04194   0.00000  Uiso   1.00
C32    C     0.17828   0.29604   0.45792   0.00000  Uiso   1.00
C33    C     0.17798   0.25094   0.47952   0.00000  Uiso   1.00
C34    C     0.02132   0.12673   0.26023   0.00000  Uiso   1.00
C35    C     0.31196   0.20661   0.23963   0.00000  Uiso   1.00
C36    C     0.31202   0.12670   0.26011   0.00000  Uiso   1.00
C37    C     0.02126   0.20666   0.23983   0.00000  Uiso   1.00
C38    C     0.29084   0.16663   0.24980   0.00000  Uiso   1.00
H39    H     0.13468   0.10412   0.38680   0.00000  Uiso   1.00
H40    H     0.11402   0.29030   0.20755   0.00000  Uiso   1.00
H41    H     0.11405   0.04155   0.20751   0.00000  Uiso   1.00
H42    H     0.21980   0.29184   0.29170   0.00000  Uiso   1.00
H43    H     0.28294   0.25081   0.32802   0.00000  Uiso   1.00
H44    H     0.30530   0.25374   0.38350   0.00000  Uiso   1.00
H45    H     0.31889   0.20762   0.34583   0.00000  Uiso   1.00
H46    H     0.26842   0.18186   0.40290   0.00000  Uiso   1.00
H47    H     0.24737   0.17827   0.34744   0.00000  Uiso   1.00
H48    H     0.20951   0.25401   0.36229   0.00000  Uiso   1.00
H49    H     0.23434   0.25598   0.41529   0.00000  Uiso   1.00
H50    H     0.17496   0.23817   0.11224   0.00000  Uiso   1.00
H51    H     0.22276   0.02961   0.17096   0.00000  Uiso   1.00
H52    H     0.23604   0.00749   0.11604   0.00000  Uiso   1.00
H53    H     0.27412   0.03867   0.14864   0.00000  Uiso   1.00
H54    H     0.24502   0.08723   0.08924   0.00000  Uiso   1.00
H55    H     0.23249   0.10879   0.14379   0.00000  Uiso   1.00
H56    H     0.16021   0.06625   0.13421   0.00000  Uiso   1.00
H57    H     0.17830   0.05152   0.08023   0.00000  Uiso   1.00
H58    H     0.10165   0.05690   0.07715   0.00000  Uiso   1.00
H59    H     0.16918   0.29902   0.42323   0.00000  Uiso   1.00
H60    H     0.11758   0.06582   0.45381   0.00000  Uiso   1.00
H61    H     0.18030   0.28055   0.04574   0.00000  Uiso   1.00
H62    H     0.03762   0.09573   0.26852   0.00000  Uiso   1.00
H63    H     0.29566   0.23761   0.23140   0.00000  Uiso   1.00
H64    H     0.29577   0.09570   0.26836   0.00000  Uiso   1.00
H65    H     0.03751   0.23768   0.23166   0.00000  Uiso   1.00
H66    H     0.21955   0.04304   0.29210   0.00000  Uiso   1.00
N67    N     0.16667   0.28573   0.25000   0.00000  Uiso   1.00
N68    N     0.16667   0.04760   0.25000   0.00000  Uiso   1.00
O69    O     0.10559   0.20487   0.24999   0.00000  Uiso   1.00
O70    O     0.18834   0.33042   0.47867   0.00000  Uiso   1.00
O71    O     0.22774   0.12846   0.25000   0.00000  Uiso   1.00
O72    O     0.22774   0.20487   0.25000   0.00000  Uiso   1.00
O73    O     0.10559   0.12846   0.24999   0.00000  Uiso   1.00
O74    O     0.16666   0.20489   0.18392   0.00000  Uiso   1.00
O75    O     0.16667   0.12844   0.31607   0.00000  Uiso   1.00
O76    O     0.16667   0.20489   0.31607   0.00000  Uiso   1.00
O77    O     0.16666   0.12844   0.18392   0.00000  Uiso   1.00
O78    O     0.09770   0.02040   0.02104   0.00000  Uiso   1.00
Zn79   Zn    0.16667   0.21771   0.25000   0.00000  Uiso   1.00
Zn80   Zn    0.16667   0.11563   0.25000   0.00000  Uiso   1.00
C81    C     0.41992   0.16668   0.25004   0.00000  Uiso   1.00
C82    C     0.37579   0.16670   0.25007   0.00000  Uiso   1.00
C83    C     0.52941   0.02444   0.27340   0.00000  Uiso   1.00
C84    C     0.47071   0.30890   0.22641   0.00000  Uiso   1.00
C85    C     0.47072   0.02361   0.22639   0.00000  Uiso   1.00
C86    C     0.52947   0.30974   0.27330   0.00000  Uiso   1.00
C87    C     0.50096   0.16609   0.16303   0.00000  Uiso   1.00
C88    C     0.50074   0.16713   0.33671   0.00000  Uiso   1.00
C89    C     0.51826   0.20495   0.40926   0.00000  Uiso   1.00
C90    C     0.49699   0.12396   0.08927   0.00000  Uiso   1.00
C91    C     0.50043   0.16832   0.38469   0.00000  Uiso   1.00
C92    C     0.58007   0.16665   0.24983   0.00000  Uiso   1.00
C93    C     0.50092   0.16507   0.11459   0.00000  Uiso   1.00
C94    C     0.48091   0.13243   0.40598   0.00000  Uiso   1.00
C95    C     0.50357   0.20685   0.09326   0.00000  Uiso   1.00
C96    C     0.47969   0.13173   0.45186   0.00000  Uiso   1.00
C97    C     0.50265   0.20847   0.04738   0.00000  Uiso   1.00
C98    C     0.49278   0.17029   0.47640   0.00000  Uiso   1.00
C99    C     0.49281   0.16890   0.02275   0.00000  Uiso   1.00
C100   C     0.50738   0.20958   0.45464   0.00000  Uiso   1.00
C101   C     0.48460   0.12746   0.04436   0.00000  Uiso   1.00
C102   C     0.46413   0.09366   0.47336   0.00000  Uiso   1.00
C103   C     0.46552   0.09131   0.01981   0.00000  Uiso   1.00
C104   C     0.50966   0.24956   0.02603   0.00000  Uiso   1.00
C105   C     0.55410   0.23262   0.38984   0.00000  Uiso   1.00
C106   C     0.59052   0.20221   0.37438   0.00000  Uiso   1.00
C107   C     0.62660   0.23050   0.35689   0.00000  Uiso   1.00
C108   C     0.51315   0.07845   0.10648   0.00000  Uiso   1.00
C109   C     0.55949   0.08076   0.11953   0.00000  Uiso   1.00
C110   C     0.57389   0.03629   0.14004   0.00000  Uiso   1.00
C111   C     0.44244   0.05418   0.04194   0.00000  Uiso   1.00
C112   C     0.51162   0.29604   0.45792   0.00000  Uiso   1.00
C113   C     0.51131   0.25094   0.47952   0.00000  Uiso   1.00
C114   C     0.35466   0.12673   0.26023   0.00000  Uiso   1.00
C115   C     0.64530   0.20661   0.23963   0.00000  Uiso   1.00
C116   C     0.64536   0.12670   0.26011   0.00000  Uiso   1.00
C117   C     0.35460   0.20666   0.23983   0.00000  Uiso   1.00
C118   C     0.62418   0.16663   0.24980   0.00000  Uiso   1.00
H119   H     0.46801   0.10412   0.38680   0.00000  Uiso   1.00
H120   H     0.44735   0.29030   0.20755   0.00000  Uiso   1.00
H121   H     0.44739   0.04155   0.20751   0.00000  Uiso   1.00
H122   H     0.55313   0.29184   0.29170   0.00000  Uiso   1.00
H123   H     0.61627   0.25081   0.32802   0.00000  Uiso   1.00
H124   H     0.63864   0.25374   0.38350   0.00000  Uiso   1.00
H125   H     0.65223   0.20762   0.34583   0.00000  Uiso   1.00
H126   H     0.60176   0.18186   0.40290   0.00000  Uiso   1.00
H127   H     0.58071   0.17827   0.34744   0.00000  Uiso   1.00
H128   H     0.54284   0.25401   0.36229   0.00000  Uiso   1.00
H129   H     0.56768   0.25598   0.41529   0.00000  Uiso   1.00
H130   H     0.50829   0.23817   0.11224   0.00000  Uiso   1.00
H131   H     0.55610   0.02961   0.17096   0.00000  Uiso   1.00
H132   H     0.56937   0.00749   0.11604   0.00000  Uiso   1.00
H133   H     0.60745   0.03867   0.14864   0.00000  Uiso   1.00
H134   H     0.57835   0.08723   0.08924   0.00000  Uiso   1.00
H135   H     0.56582   0.10879   0.14379   0.00000  Uiso   1.00
H136   H     0.49355   0.06625   0.13421   0.00000  Uiso   1.00
H137   H     0.51164   0.05152   0.08023   0.00000  Uiso   1.00
H138   H     0.43498   0.05690   0.07715   0.00000  Uiso   1.00
H139   H     0.50251   0.29902   0.42323   0.00000  Uiso   1.00
H140   H     0.45091   0.06582   0.45381   0.00000  Uiso   1.00
H141   H     0.51363   0.28055   0.04574   0.00000  Uiso   1.00
H142   H     0.37095   0.09573   0.26852   0.00000  Uiso   1.00
H143   H     0.62899   0.23761   0.23140   0.00000  Uiso   1.00
H144   H     0.62911   0.09570   0.26836   0.00000  Uiso   1.00
H145   H     0.37084   0.23768   0.23166   0.00000  Uiso   1.00
H146   H     0.55289   0.04304   0.29210   0.00000  Uiso   1.00
N147   N     0.50000   0.28573   0.25000   0.00000  Uiso   1.00
N148   N     0.50000   0.04760   0.25000   0.00000  Uiso   1.00
O149   O     0.43892   0.20487   0.24999   0.00000  Uiso   1.00
O150   O     0.52167   0.33042   0.47867   0.00000  Uiso   1.00
O151   O     0.56108   0.12846   0.25000   0.00000  Uiso   1.00
O152   O     0.56108   0.20487   0.25000   0.00000  Uiso   1.00
O153   O     0.43892   0.12846   0.24999   0.00000  Uiso   1.00
O154   O     0.49999   0.20489   0.18392   0.00000  Uiso   1.00
O155   O     0.50001   0.12844   0.31607   0.00000  Uiso   1.00
O156   O     0.50001   0.20489   0.31607   0.00000  Uiso   1.00
O157   O     0.49999   0.12844   0.18392   0.00000  Uiso   1.00
O158   O     0.43103   0.02040   0.02104   0.00000  Uiso   1.00
Zn159  Zn    0.50000   0.21771   0.25000   0.00000  Uiso   1.00
Zn160  Zn    0.50000   0.11563   0.25000   0.00000  Uiso   1.00
C161   C     0.75326   0.16668   0.25004   0.00000  Uiso   1.00
C162   C     0.70912   0.16670   0.25007   0.00000  Uiso   1.00
C163   C     0.86275   0.02444   0.27340   0.00000  Uiso   1.00
C164   C     0.80404   0.30890   0.22641   0.00000  Uiso   1.00
C165   C     0.80406   0.02361   0.22639   0.00000  Uiso   1.00
C166   C     0.86281   0.30974   0.27330   0.00000  Uiso   1.00
C167   C     0.83429   0.16609   0.16303   0.00000  Uiso   1.00
C168   C     0.83408   0.16713   0.33671   0.00000  Uiso   1.00
C169   C     0.85159   0.20495   0.40926   0.00000  Uiso   1.00
C170   C     0.83033   0.12396   0.08927   0.00000  Uiso   1.00
C171   C     0.83377   0.16832   0.38469   0.00000  Uiso   1.00
C172   C     0.91340   0.16665   0.24983   0.00000  Uiso   1.00
C173   C     0.83426   0.16507   0.11459   0.00000  Uiso   1.00
C174   C     0.81424   0.13243   0.40598   0.00000  Uiso   1.00
C175   C     0.83690   0.20685   0.09326   0.00000  Uiso   1.00
C176   C     0.81303   0.13173   0.45186   0.00000  Uiso   1.00
C177   C     0.83598   0.20847   0.04738   0.00000  Uiso   1.00
C178   C     0.82611   0.17029   0.47640   0.00000  Uiso   1.00
C179   C     0.82614   0.16890   0.02275   0.00000  Uiso   1.00
C180   C     0.84071   0.20958   0.45464   0.00000  Uiso   1.00
C181   C     0.81793   0.12746   0.04436   0.00000  Uiso   1.00
C182   C     0.79746   0.09366   0.47336   0.00000  Uiso   1.00
C183   C     0.79885   0.09131   0.01981   0.00000  Uiso   1.00
C184   C     0.84299   0.24956   0.02603   0.00000  Uiso   1.00
C185   C     0.88743   0.23262   0.38984   0.00000  Uiso   1.00
C186   C     0.92386   0.20221   0.37438   0.00000  Uiso   1.00
C187   C     0.95993   0.23050   0.35689   0.00000  Uiso   1.00
C188   C     0.84648   0.07845   0.10648   0.00000  Uiso   1.00
C189   C     0.89283   0.08076   0.11953   0.00000  Uiso   1.00
C190   C     0.90722   0.03629   0.14004   0.00000  Uiso   1.00
C191   C     0.77577   0.05418   0.04194   0.00000  Uiso   1.00
C192   C     0.84495   0.29604   0.45792   0.00000  Uiso   1.00
C193   C     0.84464   0.25094   0.47952   0.00000  Uiso   1.00
C194   C     0.68799   0.12673   0.26023   0.00000  Uiso   1.00
C195   C     0.97863   0.20661   0.23963   0.00000  Uiso   1.00
C196   C     0.97869   0.12670   0.26011   0.00000  Uiso   1.00
C197   C     0.68793   0.20666   0.23983   0.00000  Uiso   1.00
C198   C     0.95751   0.16663   0.24980   0.00000  Uiso   1.00
H199   H     0.80135   0.10412   0.38680   0.00000  Uiso   1.00
H200   H     0.78068   0.29030   0.20755   0.00000  Uiso   1.00
H201   H     0.78072   0.04155   0.20751   0.00000  Uiso   1.00
H202   H     0.88646   0.29184   0.29170   0.00000  Uiso   1.00
H203   H     0.94960   0.25081   0.32802   0.00000  Uiso   1.00
H204   H     0.97197   0.25374   0.38350   0.00000  Uiso   1.00
H205   H     0.98556   0.20762   0.34583   0.00000  Uiso   1.00
H206   H     0.93509   0.18186   0.40290   0.00000  Uiso   1.00
H207   H     0.91404   0.17827   0.34744   0.00000  Uiso   1.00
H208   H     0.87617   0.25401   0.36229   0.00000  Uiso   1.00
H209   H     0.90101   0.25598   0.41529   0.00000  Uiso   1.00
H210   H     0.84162   0.23817   0.11224   0.00000  Uiso   1.00
H211   H     0.88943   0.02961   0.17096   0.00000  Uiso   1.00
H212   H     0.90271   0.00749   0.11604   0.00000  Uiso   1.00
H213   H     0.94079   0.03867   0.14864   0.00000  Uiso   1.00
H214   H     0.91168   0.08723   0.08924   0.00000  Uiso   1.00
H215   H     0.89916   0.10879   0.14379   0.00000  Uiso   1.00
H216   H     0.82688   0.06625   0.13421   0.00000  Uiso   1.00
H217   H     0.84497   0.05152   0.08023   0.00000  Uiso   1.00
H218   H     0.76831   0.05690   0.07715   0.00000  Uiso   1.00
H219   H     0.83585   0.29902   0.42323   0.00000  Uiso   1.00
H220   H     0.78424   0.06582   0.45381   0.00000  Uiso   1.00
H221   H     0.84697   0.28055   0.04574   0.00000  Uiso   1.00
H222   H     0.70429   0.09573   0.26852   0.00000  Uiso   1.00
H223   H     0.96233   0.23761   0.23140   0.00000  Uiso   1.00
H224   H     0.96244   0.09570   0.26836   0.00000  Uiso   1.00
H225   H     0.70417   0.23768   0.23166   0.00000  Uiso   1.00
H226   H     0.88622   0.04304   0.29210   0.00000  Uiso   1.00
N227   N     0.83333   0.28573   0.25000   0.00000  Uiso   1.00
N228   N     0.83333   0.04760   0.25000   0.00000  Uiso   1.00
O229   O     0.77226   0.20487   0.24999   0.00000  Uiso   1.00
O230   O     0.85501   0.33042   0.47867   0.00000  Uiso   1.00
O231   O     0.89441   0.12846   0.25000   0.00000  Uiso   1.00
O232   O     0.89441   0.20487   0.25000   0.00000  Uiso   1.00
O233   O     0.77226   0.12846   0.24999   0.00000  Uiso   1.00
O234   O     0.83333   0.20489   0.18392   0.00000  Uiso   1.00
O235   O     0.83334   0.12844   0.31607   0.00000  Uiso   1.00
O236   O     0.83334   0.20489   0.31607   0.00000  Uiso   1.00
O237   O     0.83333   0.12844   0.18392   0.00000  Uiso   1.00
O238   O     0.76437   0.02040   0.02104   0.00000  Uiso   1.00
Zn239  Zn    0.83333   0.21771   0.25000   0.00000  Uiso   1.00
Zn240  Zn    0.83333   0.11563   0.25000   0.00000  Uiso   1.00
C241   C     0.08659   0.50001   0.25004   0.00000  Uiso   1.00
C242   C     0.04245   0.50003   0.25007   0.00000  Uiso   1.00
C243   C     0.19608   0.35777   0.27340   0.00000  Uiso   1.00
C244   C     0.13738   0.64223   0.22641   0.00000  Uiso   1.00
C245   C     0.13739   0.35694   0.22639   0.00000  Uiso   1.00
C246   C     0.19614   0.64307   0.27330   0.00000  Uiso   1.00
C247   C     0.16763   0.49943   0.16303   0.00000  Uiso   1.00
C248   C     0.16741   0.50046   0.33671   0.00000  Uiso   1.00
C249   C     0.18492   0.53828   0.40926   0.00000  Uiso   1.00
C250   C     0.16366   0.45729   0.08927   0.00000  Uiso   1.00
C251   C     0.16710   0.50165   0.38469   0.00000  Uiso   1.00
C252   C     0.24673   0.49999   0.24983   0.00000  Uiso   1.00
C253   C     0.16759   0.49840   0.11459   0.00000  Uiso   1.00
C254   C     0.14758   0.46576   0.40598   0.00000  Uiso   1.00
C255   C     0.17024   0.54018   0.09326   0.00000  Uiso   1.00
C256   C     0.14636   0.46506   0.45186   0.00000  Uiso   1.00
C257   C     0.16931   0.54180   0.04738   0.00000  Uiso   1.00
C258   C     0.15944   0.50362   0.47640   0.00000  Uiso   1.00
C259   C     0.15947   0.50223   0.02275   0.00000  Uiso   1.00
C260   C     0.17405   0.54291   0.45464   0.00000  Uiso   1.00
C261   C     0.15126   0.46079   0.04436   0.00000  Uiso   1.00
C262   C     0.13080   0.42699   0.47336   0.00000  Uiso   1.00
C263   C     0.13219   0.42465   0.01981   0.00000  Uiso   1.00
C264   C     0.17632   0.58289   0.02603   0.00000  Uiso   1.00
C265   C     0.22077   0.56595   0.38984   0.00000  Uiso   1.00
C266   C     0.25719   0.53554   0.37438   0.00000  Uiso   1.00
C267   C     0.29326   0.56384   0.35689   0.00000  Uiso   1.00
C268   C     0.17982   0.41178   0.10648   0.00000  Uiso   1.00
C269   C     0.22616   0.41409   0.11953   0.00000  Uiso   1.00
C270   C     0.24055   0.36962   0.14004   0.00000  Uiso   1.00
C271   C     0.10911   0.38751   0.04194   0.00000  Uiso   1.00
C272   C     0.17828   0.62937   0.45792   0.00000  Uiso   1.00
C273   C     0.17798   0.58427   0.47952   0.00000  Uiso   1.00
C274   C     0.02132   0.46006   0.26023   0.00000  Uiso   1.00
C275   C     0.31196   0.53994   0.23963   0.00000  Uiso   1.00
C276   C     0.31202   0.46003   0.26011   0.00000  Uiso   1.00
C277   C     0.02126   0.53999   0.23983   0.00000  Uiso   1.00
C278   C     0.29084   0.49997   0.24980   0.00000  Uiso   1.00
H279   H     0.13468   0.43746   0.38680   0.00000  Uiso   1.00
H280   H     0.11402   0.62363   0.20755   0.00000  Uiso   1.00
H281   H     0.11405   0.37489   0.20751   0.00000  Uiso   1.00
H282   H     0.21980   0.62517   0.29170   0.00000  Uiso   1.00
H283   H     0.28294   0.58414   0.32802   0.00000  Uiso   1.00
H284   H     0.30530   0.58707   0.38350   0.00000  Uiso   1.00
H285   H     0.31889   0.54096   0.34583   0.00000  Uiso   1.00
H286   H     0.26842   0.51520   0.40290   0.00000  Uiso   1.00
H287   H     0.24737   0.51160   0.34744   0.00000  Uiso   1.00
H288   H     0.20951   0.58734   0.36229   0.00000  Uiso   1.00
H289   H     0.23434   0.58931   0.41529   0.00000  Uiso   1.00
H290   H     0.17496   0.57151   0.11224   0.00000  Uiso   1.00
H291   H     0.22276   0.36295   0.17096   0.00000  Uiso   1.00
H292   H     0.23604   0.34082   0.11604   0.00000  Uiso   1.00
H293   H     0.27412   0.37201   0.14864   0.00000  Uiso   1.00
H294   H     0.24502   0.42056   0.08924   0.00000  Uiso   1.00
H295   H     0.23249   0.44213   0.14379   0.00000  Uiso   1.00
H296   H     0.16021   0.39958   0.13421   0.00000  Uiso   1.00
H297   H     0.17830   0.38485   0.08023   0.00000  Uiso   1.00
H298   H     0.10165   0.39024   0.07715   0.00000  Uiso   1.00
H299   H     0.16918   0.63235   0.42323   0.00000  Uiso   1.00
H300   H     0.11758   0.39915   0.45381   0.00000  Uiso   1.00
H301   H     0.18030   0.61388   0.04574   0.00000  Uiso   1.00
H302   H     0.03762   0.42907   0.26852   0.00000  Uiso   1.00
H303   H     0.29566   0.57094   0.23140   0.00000  Uiso   1.00
H304   H     0.29577   0.42903   0.26836   0.00000  Uiso   1.00
H305   H     0.03751   0.57102   0.23166   0.00000  Uiso   1.00
H306   H     0.21955   0.37637   0.29210   0.00000  Uiso   1.00
N307   N     0.16667   0.61907   0.25000   0.00000  Uiso   1.00
N308   N     0.16667   0.38093   0.25000   0.00000  Uiso   1.00
O309   O     0.10559   0.53821   0.24999   0.00000  Uiso   1.00
O310   O     0.18834   0.66375   0.47867   0.00000  Uiso   1.00
O311   O     0.22774   0.46179   0.25000   0.00000  Uiso   1.00
O312   O     0.22774   0.53821   0.25000   0.00000  Uiso   1.00
O313   O     0.10559   0.46179   0.24999   0.00000  Uiso   1.00
O314   O     0.16666   0.53823   0.18392   0.00000  Uiso   1.00
O315   O     0.16667   0.46177   0.31607   0.00000  Uiso   1.00
O316   O     0.16667   0.53823   0.31607   0.00000  Uiso   1.00
O317   O     0.16666   0.46177   0.18392   0.00000  Uiso   1.00
O318   O     0.09770   0.35373   0.02104   0.00000  Uiso   1.00
Zn319  Zn    0.16667   0.55104   0.25000   0.00000  Uiso   1.00
Zn320  Zn    0.16667   0.44896   0.25000   0.00000  Uiso   1.00
C321   C     0.41992   0.50001   0.25004   0.00000  Uiso   1.00
C322   C     0.37579   0.50003   0.25007   0.00000  Uiso   1.00
C323   C     0.52941   0.35777   0.27340   0.00000  Uiso   1.00
C324   C     0.47071   0.64223   0.22641   0.00000  Uiso   1.00
C325   C     0.47072   0.35694   0.22639   0.00000  Uiso   1.00
C326   C     0.52947   0.64307   0.27330   0.00000  Uiso   1.00
C327   C     0.50096   0.49943   0.16303   0.00000  Uiso   1.00
C328   C     0.50074   0.50046   0.33671   0.00000  Uiso   1.00
C329   C     0.51826   0.53828   0.40926   0.00000  Uiso   1.00
C330   C     0.49699   0.45729   0.08927   0.00000  Uiso   1.00
C331   C     0.50043   0.50165   0.38469   0.00000  Uiso   1.00
C332   C     0.58007   0.49999   0.24983   0.00000  Uiso   1.00
C333   C     0.50092   0.49840   0.11459   0.00000  Uiso   1.00
C334   C     0.48091   0.46576   0.40598   0.00000  Uiso   1.00
C335   C     0.50357   0.54018   0.09326   0.00000  Uiso   1.00
C336   C     0.47969   0.46506   0.45186   0.00000  Uiso   1.00
C337   C     0.50265   0.54180   0.04738   0.00000  Uiso   1.00
C338   C     0.49278   0.50362   0.47640   0.00000  Uiso   1.00
C339   C     0.49281   0.50223   0.02275   0.00000  Uiso   1.00
C340   C     0.50738   0.54291   0.45464   0.00000  Uiso   1.00
C341   C     0.48460   0.46079   0.04436   0.00000  Uiso   1.00
C342   C     0.46413   0.42699   0.47336   0.00000  Uiso   1.00
C343   C     0.46552   0.42465   0.01981   0.00000  Uiso   1.00
C344   C     0.50966   0.58289   0.02603   0.00000  Uiso   1.00
C345   C     0.55410   0.56595   0.38984   0.00000  Uiso   1.00
C346   C     0.59052   0.53554   0.37438   0.00000  Uiso   1.00
C347   C     0.62660   0.56384   0.35689   0.00000  Uiso   1.00
C348   C     0.51315   0.41178   0.10648   0.00000  Uiso   1.00
C349   C     0.55949   0.41409   0.11953   0.00000  Uiso   1.00
C350   C     0.57389   0.36962   0.14004   0.00000  Uiso   1.00
C351   C     0.44244   0.38751   0.04194   0.00000  Uiso   1.00
C352   C     0.51162   0.62937   0.45792   0.00000  Uiso   1.00
C353   C     0.51131   0.58427   0.47952   0.00000  Uiso   1.00
C354   C     0.35466   0.46006   0.26023   0.00000  Uiso   1.00
C355   C     0.64530   0.53994   0.23963   0.00000  Uiso   1.00
C356   C     0.64536   0.46003   0.26011   0.00000  Uiso   1.00
C357   C     0.35460   0.53999   0.23983   0.00000  Uiso   1.00
C358   C     0.62418   0.49997   0.24980   0.00000  Uiso   1.00
H359   H     0.46801   0.43746   0.38680   0.00000  Uiso   1.00
H360   H     0.44735   0.62363   0.20755   0.00000  Uiso   1.00
H361   H     0.44739   0.37489   0.20751   0.00000  Uiso   1.00
H362   H     0.55313   0.62517   0.29170   0.00000  Uiso   1.00
H363   H     0.61627   0.58414   0.32802   0.00000  Uiso   1.00
H364   H     0.63864   0.58707   0.38350   0.00000  Uiso   1.00
H365   H     0.65223   0.54096   0.34583   0.00000  Uiso   1.00
H366   H     0.60176   0.51520   0.40290   0.00000  Uiso   1.00
H367   H     0.58071   0.51160   0.34744   0.00000  Uiso   1.00
H368   H     0.54284   0.58734   0.36229   0.00000  Uiso   1.00
H369   H     0.56768   0.58931   0.41529   0.00000  Uiso   1.00
H370   H     0.50829   0.57151   0.11224   0.00000  Uiso   1.00
H371   H     0.55610   0.36295   0.17096   0.00000  Uiso   1.00
H372   H     0.56937   0.34082   0.11604   0.00000  Uiso   1.00
H373   H     0.60745   0.37201   0.14864   0.00000  Uiso   1.00
H374   H     0.57835   0.42056   0.08924   0.00000  Uiso   1.00
H375   H     0.56582   0.44213   0.14379   0.00000  Uiso   1.00
H376   H     0.49355   0.39958   0.13421   0.00000  Uiso   1.00
H377   H     0.51164   0.38485   0.08023   0.00000  Uiso   1.00
H378   H     0.43498   0.39024   0.07715   0.00000  Uiso   1.00
H379   H     0.50251   0.63235   0.42323   0.00000  Uiso   1.00
H380   H     0.45091   0.39915   0.45381   0.00000  Uiso   1.00
H381   H     0.51363   0.61388   0.04574   0.00000  Uiso   1.00
H382   H     0.37095   0.42907   0.26852   0.00000  Uiso   1.00
H383   H     0.62899   0.57094   0.23140   0.00000  Uiso   1.00
H384   H     0.62911   0.42903   0.26836   0.00000  Uiso   1.00
H385   H     0.37084   0.57102   0.23166   0.00000  Uiso   1.00
H386   H     0.55289   0.37637   0.29210   0.00000  Uiso   1.00
N387   N     0.50000   0.61907   0.25000   0.00000  Uiso   1.00
N388   N     0.50000   0.38093   0.25000   0.00000  Uiso   1.00
O389   O     0.43892   0.53821   0.24999   0.00000  Uiso   1.00
O390   O     0.52167   0.66375   0.47867   0.00000  Uiso   1.00
O391   O     0.56108   0.46179   0.25000   0.00000  Uiso   1.00
O392   O     0.56108   0.53821   0.25000   0.00000  Uiso   1.00
O393   O     0.43892   0.46179   0.24999   0.00000  Uiso   1.00
O394   O     0.49999   0.53823   0.18392   0.00000  Uiso   1.00
O395   O     0.50001   0.46177   0.31607   0.00000  Uiso   1.00
O396   O     0.50001   0.53823   0.31607   0.00000  Uiso   1.00
O397   O     0.49999   0.46177   0.18392   0.00000  Uiso   1.00
O398   O     0.43103   0.35373   0.02104   0.00000  Uiso   1.00
Zn399  Zn    0.50000   0.55104   0.25000   0.00000  Uiso   1.00
Zn400  Zn    0.50000   0.44896   0.25000   0.00000  Uiso   1.00
C401   C     0.75326   0.50001   0.25004   0.00000  Uiso   1.00
C402   C     0.70912   0.50003   0.25007   0.00000  Uiso   1.00
C403   C     0.86275   0.35777   0.27340   0.00000  Uiso   1.00
C404   C     0.80404   0.64223   0.22641   0.00000  Uiso   1.00
C405   C     0.80406   0.35694   0.22639   0.00000  Uiso   1.00
C406   C     0.86281   0.64307   0.27330   0.00000  Uiso   1.00
C407   C     0.83429   0.49943   0.16303   0.00000  Uiso   1.00
C408   C     0.83408   0.50046   0.33671   0.00000  Uiso   1.00
C409   C     0.85159   0.53828   0.40926   0.00000  Uiso   1.00
C410   C     0.83033   0.45729   0.08927   0.00000  Uiso   1.00
C411   C     0.83377   0.50165   0.38469   0.00000  Uiso   1.00
C412   C     0.91340   0.49999   0.24983   0.00000  Uiso   1.00
C413   C     0.83426   0.49840   0.11459   0.00000  Uiso   1.00
C414   C     0.81424   0.46576   0.40598   0.00000  Uiso   1.00
C415   C     0.83690   0.54018   0.09326   0.00000  Uiso   1.00
C416   C     0.81303   0.46506   0.45186   0.00000  Uiso   1.00
C417   C     0.83598   0.54180   0.04738   0.00000  Uiso   1.00
C418   C     0.82611   0.50362   0.47640   0.00000  Uiso   1.00
C419   C     0.82614   0.50223   0.02275   0.00000  Uiso   1.00
C420   C     0.84071   0.54291   0.45464   0.00000  Uiso   1.00
C421   C     0.81793   0.46079   0.04436   0.00000  Uiso   1.00
C422   C     0.79746   0.42699   0.47336   0.00000  Uiso   1.00
C423   C     0.79885   0.42465   0.01981   0.00000  Uiso   1.00
C424   C     0.84299   0.58289   0.02603   0.00000  Uiso   1.00
C425   C     0.88743   0.56595   0.38984   0.00000  Uiso   1.00
C426   C     0.92386   0.53554   0.37438   0.00000  Uiso   1.00
C427   C     0.95993   0.56384   0.35689   0.00000  Uiso   1.00
C428   C     0.84648   0.41178   0.10648   0.00000  Uiso   1.00
C429   C     0.89283   0.41409   0.11953   0.00000  Uiso   1.00
C430   C     0.90722   0.36962   0.14004   0.00000  Uiso   1.00
C431   C     0.77577   0.38751   0.04194   0.00000  Uiso   1.00
C432   C     0.84495   0.62937   0.45792   0.00000  Uiso   1.00
C433   C     0.84464   0.58427   0.47952   0.00000  Uiso   1.00
C434   C     0.68799   0.46006   0.26023   0.00000  Uiso   1.00
C435   C     0.97863   0.53994   0.23963   0.00000  Uiso   1.00
C436   C     0.97869   0.46003   0.26011   0.00000  Uiso   1.00
C437   C     0.68793   0.53999   0.23983   0.00000  Uiso   1.00
C438   C     0.95751   0.49997   0.24980   0.00000  Uiso   1.00
H439   H     0.80135   0.43746   0.38680   0.00000  Uiso   1.00
H440   H     0.78068   0.62363   0.20755   0.00000  Uiso   1.00
H441   H     0.78072   0.37489   0.20751   0.00000  Uiso   1.00
H442   H     0.88646   0.62517   0.29170   0.00000  Uiso   1.00
H443   H     0.94960   0.58414   0.32802   0.00000  Uiso   1.00
H444   H     0.97197   0.58707   0.38350   0.00000  Uiso   1.00
H445   H     0.98556   0.54096   0.34583   0.00000  Uiso   1.00
H446   H     0.93509   0.51520   0.40290   0.00000  Uiso   1.00
H447   H     0.91404   0.51160   0.34744   0.00000  Uiso   1.00
H448   H     0.87617   0.58734   0.36229   0.00000  Uiso   1.00
H449   H     0.90101   0.58931   0.41529   0.00000  Uiso   1.00
H450   H     0.84162   0.57151   0.11224   0.00000  Uiso   1.00
H451   H     0.88943   0.36295   0.17096   0.00000  Uiso   1.00
H452   H     0.90271   0.34082   0.11604   0.00000  Uiso   1.00
H453   H     0.94079   0.37201   0.14864   0.00000  Uiso   1.00
H454   H     0.91168   0.42056   0.08924   0.00000  Uiso   1.00
H455   H     0.89916   0.44213   0.14379   0.00000  Uiso   1.00
H456   H     0.82688   0.39958   0.13421   0.00000  Uiso   1.00
H457   H     0.84497   0.38485   0.08023   0.00000  Uiso   1.00
H458   H     0.76831   0.39024   0.07715   0.00000  Uiso   1.00
H459   H     0.83585   0.63235   0.42323   0.00000  Uiso   1.00
H460   H     0.78424   0.39915   0.45381   0.00000  Uiso   1.00
H461   H     0.84697   0.61388   0.04574   0.00000  Uiso   1.00
H462   H     0.70429   0.42907   0.26852   0.00000  Uiso   1.00
H463   H     0.96233   0.57094   0.23140   0.00000  Uiso   1.00
H464   H     0.96244   0.42903   0.26836   0.00000  Uiso   1.00
H465   H     0.70417   0.57102   0.23166   0.00000  Uiso   1.00
H466   H     0.88622   0.37637   0.29210   0.00000  Uiso   1.00
N467   N     0.83333   0.61907   0.25000   0.00000  Uiso   1.00
N468   N     0.83333   0.38093   0.25000   0.00000  Uiso   1.00
O469   O     0.77226   0.53821   0.24999   0.00000  Uiso   1.00
O470   O     0.85501   0.66375   0.47867   0.00000  Uiso   1.00
O471   O     0.89441   0.46179   0.25000   0.00000  Uiso   1.00
O472   O     0.89441   0.53821   0.25000   0.00000  Uiso   1.00
O473   O     0.77226   0.46179   0.24999   0.00000  Uiso   1.00
O474   O     0.83333   0.53823   0.18392   0.00000  Uiso   1.00
O475   O     0.83334   0.46177   0.31607   0.00000  Uiso   1.00
O476   O     0.83334   0.53823   0.31607   0.00000  Uiso   1.00
O477   O     0.83333   0.46177   0.18392   0.00000  Uiso   1.00
O478   O     0.76437   0.35373   0.02104   0.00000  Uiso   1.00
Zn479  Zn    0.83333   0.55104   0.25000   0.00000  Uiso   1.00
Zn480  Zn    0.83333   0.44896   0.25000   0.00000  Uiso   1.00
C481   C     0.08659   0.83335   0.25004   0.00000  Uiso   1.00
C482   C     0.04245   0.83337   0.25007   0.00000  Uiso   1.00
C483   C     0.19608   0.69111   0.27340   0.00000  Uiso   1.00
C484   C     0.13738   0.97557   0.22641   0.00000  Uiso   1.00
C485   C     0.13739   0.69028   0.22639   0.00000  Uiso   1.00
C486   C     0.19614   0.97641   0.27330   0.00000  Uiso   1.00
C487   C     0.16763   0.83276   0.16303   0.00000  Uiso   1.00
C488   C     0.16741   0.83379   0.33671   0.00000  Uiso   1.00
C489   C     0.18492   0.87162   0.40926   0.00000  Uiso   1.00
C490   C     0.16366   0.79062   0.08927   0.00000  Uiso   1.00
C491   C     0.16710   0.83498   0.38469   0.00000  Uiso   1.00
C492   C     0.24673   0.83332   0.24983   0.00000  Uiso   1.00
C493   C     0.16759   0.83173   0.11459   0.00000  Uiso   1.00
C494   C     0.14758   0.79910   0.40598   0.00000  Uiso   1.00
C495   C     0.17024   0.87352   0.09326   0.00000  Uiso   1.00
C496   C     0.14636   0.79839   0.45186   0.00000  Uiso   1.00
C497   C     0.16931   0.87514   0.04738   0.00000  Uiso   1.00
C498   C     0.15944   0.83696   0.47640   0.00000  Uiso   1.00
C499   C     0.15947   0.83556   0.02275   0.00000  Uiso   1.00
C500   C     0.17405   0.87625   0.45464   0.00000  Uiso   1.00
C501   C     0.15126   0.79413   0.04436   0.00000  Uiso   1.00
C502   C     0.13080   0.76032   0.47336   0.00000  Uiso   1.00
C503   C     0.13219   0.75798   0.01981   0.00000  Uiso   1.00
C504   C     0.17632   0.91622   0.02603   0.00000  Uiso   1.00
C505   C     0.22077   0.89928   0.38984   0.00000  Uiso   1.00
C506   C     0.25719   0.86887   0.37438   0.00000  Uiso   1.00
C507   C     0.29326   0.89717   0.35689   0.00000  Uiso   1.00
C508   C     0.17982   0.74512   0.10648   0.00000  Uiso   1.00
C509   C     0.22616   0.74742   0.11953   0.00000  Uiso   1.00
C510   C     0.24055   0.70295   0.14004   0.00000  Uiso   1.00
C511   C     0.10911   0.72084   0.04194   0.00000  Uiso   1.00
C512   C     0.17828   0.96271   0.45792   0.00000  Uiso   1.00
C513   C     0.17798   0.91761   0.47952   0.00000  Uiso   1.00
C514   C     0.02132   0.79339   0.26023   0.00000  Uiso   1.00
C515   C     0.31196   0.87327   0.23963   0.00000  Uiso   1.00
C516   C     0.31202   0.79336   0.26011   0.00000  Uiso   1.00
C517   C     0.02126   0.87333   0.23983   0.00000  Uiso   1.00
C518   C     0.29084   0.83330   0.24980   0.00000  Uiso   1.00
H519   H     0.13468   0.77079   0.38680   0.00000  Uiso   1.00
H520   H     0.11402   0.95697   0.20755   0.00000  Uiso   1.00
H521   H     0.11405   0.70822   0.20751   0.00000  Uiso   1.00
H522   H     0.21980   0.95851   0.29170   0.00000  Uiso   1.00
H523   H     0.28294   0.91748   0.32802   0.00000  Uiso   1.00
H524   H     0.30530   0.92041   0.38350   0.00000  Uiso   1.00
H525   H     0.31889   0.87429   0.34583   0.00000  Uiso   1.00
H526   H     0.26842   0.84853   0.40290   0.00000  Uiso   1.00
H527   H     0.24737   0.84494   0.34744   0.00000  Uiso   1.00
H528   H     0.20951   0.92068   0.36229   0.00000  Uiso   1.00
H529   H     0.23434   0.92265   0.41529   0.00000  Uiso   1.00
H530   H     0.17496   0.90484   0.11224   0.00000  Uiso   1.00
H531   H     0.22276   0.69628   0.17096   0.00000  Uiso   1.00
H532   H     0.23604   0.67416   0.11604   0.00000  Uiso   1.00
H533   H     0.27412   0.70534   0.14864   0.00000  Uiso   1.00
H534   H     0.24502   0.75390   0.08924   0.00000  Uiso   1.00
H535   H     0.23249   0.77546   0.14379   0.00000  Uiso   1.00
H536   H     0.16021   0.73291   0.13421   0.00000  Uiso   1.00
H537   H     0.17830   0.71819   0.08023   0.00000  Uiso   1.00
H538   H     0.10165   0.72357   0.07715   0.00000  Uiso   1.00
H539   H     0.16918   0.96568   0.42323   0.00000  Uiso   1.00
H540   H     0.11758   0.73248   0.45381   0.00000  Uiso   1.00
H541   H     0.18030   0.94721   0.04574   0.00000  Uiso   1.00
H542   H     0.03762   0.76240   0.26852   0.00000  Uiso   1.00
H543   H     0.29566   0.90428   0.23140   0.00000  Uiso   1.00
H544   H     0.29577   0.76237   0.26836   0.00000  Uiso   1.00
H545   H     0.03751   0.90435   0.23166   0.00000  Uiso   1.00
H546   H     0.21955   0.70971   0.29210   0.00000  Uiso   1.00
N547   N     0.16667   0.95240   0.25000   0.00000  Uiso   1.00
N548   N     0.16667   0.71427   0.25000   0.00000  Uiso   1.00
O549   O     0.10559   0.87154   0.24999   0.00000  Uiso   1.00
O550   O     0.18834   0.99708   0.47867   0.00000  Uiso   1.00
O551   O     0.22774   0.79513   0.25000   0.00000  Uiso   1.00
O552   O     0.22774   0.87154   0.25000   0.00000  Uiso   1.00
O553   O     0.10559   0.79513   0.24999   0.00000  Uiso   1.00
O554   O     0.16666   0.87156   0.18392   0.00000  Uiso   1.00
O555   O     0.16667   0.79511   0.31607   0.00000  Uiso   1.00
O556   O     0.16667   0.87156   0.31607   0.00000  Uiso   1.00
O557   O     0.16666   0.79511   0.18392   0.00000  Uiso   1.00
O558   O     0.09770   0.68706   0.02104   0.00000  Uiso   1.00
Zn559  Zn    0.16667   0.88437   0.25000   0.00000  Uiso   1.00
Zn560  Zn    0.16667   0.78229   0.25000   0.00000  Uiso   1.00
C561   C     0.41992   0.83335   0.25004   0.00000  Uiso   1.00
C562   C     0.37579   0.83337   0.25007   0.00000  Uiso   1.00
C563   C     0.52941   0.69111   0.27340   0.00000  Uiso   1.00
C564   C     0.47071   0.97557   0.22641   0.00000  Uiso   1.00
C565   C     0.47072   0.69028   0.22639   0.00000  Uiso   1.00
C566   C     0.52947   0.97641   0.27330   0.00000  Uiso   1.00
C567   C     0.50096   0.83276   0.16303   0.00000  Uiso   1.00
C568   C     0.50074   0.83379   0.33671   0.00000  Uiso   1.00
C569   C     0.51826   0.87162   0.40926   0.00000  Uiso   1.00
C570   C     0.49699   0.79062   0.08927   0.00000  Uiso   1.00
C571   C     0.50043   0.83498   0.38469   0.00000  Uiso   1.00
C572   C     0.58007   0.83332   0.24983   0.00000  Uiso   1.00
C573   C     0.50092   0.83173   0.11459   0.00000  Uiso   1.00
C574   C     0.48091   0.79910   0.40598   0.00000  Uiso   1.00
C575   C     0.50357   0.87352   0.09326   0.00000  Uiso   1.00
C576   C     0.47969   0.79839   0.45186   0.00000  Uiso   1.00
C577   C     0.50265   0.87514   0.04738   0.00000  Uiso   1.00
C578   C     0.49278   0.83696   0.47640   0.00000  Uiso   1.00
C579   C     0.49281   0.83556   0.02275   0.00000  Uiso   1.00
C580   C     0.50738   0.87625   0.45464   0.00000  Uiso   1.00
C581   C     0.48460   0.79413   0.04436   0.00000  Uiso   1.00
C582   C     0.46413   0.76032   0.47336   0.00000  Uiso   1.00
C583   C     0.46552   0.75798   0.01981   0.00000  Uiso   1.00
C584   C     0.50966   0.91622   0.02603   0.00000  Uiso   1.00
C585   C     0.55410   0.89928   0.38984   0.00000  Uiso   1.00
C586   C     0.59052   0.86887   0.37438   0.00000  Uiso   1.00
C587   C     0.62660   0.89717   0.35689   0.00000  Uiso   1.00
C588   C     0.51315   0.74512   0.10648   0.00000  Uiso   1.00
C589   C     0.55949   0.74742   0.11953   0.00000  Uiso   1.00
C590   C     0.57389   0.70295   0.14004   0.00000  Uiso   1.00
C591   C     0.44244   0.72084   0.04194   0.00000  Uiso   1.00
C592   C     0.51162   0.96271   0.45792   0.00000  Uiso   1.00
C593   C     0.51131   0.91761   0.47952   0.00000  Uiso   1.00
C594   C     0.35466   0.79339   0.26023   0.00000  Uiso   1.00
C595   C     0.64530   0.87327   0.23963   0.00000  Uiso   1.00
C596   C     0.64536   0.79336   0.26011   0.00000  Uiso   1.00
C597   C     0.35460   0.87333   0.23983   0.00000  Uiso   1.00
C598   C     0.62418   0.83330   0.24980   0.00000  Uiso   1.00
H599   H     0.46801   0.77079   0.38680   0.00000  Uiso   1.00
H600   H     0.44735   0.95697   0.20755   0.00000  Uiso   1.00
H601   H     0.44739   0.70822   0.20751   0.00000  Uiso   1.00
H602   H     0.55313   0.95851   0.29170   0.00000  Uiso   1.00
H603   H     0.61627   0.91748   0.32802   0.00000  Uiso   1.00
H604   H     0.63864   0.92041   0.38350   0.00000  Uiso   1.00
H605   H     0.65223   0.87429   0.34583   0.00000  Uiso   1.00
H606   H     0.60176   0.84853   0.40290   0.00000  Uiso   1.00
H607   H     0.58071   0.84494   0.34744   0.00000  Uiso   1.00
H608   H     0.54284   0.92068   0.36229   0.00000  Uiso   1.00
H609   H     0.56768   0.92265   0.41529   0.00000  Uiso   1.00
H610   H     0.50829   0.90484   0.11224   0.00000  Uiso   1.00
H611   H     0.55610   0.69628   0.17096   0.00000  Uiso   1.00
H612   H     0.56937   0.67416   0.11604   0.00000  Uiso   1.00
H613   H     0.60745   0.70534   0.14864   0.00000  Uiso   1.00
H614   H     0.57835   0.75390   0.08924   0.00000  Uiso   1.00
H615   H     0.56582   0.77546   0.14379   0.00000  Uiso   1.00
H616   H     0.49355   0.73291   0.13421   0.00000  Uiso   1.00
H617   H     0.51164   0.71819   0.08023   0.00000  Uiso   1.00
H618   H     0.43498   0.72357   0.07715   0.00000  Uiso   1.00
H619   H     0.50251   0.96568   0.42323   0.00000  Uiso   1.00
H620   H     0.45091   0.73248   0.45381   0.00000  Uiso   1.00
H621   H     0.51363   0.94721   0.04574   0.00000  Uiso   1.00
H622   H     0.37095   0.76240   0.26852   0.00000  Uiso   1.00
H623   H     0.62899   0.90428   0.23140   0.00000  Uiso   1.00
H624   H     0.62911   0.76237   0.26836   0.00000  Uiso   1.00
H625   H     0.37084   0.90435   0.23166   0.00000  Uiso   1.00
H626   H     0.55289   0.70971   0.29210   0.00000  Uiso   1.00
N627   N     0.50000   0.95240   0.25000   0.00000  Uiso   1.00
N628   N     0.50000   0.71427   0.25000   0.00000  Uiso   1.00
O629   O     0.43892   0.87154   0.24999   0.00000  Uiso   1.00
O630   O     0.52167   0.99708   0.47867   0.00000  Uiso   1.00
O631   O     0.56108   0.79513   0.25000   0.00000  Uiso   1.00
O632   O     0.56108   0.87154   0.25000   0.00000  Uiso   1.00
O633   O     0.43892   0.79513   0.24999   0.00000  Uiso   1.00
O634   O     0.49999   0.87156   0.18392   0.00000  Uiso   1.00
O635   O     0.50001   0.79511   0.31607   0.00000  Uiso   1.00
O636   O     0.50001   0.87156   0.31607   0.00000  Uiso   1.00
O637   O     0.49999   0.79511   0.18392   0.00000  Uiso   1.00
O638   O     0.43103   0.68706   0.02104   0.00000  Uiso   1.00
Zn639  Zn    0.50000   0.88437   0.25000   0.00000  Uiso   1.00
Zn640  Zn    0.50000   0.78229   0.25000   0.00000  Uiso   1.00
C641   C     0.75326   0.83335   0.25004   0.00000  Uiso   1.00
C642   C     0.70912   0.83337   0.25007   0.00000  Uiso   1.00
C643   C     0.86275   0.69111   0.27340   0.00000  Uiso   1.00
C644   C     0.80404   0.97557   0.22641   0.00000  Uiso   1.00
C645   C     0.80406   0.69028   0.22639   0.00000  Uiso   1.00
C646   C     0.86281   0.97641   0.27330   0.00000  Uiso   1.00
C647   C     0.83429   0.83276   0.16303   0.00000  Uiso   1.00
C648   C     0.83408   0.83379   0.33671   0.00000  Uiso   1.00
C649   C     0.85159   0.87162   0.40926   0.00000  Uiso   1.00
C650   C     0.83033   0.79062   0.08927   0.00000  Uiso   1.00
C651   C     0.83377   0.83498   0.38469   0.00000  Uiso   1.00
C652   C     0.91340   0.83332   0.24983   0.00000  Uiso   1.00
C653   C     0.83426   0.83173   0.11459   0.00000  Uiso   1.00
C654   C     0.81424   0.79910   0.40598   0.00000  Uiso   1.00
C655   C     0.83690   0.87352   0.09326   0.00000  Uiso   1.00
C656   C     0.81303   0.79839   0.45186   0.00000  Uiso   1.00
C657   C     0.83598   0.87514   0.04738   0.00000  Uiso   1.00
C658   C     0.82611   0.83696   0.47640   0.00000  Uiso   1.00
C659   C     0.82614   0.83556   0.02275   0.00000  Uiso   1.00
C660   C     0.84071   0.87625   0.45464   0.00000  Uiso   1.00
C661   C     0.81793   0.79413   0.04436   0.00000  Uiso   1.00
C662   C     0.79746   0.76032   0.47336   0.00000  Uiso   1.00
C663   C     0.79885   0.75798   0.01981   0.00000  Uiso   1.00
C664   C     0.84299   0.91622   0.02603   0.00000  Uiso   1.00
C665   C     0.88743   0.89928   0.38984   0.00000  Uiso   1.00
C666   C     0.92386   0.86887   0.37438   0.00000  Uiso   1.00
C667   C     0.95993   0.89717   0.35689   0.00000  Uiso   1.00
C668   C     0.84648   0.74512   0.10648   0.00000  Uiso   1.00
C669   C     0.89283   0.74742   0.11953   0.00000  Uiso   1.00
C670   C     0.90722   0.70295   0.14004   0.00000  Uiso   1.00
C671   C     0.77577   0.72084   0.04194   0.00000  Uiso   1.00
C672   C     0.84495   0.96271   0.45792   0.00000  Uiso   1.00
C673   C     0.84464   0.91761   0.47952   0.00000  Uiso   1.00
C674   C     0.68799   0.79339   0.26023   0.00000  Uiso   1.00
C675   C     0.97863   0.87327   0.23963   0.00000  Uiso   1.00
C676   C     0.97869   0.79336   0.26011   0.00000  Uiso   1.00
C677   C     0.68793   0.87333   0.23983   0.00000  Uiso   1.00
C678   C     0.95751   0.83330   0.24980   0.00000  Uiso   1.00
H679   H     0.80135   0.77079   0.38680   0.00000  Uiso   1.00
H680   H     0.78068   0.95697   0.20755   0.00000  Uiso   1.00
H681   H     0.78072   0.70822   0.20751   0.00000  Uiso   1.00
H682   H     0.88646   0.95851   0.29170   0.00000  Uiso   1.00
H683   H     0.94960   0.91748   0.32802   0.00000  Uiso   1.00
H684   H     0.97197   0.92041   0.38350   0.00000  Uiso   1.00
H685   H     0.98556   0.87429   0.34583   0.00000  Uiso   1.00
H686   H     0.93509   0.84853   0.40290   0.00000  Uiso   1.00
H687   H     0.91404   0.84494   0.34744   0.00000  Uiso   1.00
H688   H     0.87617   0.92068   0.36229   0.00000  Uiso   1.00
H689   H     0.90101   0.92265   0.41529   0.00000  Uiso   1.00
H690   H     0.84162   0.90484   0.11224   0.00000  Uiso   1.00
H691   H     0.88943   0.69628   0.17096   0.00000  Uiso   1.00
H692   H     0.90271   0.67416   0.11604   0.00000  Uiso   1.00
H693   H     0.94079   0.70534   0.14864   0.00000  Uiso   1.00
H694   H     0.91168   0.75390   0.08924   0.00000  Uiso   1.00
H695   H     0.89916   0.77546   0.14379   0.00000  Uiso   1.00
H696   H     0.82688   0.73291   0.13421   0.00000  Uiso   1.00
H697   H     0.84497   0.71819   0.08023   0.00000  Uiso   1.00
H698   H     0.76831   0.72357   0.07715   0.00000  Uiso   1.00
H699   H     0.83585   0.96568   0.42323   0.00000  Uiso   1.00
H700   H     0.78424   0.73248   0.45381   0.00000  Uiso   1.00
H701   H     0.84697   0.94721   0.04574   0.00000  Uiso   1.00
H702   H     0.70429   0.76240   0.26852   0.00000  Uiso   1.00
H703   H     0.96233   0.90428   0.23140   0.00000  Uiso   1.00
H704   H     0.96244   0.76237   0.26836   0.00000  Uiso   1.00
H705   H     0.70417   0.90435   0.23166   0.00000  Uiso   1.00
H706   H     0.88622   0.70971   0.29210   0.00000  Uiso   1.00
N707   N     0.83333   0.95240   0.25000   0.00000  Uiso   1.00
N708   N     0.83333   0.71427   0.25000   0.00000  Uiso   1.00
O709   O     0.77226   0.87154   0.24999   0.00000  Uiso   1.00
O710   O     0.85501   0.99708   0.47867   0.00000  Uiso   1.00
O711   O     0.89441   0.79513   0.25000   0.00000  Uiso   1.00
O712   O     0.89441   0.87154   0.25000   0.00000  Uiso   1.00
O713   O     0.77226   0.79513   0.24999   0.00000  Uiso   1.00
O714   O     0.83333   0.87156   0.18392   0.00000  Uiso   1.00
O715   O     0.83334   0.79511   0.31607   0.00000  Uiso   1.00
O716   O     0.83334   0.87156   0.31607   0.00000  Uiso   1.00
O717   O     0.83333   0.79511   0.18392   0.00000  Uiso   1.00
O718   O     0.76437   0.68706   0.02104   0.00000  Uiso   1.00
Zn719  Zn    0.83333   0.88437   0.25000   0.00000  Uiso   1.00
Zn720  Zn    0.83333   0.78229   0.25000   0.00000  Uiso   1.00
C721   C     0.08659   0.16668   0.75004   0.00000  Uiso   1.00
C722   C     0.04245   0.16670   0.75007   0.00000  Uiso   1.00
C723   C     0.19608   0.02444   0.77340   0.00000  Uiso   1.00
C724   C     0.13738   0.30890   0.72641   0.00000  Uiso   1.00
C725   C     0.13739   0.02361   0.72639   0.00000  Uiso   1.00
C726   C     0.19614   0.30974   0.77330   0.00000  Uiso   1.00
C727   C     0.16763   0.16609   0.66303   0.00000  Uiso   1.00
C728   C     0.16741   0.16713   0.83671   0.00000  Uiso   1.00
C729   C     0.18492   0.20495   0.90926   0.00000  Uiso   1.00
C730   C     0.16366   0.12396   0.58927   0.00000  Uiso   1.00
C731   C     0.16710   0.16832   0.88469   0.00000  Uiso   1.00
C732   C     0.24673   0.16665   0.74983   0.00000  Uiso   1.00
C733   C     0.16759   0.16507   0.61459   0.00000  Uiso   1.00
C734   C     0.14758   0.13243   0.90598   0.00000  Uiso   1.00
C735   C     0.17024   0.20685   0.59326   0.00000  Uiso   1.00
C736   C     0.14636   0.13173   0.95186   0.00000  Uiso   1.00
C737   C     0.16931   0.20847   0.54738   0.00000  Uiso   1.00
C738   C     0.15944   0.17029   0.97640   0.00000  Uiso   1.00
C739   C     0.15947   0.16890   0.52275   0.00000  Uiso   1.00
C740   C     0.17405   0.20958   0.95464   0.00000  Uiso   1.00
C741   C     0.15126   0.12746   0.54436   0.00000  Uiso   1.00
C742   C     0.13080   0.09366   0.97336   0.00000  Uiso   1.00
C743   C     0.13219   0.09131   0.51981   0.00000  Uiso   1.00
C744   C     0.17632   0.24956   0.52603   0.00000  Uiso   1.00
C745   C     0.22077   0.23262   0.88984   0.00000  Uiso   1.00
C746   C     0.25719   0.20221   0.87438   0.00000  Uiso   1.00
C747   C     0.29326   0.23050   0.85689   0.00000  Uiso   1.00
C748   C     0.17982   0.07845   0.60648   0.00000  Uiso   1.00
C749   C     0.22616   0.08076   0.61953   0.00000  Uiso   1.00
C750   C     0.24055   0.03629   0.64004   0.00000  Uiso   1.00
C751   C     0.10911   0.05418   0.54194   0.00000  Uiso   1.00
C752   C     0.17828   0.29604   0.95792   0.00000  Uiso   1.00
C753   C     0.17798   0.25094   0.97952   0.00000  Uiso   1.00
C754   C     0.02132   0.12673   0.76023   0.00000  Uiso   1.00
C755   C     0.31196   0.20661   0.73963   0.00000  Uiso   1.00
C756   C     0.31202   0.12670   0.76011   0.00000  Uiso   1.00
C757   C     0.02126   0.20666   0.73983   0.00000  Uiso   1.00
C758   C     0.29084   0.16663   0.74980   0.00000  Uiso   1.00
H759   H     0.13468   0.10412   0.88680   0.00000  Uiso   1.00
H760   H     0.11402   0.29030   0.70755   0.00000  Uiso   1.00
H761   H     0.11405   0.04155   0.70751   0.00000  Uiso   1.00
H762   H     0.21980   0.29184   0.79170   0.00000  Uiso   1.00
H763   H     0.28294   0.25081   0.82802   0.00000  Uiso   1.00
H764   H     0.30530   0.25374   0.88350   0.00000  Uiso   1.00
H765   H     0.31889   0.20762   0.84583   0.00000  Uiso   1.00
H766   H     0.26842   0.18186   0.90290   0.00000  Uiso   1.00
H767   H     0.24737   0.17827   0.84744   0.00000  Uiso   1.00
H768   H     0.20951   0.25401   0.86229   0.00000  Uiso   1.00
H769   H     0.23434   0.25598   0.91529   0.00000  Uiso   1.00
H770   H     0.17496   0.23817   0.61224   0.00000  Uiso   1.00
H771   H     0.22276   0.02961   0.67096   0.00000  Uiso   1.00
H772   H     0.23604   0.00749   0.61604   0.00000  Uiso   1.00
H773   H     0.27412   0.03867   0.64864   0.00000  Uiso   1.00
H774   H     0.24502   0.08723   0.58924   0.00000  Uiso   1.00
H775   H     0.23249   0.10879   0.64379   0.00000  Uiso   1.00
H776   H     0.16021   0.06625   0.63421   0.00000  Uiso   1.00
H777   H     0.17830   0.05152   0.58023   0.00000  Uiso   1.00
H778   H     0.10165   0.05690   0.57715   0.00000  Uiso   1.00
H779   H     0.16918   0.29902   0.92323   0.00000  Uiso   1.00
H780   H     0.11758   0.06582   0.95381   0.00000  Uiso   1.00
H781   H     0.18030   0.28055   0.54574   0.00000  Uiso   1.00
H782   H     0.03762   0.09573   0.76852   0.00000  Uiso   1.00
H783   H     0.29566   0.23761   0.73140   0.00000  Uiso   1.00
H784   H     0.29577   0.09570   0.76836   0.00000  Uiso   1.00
H785   H     0.03751   0.23768   0.73166   0.00000  Uiso   1.00
H786   H     0.21955   0.04304   0.79210   0.00000  Uiso   1.00
N787   N     0.16667   0.28573   0.75000   0.00000  Uiso   1.00
N788   N     0.16667   0.04760   0.75000   0.00000  Uiso   1.00
O789   O     0.10559   0.20487   0.74999   0.00000  Uiso   1.00
O790   O     0.18834   0.33042   0.97867   0.00000  Uiso   1.00
O791   O     0.22774   0.12846   0.75000   0.00000  Uiso   1.00
O792   O     0.22774   0.20487   0.75000   0.00000  Uiso   1.00
O793   O     0.10559   0.12846   0.74999   0.00000  Uiso   1.00
O794   O     0.16666   0.20489   0.68392   0.00000  Uiso   1.00
O795   O     0.16667   0.12844   0.81607   0.00000  Uiso   1.00
O796   O     0.16667   0.20489   0.81607   0.00000  Uiso   1.00
O797   O     0.16666   0.12844   0.68392   0.00000  Uiso   1.00
O798   O     0.09770   0.02040   0.52104   0.00000  Uiso   1.00
Zn799  Zn    0.16667   0.21771   0.75000   0.00000  Uiso   1.00
Zn800  Zn    0.16667   0.11563   0.75000   0.00000  Uiso   1.00
C801   C     0.41992   0.16668   0.75004   0.00000  Uiso   1.00
C802   C     0.37579   0.16670   0.75007   0.00000  Uiso   1.00
C803   C     0.52941   0.02444   0.77340   0.00000  Uiso   1.00
C804   C     0.47071   0.30890   0.72641   0.00000  Uiso   1.00
C805   C     0.47072   0.02361   0.72639   0.00000  Uiso   1.00
C806   C     0.52947   0.30974   0.77330   0.00000  Uiso   1.00
C807   C     0.50096   0.16609   0.66303   0.00000  Uiso   1.00
C808   C     0.50074   0.16713   0.83671   0.00000  Uiso   1.00
C809   C     0.51826   0.20495   0.90926   0.00000  Uiso   1.00
C810   C     0.49699   0.12396   0.58927   0.00000  Uiso   1.00
C811   C     0.50043   0.16832   0.88469   0.00000  Uiso   1.00
C812   C     0.58007   0.16665   0.74983   0.00000  Uiso   1.00
C813   C     0.50092   0.16507   0.61459   0.00000  Uiso   1.00
C814   C     0.48091   0.13243   0.90598   0.00000  Uiso   1.00
C815   C     0.50357   0.20685   0.59326   0.00000  Uiso   1.00
C816   C     0.47969   0.13173   0.95186   0.00000  Uiso   1.00
C817   C     0.50265   0.20847   0.54738   0.00000  Uiso   1.00
C818   C     0.49278   0.17029   0.97640   0.00000  Uiso   1.00
C819   C     0.49281   0.16890   0.52275   0.00000  Uiso   1.00
C820   C     0.50738   0.20958   0.95464   0.00000  Uiso   1.00
C821   C     0.48460   0.12746   0.54436   0.00000  Uiso   1.00
C822   C     0.46413   0.09366   0.97336   0.00000  Uiso   1.00
C823   C     0.46552   0.09131   0.51981   0.00000  Uiso   1.00
C824   C     0.50966   0.24956   0.52603   0.00000  Uiso   1.00
C825   C     0.55410   0.23262   0.88984   0.00000  Uiso   1.00
C826   C     0.59052   0.20221   0.87438   0.00000  Uiso   1.00
C827   C     0.62660   0.23050   0.85689   0.00000  Uiso   1.00
C828   C     0.51315   0.07845   0.60648   0.00000  Uiso   1.00
C829   C     0.55949   0.08076   0.61953   0.00000  Uiso   1.00
C830   C     0.57389   0.03629   0.64004   0.00000  Uiso   1.00
C831   C     0.44244   0.05418   0.54194   0.00000  Uiso   1.00
C832   C     0.51162   0.29604   0.95792   0.00000  Uiso   1.00
C833   C     0.51131   0.25094   0.97952   0.00000  Uiso   1.00
C834   C     0.35466   0.12673   0.76023   0.00000  Uiso   1.00
C835   C     0.64530   0.20661   0.73963   0.00000  Uiso   1.00
C836   C     0.64536   0.12670   0.76011   0.00000  Uiso   1.00
C837   C     0.35460   0.20666   0.73983   0.00000  Uiso   1.00
C838   C     0.62418   0.16663   0.74980   0.00000  Uiso   1.00
H839   H     0.46801   0.10412   0.88680   0.00000  Uiso   1.00
H840   H     0.44735   0.29030   0.70755   0.00000  Uiso   1.00
H841   H     0.44739   0.04155   0.70751   0.00000  Uiso   1.00
H842   H     0.55313   0.29184   0.79170   0.00000  Uiso   1.00
H843   H     0.61627   0.25081   0.82802   0.00000  Uiso   1.00
H844   H     0.63864   0.25374   0.88350   0.00000  Uiso   1.00
H845   H     0.65223   0.20762   0.84583   0.00000  Uiso   1.00
H846   H     0.60176   0.18186   0.90290   0.00000  Uiso   1.00
H847   H     0.58071   0.17827   0.84744   0.00000  Uiso   1.00
H848   H     0.54284   0.25401   0.86229   0.00000  Uiso   1.00
H849   H     0.56768   0.25598   0.91529   0.00000  Uiso   1.00
H850   H     0.50829   0.23817   0.61224   0.00000  Uiso   1.00
H851   H     0.55610   0.02961   0.67096   0.00000  Uiso   1.00
H852   H     0.56937   0.00749   0.61604   0.00000  Uiso   1.00
H853   H     0.60745   0.03867   0.64864   0.00000  Uiso   1.00
H854   H     0.57835   0.08723   0.58924   0.00000  Uiso   1.00
H855   H     0.56582   0.10879   0.64379   0.00000  Uiso   1.00
H856   H     0.49355   0.06625   0.63421   0.00000  Uiso   1.00
H857   H     0.51164   0.05152   0.58023   0.00000  Uiso   1.00
H858   H     0.43498   0.05690   0.57715   0.00000  Uiso   1.00
H859   H     0.50251   0.29902   0.92323   0.00000  Uiso   1.00
H860   H     0.45091   0.06582   0.95381   0.00000  Uiso   1.00
H861   H     0.51363   0.28055   0.54574   0.00000  Uiso   1.00
H862   H     0.37095   0.09573   0.76852   0.00000  Uiso   1.00
H863   H     0.62899   0.23761   0.73140   0.00000  Uiso   1.00
H864   H     0.62911   0.09570   0.76836   0.00000  Uiso   1.00
H865   H     0.37084   0.23768   0.73166   0.00000  Uiso   1.00
H866   H     0.55289   0.04304   0.79210   0.00000  Uiso   1.00
N867   N     0.50000   0.28573   0.75000   0.00000  Uiso   1.00
N868   N     0.50000   0.04760   0.75000   0.00000  Uiso   1.00
O869   O     0.43892   0.20487   0.74999   0.00000  Uiso   1.00
O870   O     0.52167   0.33042   0.97867   0.00000  Uiso   1.00
O871   O     0.56108   0.12846   0.75000   0.00000  Uiso   1.00
O872   O     0.56108   0.20487   0.75000   0.00000  Uiso   1.00
O873   O     0.43892   0.12846   0.74999   0.00000  Uiso   1.00
O874   O     0.49999   0.20489   0.68392   0.00000  Uiso   1.00
O875   O     0.50001   0.12844   0.81607   0.00000  Uiso   1.00
O876   O     0.50001   0.20489   0.81607   0.00000  Uiso   1.00
O877   O     0.49999   0.12844   0.68392   0.00000  Uiso   1.00
O878   O     0.43103   0.02040   0.52104   0.00000  Uiso   1.00
Zn879  Zn    0.50000   0.21771   0.75000   0.00000  Uiso   1.00
Zn880  Zn    0.50000   0.11563   0.75000   0.00000  Uiso   1.00
C881   C     0.75326   0.16668   0.75004   0.00000  Uiso   1.00
C882   C     0.70912   0.16670   0.75007   0.00000  Uiso   1.00
C883   C     0.86275   0.02444   0.77340   0.00000  Uiso   1.00
C884   C     0.80404   0.30890   0.72641   0.00000  Uiso   1.00
C885   C     0.80406   0.02361   0.72639   0.00000  Uiso   1.00
C886   C     0.86281   0.30974   0.77330   0.00000  Uiso   1.00
C887   C     0.83429   0.16609   0.66303   0.00000  Uiso   1.00
C888   C     0.83408   0.16713   0.83671   0.00000  Uiso   1.00
C889   C     0.85159   0.20495   0.90926   0.00000  Uiso   1.00
C890   C     0.83033   0.12396   0.58927   0.00000  Uiso   1.00
C891   C     0.83377   0.16832   0.88469   0.00000  Uiso   1.00
C892   C     0.91340   0.16665   0.74983   0.00000  Uiso   1.00
C893   C     0.83426   0.16507   0.61459   0.00000  Uiso   1.00
C894   C     0.81424   0.13243   0.90598   0.00000  Uiso   1.00
C895   C     0.83690   0.20685   0.59326   0.00000  Uiso   1.00
C896   C     0.81303   0.13173   0.95186   0.00000  Uiso   1.00
C897   C     0.83598   0.20847   0.54738   0.00000  Uiso   1.00
C898   C     0.82611   0.17029   0.97640   0.00000  Uiso   1.00
C899   C     0.82614   0.16890   0.52275   0.00000  Uiso   1.00
C900   C     0.84071   0.20958   0.95464   0.00000  Uiso   1.00
C901   C     0.81793   0.12746   0.54436   0.00000  Uiso   1.00
C902   C     0.79746   0.09366   0.97336   0.00000  Uiso   1.00
C903   C     0.79885   0.09131   0.51981   0.00000  Uiso   1.00
C904   C     0.84299   0.24956   0.52603   0.00000  Uiso   1.00
C905   C     0.88743   0.23262   0.88984   0.00000  Uiso   1.00
C906   C     0.92386   0.20221   0.87438   0.00000  Uiso   1.00
C907   C     0.95993   0.23050   0.85689   0.00000  Uiso   1.00
C908   C     0.84648   0.07845   0.60648   0.00000  Uiso   1.00
C909   C     0.89283   0.08076   0.61953   0.00000  Uiso   1.00
C910   C     0.90722   0.03629   0.64004   0.00000  Uiso   1.00
C911   C     0.77577   0.05418   0.54194   0.00000  Uiso   1.00
C912   C     0.84495   0.29604   0.95792   0.00000  Uiso   1.00
C913   C     0.84464   0.25094   0.97952   0.00000  Uiso   1.00
C914   C     0.68799   0.12673   0.76023   0.00000  Uiso   1.00
C915   C     0.97863   0.20661   0.73963   0.00000  Uiso   1.00
C916   C     0.97869   0.12670   0.76011   0.00000  Uiso   1.00
C917   C     0.68793   0.20666   0.73983   0.00000  Uiso   1.00
C918   C     0.95751   0.16663   0.74980   0.00000  Uiso   1.00
H919   H     0.80135   0.10412   0.88680   0.00000  Uiso   1.00
H920   H     0.78068   0.29030   0.70755   0.00000  Uiso   1.00
H921   H     0.78072   0.04155   0.70751   0.00000  Uiso   1.00
H922   H     0.88646   0.29184   0.79170   0.00000  Uiso   1.00
H923   H     0.94960   0.25081   0.82802   0.00000  Uiso   1.00
H924   H     0.97197   0.25374   0.88350   0.00000  Uiso   1.00
H925   H     0.98556   0.20762   0.84583   0.00000  Uiso   1.00
H926   H     0.93509   0.18186   0.90290   0.00000  Uiso   1.00
H927   H     0.91404   0.17827   0.84744   0.00000  Uiso   1.00
H928   H     0.87617   0.25401   0.86229   0.00000  Uiso   1.00
H929   H     0.90101   0.25598   0.91529   0.00000  Uiso   1.00
H930   H     0.84162   0.23817   0.61224   0.00000  Uiso   1.00
H931   H     0.88943   0.02961   0.67096   0.00000  Uiso   1.00
H932   H     0.90271   0.00749   0.61604   0.00000  Uiso   1.00
H933   H     0.94079   0.03867   0.64864   0.00000  Uiso   1.00
H934   H     0.91168   0.08723   0.58924   0.00000  Uiso   1.00
H935   H     0.89916   0.10879   0.64379   0.00000  Uiso   1.00
H936   H     0.82688   0.06625   0.63421   0.00000  Uiso   1.00
H937   H     0.84497   0.05152   0.58023   0.00000  Uiso   1.00
H938   H     0.76831   0.05690   0.57715   0.00000  Uiso   1.00
H939   H     0.83585   0.29902   0.92323   0.00000  Uiso   1.00
H940   H     0.78424   0.06582   0.95381   0.00000  Uiso   1.00
H941   H     0.84697   0.28055   0.54574   0.00000  Uiso   1.00
H942   H     0.70429   0.09573   0.76852   0.00000  Uiso   1.00
H943   H     0.96233   0.23761   0.73140   0.00000  Uiso   1.00
H944   H     0.96244   0.09570   0.76836   0.00000  Uiso   1.00
H945   H     0.70417   0.23768   0.73166   0.00000  Uiso   1.00
H946   H     0.88622   0.04304   0.79210   0.00000  Uiso   1.00
N947   N     0.83333   0.28573   0.75000   0.00000  Uiso   1.00
N948   N     0.83333   0.04760   0.75000   0.00000  Uiso   1.00
O949   O     0.77226   0.20487   0.74999   0.00000  Uiso   1.00
O950   O     0.85501   0.33042   0.97867   0.00000  Uiso   1.00
O951   O     0.89441   0.12846   0.75000   0.00000  Uiso   1.00
O952   O     0.89441   0.20487   0.75000   0.00000  Uiso   1.00
O953   O     0.77226   0.12846   0.74999   0.00000  Uiso   1.00
O954   O     0.83333   0.20489   0.68392   0.00000  Uiso   1.00
O955   O     0.83334   0.12844   0.81607   0.00000  Uiso   1.00
O956   O     0.83334   0.20489   0.81607   0.00000  Uiso   1.00
O957   O     0.83333   0.12844   0.68392   0.00000  Uiso   1.00
O958   O     0.76437   0.02040   0.52104   0.00000  Uiso   1.00
Zn959  Zn    0.83333   0.21771   0.75000   0.00000  Uiso   1.00
Zn960  Zn    0.83333   0.11563   0.75000   0.00000  Uiso   1.00
C961   C     0.08659   0.50001   0.75004   0.00000  Uiso   1.00
C962   C     0.04245   0.50003   0.75007   0.00000  Uiso   1.00
C963   C     0.19608   0.35777   0.77340   0.00000  Uiso   1.00
C964   C     0.13738   0.64223   0.72641   0.00000  Uiso   1.00
C965   C     0.13739   0.35694   0.72639   0.00000  Uiso   1.00
C966   C     0.19614   0.64307   0.77330   0.00000  Uiso   1.00
C967   C     0.16763   0.49943   0.66303   0.00000  Uiso   1.00
C968   C     0.16741   0.50046   0.83671   0.00000  Uiso   1.00
C969   C     0.18492   0.53828   0.90926   0.00000  Uiso   1.00
C970   C     0.16366   0.45729   0.58927   0.00000  Uiso   1.00
C971   C     0.16710   0.50165   0.88469   0.00000  Uiso   1.00
C972   C     0.24673   0.49999   0.74983   0.00000  Uiso   1.00
C973   C     0.16759   0.49840   0.61459   0.00000  Uiso   1.00
C974   C     0.14758   0.46576   0.90598   0.00000  Uiso   1.00
C975   C     0.17024   0.54018   0.59326   0.00000  Uiso   1.00
C976   C     0.14636   0.46506   0.95186   0.00000  Uiso   1.00
C977   C     0.16931   0.54180   0.54738   0.00000  Uiso   1.00
C978   C     0.15944   0.50362   0.97640   0.00000  Uiso   1.00
C979   C     0.15947   0.50223   0.52275   0.00000  Uiso   1.00
C980   C     0.17405   0.54291   0.95464   0.00000  Uiso   1.00
C981   C     0.15126   0.46079   0.54436   0.00000  Uiso   1.00
C982   C     0.13080   0.42699   0.97336   0.00000  Uiso   1.00
C983   C     0.13219   0.42465   0.51981   0.00000  Uiso   1.00
C984   C     0.17632   0.58289   0.52603   0.00000  Uiso   1.00
C985   C     0.22077   0.56595   0.88984   0.00000  Uiso   1.00
C986   C     0.25719   0.53554   0.87438   0.00000  Uiso   1.00
C987   C     0.29326   0.56384   0.85689   0.00000  Uiso   1.00
C988   C     0.17982   0.41178   0.60648   0.00000  Uiso   1.00
C989   C     0.22616   0.41409   0.61953   0.00000  Uiso   1.00
C990   C     0.24055   0.36962   0.64004   0.00000  Uiso   1.00
C991   C     0.10911   0.38751   0.54194   0.00000  Uiso   1.00
C992   C     0.17828   0.62937   0.95792   0.00000  Uiso   1.00
C993   C     0.17798   0.58427   0.97952   0.00000  Uiso   1.00
C994   C     0.02132   0.46006   0.76023   0.00000  Uiso   1.00
C995   C     0.31196   0.53994   0.73963   0.00000  Uiso   1.00
C996   C     0.31202   0.46003   0.76011   0.00000  Uiso   1.00
C997   C     0.02126   0.53999   0.73983   0.00000  Uiso   1.00
C998   C     0.29084   0.49997   0.74980   0.00000  Uiso   1.00
H999   H     0.13468   0.43746   0.88680   0.00000  Uiso   1.00
H1000  H     0.11402   0.62363   0.70755   0.00000  Uiso   1.00
H1001  H     0.11405   0.37489   0.70751   0.00000  Uiso   1.00
H1002  H     0.21980   0.62517   0.79170   0.00000  Uiso   1.00
H1003  H     0.28294   0.58414   0.82802   0.00000  Uiso   1.00
H1004  H     0.30530   0.58707   0.88350   0.00000  Uiso   1.00
H1005  H     0.31889   0.54096   0.84583   0.00000  Uiso   1.00
H1006  H     0.26842   0.51520   0.90290   0.00000  Uiso   1.00
H1007  H     0.24737   0.51160   0.84744   0.00000  Uiso   1.00
H1008  H     0.20951   0.58734   0.86229   0.00000  Uiso   1.00
H1009  H     0.23434   0.58931   0.91529   0.00000  Uiso   1.00
H1010  H     0.17496   0.57151   0.61224   0.00000  Uiso   1.00
H1011  H     0.22276   0.36295   0.67096   0.00000  Uiso   1.00
H1012  H     0.23604   0.34082   0.61604   0.00000  Uiso   1.00
H1013  H     0.27412   0.37201   0.64864   0.00000  Uiso   1.00
H1014  H     0.24502   0.42056   0.58924   0.00000  Uiso   1.00
H1015  H     0.23249   0.44213   0.64379   0.00000  Uiso   1.00
H1016  H     0.16021   0.39958   0.63421   0.00000  Uiso   1.00
H1017  H     0.17830   0.38485   0.58023   0.00000  Uiso   1.00
H1018  H     0.10165   0.39024   0.57715   0.00000  Uiso   1.00
H1019  H     0.16918   0.63235   0.92323   0.00000  Uiso   1.00
H1020  H     0.11758   0.39915   0.95381   0.00000  Uiso   1.00
H1021  H     0.18030   0.61388   0.54574   0.00000  Uiso   1.00
H1022  H     0.03762   0.42907   0.76852   0.00000  Uiso   1.00
H1023  H     0.29566   0.57094   0.73140   0.00000  Uiso   1.00
H1024  H     0.29577   0.42903   0.76836   0.00000  Uiso   1.00
H1025  H     0.03751   0.57102   0.73166   0.00000  Uiso   1.00
H1026  H     0.21955   0.37637   0.79210   0.00000  Uiso   1.00
N1027  N     0.16667   0.61907   0.75000   0.00000  Uiso   1.00
N1028  N     0.16667   0.38093   0.75000   0.00000  Uiso   1.00
O1029  O     0.10559   0.53821   0.74999   0.00000  Uiso   1.00
O1030  O     0.18834   0.66375   0.97867   0.00000  Uiso   1.00
O1031  O     0.22774   0.46179   0.75000   0.00000  Uiso   1.00
O1032  O     0.22774   0.53821   0.75000   0.00000  Uiso   1.00
O1033  O     0.10559   0.46179   0.74999   0.00000  Uiso   1.00
O1034  O     0.16666   0.53823   0.68392   0.00000  Uiso   1.00
O1035  O     0.16667   0.46177   0.81607   0.00000  Uiso   1.00
O1036  O     0.16667   0.53823   0.81607   0.00000  Uiso   1.00
O1037  O     0.16666   0.46177   0.68392   0.00000  Uiso   1.00
O1038  O     0.09770   0.35373   0.52104   0.00000  Uiso   1.00
Zn1039 Zn    0.16667   0.55104   0.75000   0.00000  Uiso   1.00
Zn1040 Zn    0.16667   0.44896   0.75000   0.00000  Uiso   1.00
C1041  C     0.41992   0.50001   0.75004   0.00000  Uiso   1.00
C1042  C     0.37579   0.50003   0.75007   0.00000  Uiso   1.00
C1043  C     0.52941   0.35777   0.77340   0.00000  Uiso   1.00
C1044  C     0.47071   0.64223   0.72641   0.00000  Uiso   1.00
C1045  C     0.47072   0.35694   0.72639   0.00000  Uiso   1.00
C1046  C     0.52947   0.64307   0.77330   0.00000  Uiso   1.00
C1047  C     0.50096   0.49943   0.66303   0.00000  Uiso   1.00
C1048  C     0.50074   0.50046   0.83671   0.00000  Uiso   1.00
C1049  C     0.51826   0.53828   0.90926   0.00000  Uiso   1.00
C1050  C     0.49699   0.45729   0.58927   0.00000  Uiso   1.00
C1051  C     0.50043   0.50165   0.88469   0.00000  Uiso   1.00
C1052  C     0.58007   0.49999   0.74983   0.00000  Uiso   1.00
C1053  C     0.50092   0.49840   0.61459   0.00000  Uiso   1.00
C1054  C     0.48091   0.46576   0.90598   0.00000  Uiso   1.00
C1055  C     0.50357   0.54018   0.59326   0.00000  Uiso   1.00
C1056  C     0.47969   0.46506   0.95186   0.00000  Uiso   1.00
C1057  C     0.50265   0.54180   0.54738   0.00000  Uiso   1.00
C1058  C     0.49278   0.50362   0.97640   0.00000  Uiso   1.00
C1059  C     0.49281   0.50223   0.52275   0.00000  Uiso   1.00
C1060  C     0.50738   0.54291   0.95464   0.00000  Uiso   1.00
C1061  C     0.48460   0.46079   0.54436   0.00000  Uiso   1.00
C1062  C     0.46413   0.42699   0.97336   0.00000  Uiso   1.00
C1063  C     0.46552   0.42465   0.51981   0.00000  Uiso   1.00
C1064  C     0.50966   0.58289   0.52603   0.00000  Uiso   1.00
C1065  C     0.55410   0.56595   0.88984   0.00000  Uiso   1.00
C1066  C     0.59052   0.53554   0.87438   0.00000  Uiso   1.00
C1067  C     0.62660   0.56384   0.85689   0.00000  Uiso   1.00
C1068  C     0.51315   0.41178   0.60648   0.00000  Uiso   1.00
C1069  C     0.55949   0.41409   0.61953   0.00000  Uiso   1.00
C1070  C     0.57389   0.36962   0.64004   0.00000  Uiso   1.00
C1071  C     0.44244   0.38751   0.54194   0.00000  Uiso   1.00
C1072  C     0.51162   0.62937   0.95792   0.00000  Uiso   1.00
C1073  C     0.51131   0.58427   0.97952   0.00000  Uiso   1.00
C1074  C     0.35466   0.46006   0.76023   0.00000  Uiso   1.00
C1075  C     0.64530   0.53994   0.73963   0.00000  Uiso   1.00
C1076  C     0.64536   0.46003   0.76011   0.00000  Uiso   1.00
C1077  C     0.35460   0.53999   0.73983   0.00000  Uiso   1.00
C1078  C     0.62418   0.49997   0.74980   0.00000  Uiso   1.00
H1079  H     0.46801   0.43746   0.88680   0.00000  Uiso   1.00
H1080  H     0.44735   0.62363   0.70755   0.00000  Uiso   1.00
H1081  H     0.44739   0.37489   0.70751   0.00000  Uiso   1.00
H1082  H     0.55313   0.62517   0.79170   0.00000  Uiso   1.00
H1083  H     0.61627   0.58414   0.82802   0.00000  Uiso   1.00
H1084  H     0.63864   0.58707   0.88350   0.00000  Uiso   1.00
H1085  H     0.65223   0.54096   0.84583   0.00000  Uiso   1.00
H1086  H     0.60176   0.51520   0.90290   0.00000  Uiso   1.00
H1087  H     0.58071   0.51160   0.84744   0.00000  Uiso   1.00
H1088  H     0.54284   0.58734   0.86229   0.00000  Uiso   1.00
H1089  H     0.56768   0.58931   0.91529   0.00000  Uiso   1.00
H1090  H     0.50829   0.57151   0.61224   0.00000  Uiso   1.00
H1091  H     0.55610   0.36295   0.67096   0.00000  Uiso   1.00
H1092  H     0.56937   0.34082   0.61604   0.00000  Uiso   1.00
H1093  H     0.60745   0.37201   0.64864   0.00000  Uiso   1.00
H1094  H     0.57835   0.42056   0.58924   0.00000  Uiso   1.00
H1095  H     0.56582   0.44213   0.64379   0.00000  Uiso   1.00
H1096  H     0.49355   0.39958   0.63421   0.00000  Uiso   1.00
H1097  H     0.51164   0.38485   0.58023   0.00000  Uiso   1.00
H1098  H     0.43498   0.39024   0.57715   0.00000  Uiso   1.00
H1099  H     0.50251   0.63235   0.92323   0.00000  Uiso   1.00
H1100  H     0.45091   0.39915   0.95381   0.00000  Uiso   1.00
H1101  H     0.51363   0.61388   0.54574   0.00000  Uiso   1.00
H1102  H     0.37095   0.42907   0.76852   0.00000  Uiso   1.00
H1103  H     0.62899   0.57094   0.73140   0.00000  Uiso   1.00
H1104  H     0.62911   0.42903   0.76836   0.00000  Uiso   1.00
H1105  H     0.37084   0.57102   0.73166   0.00000  Uiso   1.00
H1106  H     0.55289   0.37637   0.79210   0.00000  Uiso   1.00
N1107  N     0.50000   0.61907   0.75000   0.00000  Uiso   1.00
N1108  N     0.50000   0.38093   0.75000   0.00000  Uiso   1.00
O1109  O     0.43892   0.53821   0.74999   0.00000  Uiso   1.00
O1110  O     0.52167   0.66375   0.97867   0.00000  Uiso   1.00
O1111  O     0.56108   0.46179   0.75000   0.00000  Uiso   1.00
O1112  O     0.56108   0.53821   0.75000   0.00000  Uiso   1.00
O1113  O     0.43892   0.46179   0.74999   0.00000  Uiso   1.00
O1114  O     0.49999   0.53823   0.68392   0.00000  Uiso   1.00
O1115  O     0.50001   0.46177   0.81607   0.00000  Uiso   1.00
O1116  O     0.50001   0.53823   0.81607   0.00000  Uiso   1.00
O1117  O     0.49999   0.46177   0.68392   0.00000  Uiso   1.00
O1118  O     0.43103   0.35373   0.52104   0.00000  Uiso   1.00
Zn1119 Zn    0.50000   0.55104   0.75000   0.00000  Uiso   1.00
Zn1120 Zn    0.50000   0.44896   0.75000   0.00000  Uiso   1.00
C1121  C     0.75326   0.50001   0.75004   0.00000  Uiso   1.00
C1122  C     0.70912   0.50003   0.75007   0.00000  Uiso   1.00
C1123  C     0.86275   0.35777   0.77340   0.00000  Uiso   1.00
C1124  C     0.80404   0.64223   0.72641   0.00000  Uiso   1.00
C1125  C     0.80406   0.35694   0.72639   0.00000  Uiso   1.00
C1126  C     0.86281   0.64307   0.77330   0.00000  Uiso   1.00
C1127  C     0.83429   0.49943   0.66303   0.00000  Uiso   1.00
C1128  C     0.83408   0.50046   0.83671   0.00000  Uiso   1.00
C1129  C     0.85159   0.53828   0.90926   0.00000  Uiso   1.00
C1130  C     0.83033   0.45729   0.58927   0.00000  Uiso   1.00
C1131  C     0.83377   0.50165   0.88469   0.00000  Uiso   1.00
C1132  C     0.91340   0.49999   0.74983   0.00000  Uiso   1.00
C1133  C     0.83426   0.49840   0.61459   0.00000  Uiso   1.00
C1134  C     0.81424   0.46576   0.90598   0.00000  Uiso   1.00
C1135  C     0.83690   0.54018   0.59326   0.00000  Uiso   1.00
C1136  C     0.81303   0.46506   0.95186   0.00000  Uiso   1.00
C1137  C     0.83598   0.54180   0.54738   0.00000  Uiso   1.00
C1138  C     0.82611   0.50362   0.97640   0.00000  Uiso   1.00
C1139  C     0.82614   0.50223   0.52275   0.00000  Uiso   1.00
C1140  C     0.84071   0.54291   0.95464   0.00000  Uiso   1.00
C1141  C     0.81793   0.46079   0.54436   0.00000  Uiso   1.00
C1142  C     0.79746   0.42699   0.97336   0.00000  Uiso   1.00
C1143  C     0.79885   0.42465   0.51981   0.00000  Uiso   1.00
C1144  C     0.84299   0.58289   0.52603   0.00000  Uiso   1.00
C1145  C     0.88743   0.56595   0.88984   0.00000  Uiso   1.00
C1146  C     0.92386   0.53554   0.87438   0.00000  Uiso   1.00
C1147  C     0.95993   0.56384   0.85689   0.00000  Uiso   1.00
C1148  C     0.84648   0.41178   0.60648   0.00000  Uiso   1.00
C1149  C     0.89283   0.41409   0.61953   0.00000  Uiso   1.00
C1150  C     0.90722   0.36962   0.64004   0.00000  Uiso   1.00
C1151  C     0.77577   0.38751   0.54194   0.00000  Uiso   1.00
C1152  C     0.84495   0.62937   0.95792   0.00000  Uiso   1.00
C1153  C     0.84464   0.58427   0.97952   0.00000  Uiso   1.00
C1154  C     0.68799   0.46006   0.76023   0.00000  Uiso   1.00
C1155  C     0.97863   0.53994   0.73963   0.00000  Uiso   1.00
C1156  C     0.97869   0.46003   0.76011   0.00000  Uiso   1.00
C1157  C     0.68793   0.53999   0.73983   0.00000  Uiso   1.00
C1158  C     0.95751   0.49997   0.74980   0.00000  Uiso   1.00
H1159  H     0.80135   0.43746   0.88680   0.00000  Uiso   1.00
H1160  H     0.78068   0.62363   0.70755   0.00000  Uiso   1.00
H1161  H     0.78072   0.37489   0.70751   0.00000  Uiso   1.00
H1162  H     0.88646   0.62517   0.79170   0.00000  Uiso   1.00
H1163  H     0.94960   0.58414   0.82802   0.00000  Uiso   1.00
H1164  H     0.97197   0.58707   0.88350   0.00000  Uiso   1.00
H1165  H     0.98556   0.54096   0.84583   0.00000  Uiso   1.00
H1166  H     0.93509   0.51520   0.90290   0.00000  Uiso   1.00
H1167  H     0.91404   0.51160   0.84744   0.00000  Uiso   1.00
H1168  H     0.87617   0.58734   0.86229   0.00000  Uiso   1.00
H1169  H     0.90101   0.58931   0.91529   0.00000  Uiso   1.00
H1170  H     0.84162   0.57151   0.61224   0.00000  Uiso   1.00
H1171  H     0.88943   0.36295   0.67096   0.00000  Uiso   1.00
H1172  H     0.90271   0.34082   0.61604   0.00000  Uiso   1.00
H1173  H     0.94079   0.37201   0.64864   0.00000  Uiso   1.00
H1174  H     0.91168   0.42056   0.58924   0.00000  Uiso   1.00
H1175  H     0.89916   0.44213   0.64379   0.00000  Uiso   1.00
H1176  H     0.82688   0.39958   0.63421   0.00000  Uiso   1.00
H1177  H     0.84497   0.38485   0.58023   0.00000  Uiso   1.00
H1178  H     0.76831   0.39024   0.57715   0.00000  Uiso   1.00
H1179  H     0.83585   0.63235   0.92323   0.00000  Uiso   1.00
H1180  H     0.78424   0.39915   0.95381   0.00000  Uiso   1.00
H1181  H     0.84697   0.61388   0.54574   0.00000  Uiso   1.00
H1182  H     0.70429   0.42907   0.76852   0.00000  Uiso   1.00
H1183  H     0.96233   0.57094   0.73140   0.00000  Uiso   1.00
H1184  H     0.96244   0.42903   0.76836   0.00000  Uiso   1.00
H1185  H     0.70417   0.57102   0.73166   0.00000  Uiso   1.00
H1186  H     0.88622   0.37637   0.79210   0.00000  Uiso   1.00
N1187  N     0.83333   0.61907   0.75000   0.00000  Uiso   1.00
N1188  N     0.83333   0.38093   0.75000   0.00000  Uiso   1.00
O1189  O     0.77226   0.53821   0.74999   0.00000  Uiso   1.00
O1190  O     0.85501   0.66375   0.97867   0.00000  Uiso   1.00
O1191  O     0.89441   0.46179   0.75000   0.00000  Uiso   1.00
O1192  O     0.89441   0.53821   0.75000   0.00000  Uiso   1.00
O1193  O     0.77226   0.46179   0.74999   0.00000  Uiso   1.00
O1194  O     0.83333   0.53823   0.68392   0.00000  Uiso   1.00
O1195  O     0.83334   0.46177   0.81607   0.00000  Uiso   1.00
O1196  O     0.83334   0.53823   0.81607   0.00000  Uiso   1.00
O1197  O     0.83333   0.46177   0.68392   0.00000  Uiso   1.00
O1198  O     0.76437   0.35373   0.52104   0.00000  Uiso   1.00
Zn1199 Zn    0.83333   0.55104   0.75000   0.00000  Uiso   1.00
Zn1200 Zn    0.83333   0.44896   0.75000   0.00000  Uiso   1.00
C1201  C     0.08659   0.83335   0.75004   0.00000  Uiso   1.00
C1202  C     0.04245   0.83337   0.75007   0.00000  Uiso   1.00
C1203  C     0.19608   0.69111   0.77340   0.00000  Uiso   1.00
C1204  C     0.13738   0.97557   0.72641   0.00000  Uiso   1.00
C1205  C     0.13739   0.69028   0.72639   0.00000  Uiso   1.00
C1206  C     0.19614   0.97641   0.77330   0.00000  Uiso   1.00
C1207  C     0.16763   0.83276   0.66303   0.00000  Uiso   1.00
C1208  C     0.16741   0.83379   0.83671   0.00000  Uiso   1.00
C1209  C     0.18492   0.87162   0.90926   0.00000  Uiso   1.00
C1210  C     0.16366   0.79062   0.58927   0.00000  Uiso   1.00
C1211  C     0.16710   0.83498   0.88469   0.00000  Uiso   1.00
C1212  C     0.24673   0.83332   0.74983   0.00000  Uiso   1.00
C1213  C     0.16759   0.83173   0.61459   0.00000  Uiso   1.00
C1214  C     0.14758   0.79910   0.90598   0.00000  Uiso   1.00
C1215  C     0.17024   0.87352   0.59326   0.00000  Uiso   1.00
C1216  C     0.14636   0.79839   0.95186   0.00000  Uiso   1.00
C1217  C     0.16931   0.87514   0.54738   0.00000  Uiso   1.00
C1218  C     0.15944   0.83696   0.97640   0.00000  Uiso   1.00
C1219  C     0.15947   0.83556   0.52275   0.00000  Uiso   1.00
C1220  C     0.17405   0.87625   0.95464   0.00000  Uiso   1.00
C1221  C     0.15126   0.79413   0.54436   0.00000  Uiso   1.00
C1222  C     0.13080   0.76032   0.97336   0.00000  Uiso   1.00
C1223  C     0.13219   0.75798   0.51981   0.00000  Uiso   1.00
C1224  C     0.17632   0.91622   0.52603   0.00000  Uiso   1.00
C1225  C     0.22077   0.89928   0.88984   0.00000  Uiso   1.00
C1226  C     0.25719   0.86887   0.87438   0.00000  Uiso   1.00
C1227  C     0.29326   0.89717   0.85689   0.00000  Uiso   1.00
C1228  C     0.17982   0.74512   0.60648   0.00000  Uiso   1.00
C1229  C     0.22616   0.74742   0.61953   0.00000  Uiso   1.00
C1230  C     0.24055   0.70295   0.64004   0.00000  Uiso   1.00
C1231  C     0.10911   0.72084   0.54194   0.00000  Uiso   1.00
C1232  C     0.17828   0.96271   0.95792   0.00000  Uiso   1.00
C1233  C     0.17798   0.91761   0.97952   0.00000  Uiso   1.00
C1234  C     0.02132   0.79339   0.76023   0.00000  Uiso   1.00
C1235  C     0.31196   0.87327   0.73963   0.00000  Uiso   1.00
C1236  C     0.31202   0.79336   0.76011   0.00000  Uiso   1.00
C1237  C     0.02126   0.87333   0.73983   0.00000  Uiso   1.00
C1238  C     0.29084   0.83330   0.74980   0.00000  Uiso   1.00
H1239  H     0.13468   0.77079   0.88680   0.00000  Uiso   1.00
H1240  H     0.11402   0.95697   0.70755   0.00000  Uiso   1.00
H1241  H     0.11405   0.70822   0.70751   0.00000  Uiso   1.00
H1242  H     0.21980   0.95851   0.79170   0.00000  Uiso   1.00
H1243  H     0.28294   0.91748   0.82802   0.00000  Uiso   1.00
H1244  H     0.30530   0.92041   0.88350   0.00000  Uiso   1.00
H1245  H     0.31889   0.87429   0.84583   0.00000  Uiso   1.00
H1246  H     0.26842   0.84853   0.90290   0.00000  Uiso   1.00
H1247  H     0.24737   0.84494   0.84744   0.00000  Uiso   1.00
H1248  H     0.20951   0.92068   0.86229   0.00000  Uiso   1.00
H1249  H     0.23434   0.92265   0.91529   0.00000  Uiso   1.00
H1250  H     0.17496   0.90484   0.61224   0.00000  Uiso   1.00
H1251  H     0.22276   0.69628   0.67096   0.00000  Uiso   1.00
H1252  H     0.23604   0.67416   0.61604   0.00000  Uiso   1.00
H1253  H     0.27412   0.70534   0.64864   0.00000  Uiso   1.00
H1254  H     0.24502   0.75390   0.58924   0.00000  Uiso   1.00
H1255  H     0.23249   0.77546   0.64379   0.00000  Uiso   1.00
H1256  H     0.16021   0.73291   0.63421   0.00000  Uiso   1.00
H1257  H     0.17830   0.71819   0.58023   0.00000  Uiso   1.00
H1258  H     0.10165   0.72357   0.57715   0.00000  Uiso   1.00
H1259  H     0.16918   0.96568   0.92323   0.00000  Uiso   1.00
H1260  H     0.11758   0.73248   0.95381   0.00000  Uiso   1.00
H1261  H     0.18030   0.94721   0.54574   0.00000  Uiso   1.00
H1262  H     0.03762   0.76240   0.76852   0.00000  Uiso   1.00
H1263  H     0.29566   0.90428   0.73140   0.00000  Uiso   1.00
H1264  H     0.29577   0.76237   0.76836   0.00000  Uiso   1.00
H1265  H     0.03751   0.90435   0.73166   0.00000  Uiso   1.00
H1266  H     0.21955   0.70971   0.79210   0.00000  Uiso   1.00
N1267  N     0.16667   0.95240   0.75000   0.00000  Uiso   1.00
N1268  N     0.16667   0.71427   0.75000   0.00000  Uiso   1.00
O1269  O     0.10559   0.87154   0.74999   0.00000  Uiso   1.00
O1270  O     0.18834   0.99708   0.97867   0.00000  Uiso   1.00
O1271  O     0.22774   0.79513   0.75000   0.00000  Uiso   1.00
O1272  O     0.22774   0.87154   0.75000   0.00000  Uiso   1.00
O1273  O     0.10559   0.79513   0.74999   0.00000  Uiso   1.00
O1274  O     0.16666   0.87156   0.68392   0.00000  Uiso   1.00
O1275  O     0.16667   0.79511   0.81607   0.00000  Uiso   1.00
O1276  O     0.16667   0.87156   0.81607   0.00000  Uiso   1.00
O1277  O     0.16666   0.79511   0.68392   0.00000  Uiso   1.00
O1278  O     0.09770   0.68706   0.52104   0.00000  Uiso   1.00
Zn1279 Zn    0.16667   0.88437   0.75000   0.00000  Uiso   1.00
Zn1280 Zn    0.16667   0.78229   0.75000   0.00000  Uiso   1.00
C1281  C     0.41992   0.83335   0.75004   0.00000  Uiso   1.00
C1282  C     0.37579   0.83337   0.75007   0.00000  Uiso   1.00
C1283  C     0.52941   0.69111   0.77340   0.00000  Uiso   1.00
C1284  C     0.47071   0.97557   0.72641   0.00000  Uiso   1.00
C1285  C     0.47072   0.69028   0.72639   0.00000  Uiso   1.00
C1286  C     0.52947   0.97641   0.77330   0.00000  Uiso   1.00
C1287  C     0.50096   0.83276   0.66303   0.00000  Uiso   1.00
C1288  C     0.50074   0.83379   0.83671   0.00000  Uiso   1.00
C1289  C     0.51826   0.87162   0.90926   0.00000  Uiso   1.00
C1290  C     0.49699   0.79062   0.58927   0.00000  Uiso   1.00
C1291  C     0.50043   0.83498   0.88469   0.00000  Uiso   1.00
C1292  C     0.58007   0.83332   0.74983   0.00000  Uiso   1.00
C1293  C     0.50092   0.83173   0.61459   0.00000  Uiso   1.00
C1294  C     0.48091   0.79910   0.90598   0.00000  Uiso   1.00
C1295  C     0.50357   0.87352   0.59326   0.00000  Uiso   1.00
C1296  C     0.47969   0.79839   0.95186   0.00000  Uiso   1.00
C1297  C     0.50265   0.87514   0.54738   0.00000  Uiso   1.00
C1298  C     0.49278   0.83696   0.97640   0.00000  Uiso   1.00
C1299  C     0.49281   0.83556   0.52275   0.00000  Uiso   1.00
C1300  C     0.50738   0.87625   0.95464   0.00000  Uiso   1.00
C1301  C     0.48460   0.79413   0.54436   0.00000  Uiso   1.00
C1302  C     0.46413   0.76032   0.97336   0.00000  Uiso   1.00
C1303  C     0.46552   0.75798   0.51981   0.00000  Uiso   1.00
C1304  C     0.50966   0.91622   0.52603   0.00000  Uiso   1.00
C1305  C     0.55410   0.89928   0.88984   0.00000  Uiso   1.00
C1306  C     0.59052   0.86887   0.87438   0.00000  Uiso   1.00
C1307  C     0.62660   0.89717   0.85689   0.00000  Uiso   1.00
C1308  C     0.51315   0.74512   0.60648   0.00000  Uiso   1.00
C1309  C     0.55949   0.74742   0.61953   0.00000  Uiso   1.00
C1310  C     0.57389   0.70295   0.64004   0.00000  Uiso   1.00
C1311  C     0.44244   0.72084   0.54194   0.00000  Uiso   1.00
C1312  C     0.51162   0.96271   0.95792   0.00000  Uiso   1.00
C1313  C     0.51131   0.91761   0.97952   0.00000  Uiso   1.00
C1314  C     0.35466   0.79339   0.76023   0.00000  Uiso   1.00
C1315  C     0.64530   0.87327   0.73963   0.00000  Uiso   1.00
C1316  C     0.64536   0.79336   0.76011   0.00000  Uiso   1.00
C1317  C     0.35460   0.87333   0.73983   0.00000  Uiso   1.00
C1318  C     0.62418   0.83330   0.74980   0.00000  Uiso   1.00
H1319  H     0.46801   0.77079   0.88680   0.00000  Uiso   1.00
H1320  H     0.44735   0.95697   0.70755   0.00000  Uiso   1.00
H1321  H     0.44739   0.70822   0.70751   0.00000  Uiso   1.00
H1322  H     0.55313   0.95851   0.79170   0.00000  Uiso   1.00
H1323  H     0.61627   0.91748   0.82802   0.00000  Uiso   1.00
H1324  H     0.63864   0.92041   0.88350   0.00000  Uiso   1.00
H1325  H     0.65223   0.87429   0.84583   0.00000  Uiso   1.00
H1326  H     0.60176   0.84853   0.90290   0.00000  Uiso   1.00
H1327  H     0.58071   0.84494   0.84744   0.00000  Uiso   1.00
H1328  H     0.54284   0.92068   0.86229   0.00000  Uiso   1.00
H1329  H     0.56768   0.92265   0.91529   0.00000  Uiso   1.00
H1330  H     0.50829   0.90484   0.61224   0.00000  Uiso   1.00
H1331  H     0.55610   0.69628   0.67096   0.00000  Uiso   1.00
H1332  H     0.56937   0.67416   0.61604   0.00000  Uiso   1.00
H1333  H     0.60745   0.70534   0.64864   0.00000  Uiso   1.00
H1334  H     0.57835   0.75390   0.58924   0.00000  Uiso   1.00
H1335  H     0.56582   0.77546   0.64379   0.00000  Uiso   1.00
H1336  H     0.49355   0.73291   0.63421   0.00000  Uiso   1.00
H1337  H     0.51164   0.71819   0.58023   0.00000  Uiso   1.00
H1338  H     0.43498   0.72357   0.57715   0.00000  Uiso   1.00
H1339  H     0.50251   0.96568   0.92323   0.00000  Uiso   1.00
H1340  H     0.45091   0.73248   0.95381   0.00000  Uiso   1.00
H1341  H     0.51363   0.94721   0.54574   0.00000  Uiso   1.00
H1342  H     0.37095   0.76240   0.76852   0.00000  Uiso   1.00
H1343  H     0.62899   0.90428   0.73140   0.00000  Uiso   1.00
H1344  H     0.62911   0.76237   0.76836   0.00000  Uiso   1.00
H1345  H     0.37084   0.90435   0.73166   0.00000  Uiso   1.00
H1346  H     0.55289   0.70971   0.79210   0.00000  Uiso   1.00
N1347  N     0.50000   0.95240   0.75000   0.00000  Uiso   1.00
N1348  N     0.50000   0.71427   0.75000   0.00000  Uiso   1.00
O1349  O     0.43892   0.87154   0.74999   0.00000  Uiso   1.00
O1350  O     0.52167   0.99708   0.97867   0.00000  Uiso   1.00
O1351  O     0.56108   0.79513   0.75000   0.00000  Uiso   1.00
O1352  O     0.56108   0.87154   0.75000   0.00000  Uiso   1.00
O1353  O     0.43892   0.79513   0.74999   0.00000  Uiso   1.00
O1354  O     0.49999   0.87156   0.68392   0.00000  Uiso   1.00
O1355  O     0.50001   0.79511   0.81607   0.00000  Uiso   1.00
O1356  O     0.50001   0.87156   0.81607   0.00000  Uiso   1.00
O1357  O     0.49999   0.79511   0.68392   0.00000  Uiso   1.00
O1358  O     0.43103   0.68706   0.52104   0.00000  Uiso   1.00
Zn1359 Zn    0.50000   0.88437   0.75000   0.00000  Uiso   1.00
Zn1360 Zn    0.50000   0.78229   0.75000   0.00000  Uiso   1.00
C1361  C     0.75326   0.83335   0.75004   0.00000  Uiso   1.00
C1362  C     0.70912   0.83337   0.75007   0.00000  Uiso   1.00
C1363  C     0.86275   0.69111   0.77340   0.00000  Uiso   1.00
C1364  C     0.80404   0.97557   0.72641   0.00000  Uiso   1.00
C1365  C     0.80406   0.69028   0.72639   0.00000  Uiso   1.00
C1366  C     0.86281   0.97641   0.77330   0.00000  Uiso   1.00
C1367  C     0.83429   0.83276   0.66303   0.00000  Uiso   1.00
C1368  C     0.83408   0.83379   0.83671   0.00000  Uiso   1.00
C1369  C     0.85159   0.87162   0.90926   0.00000  Uiso   1.00
C1370  C     0.83033   0.79062   0.58927   0.00000  Uiso   1.00
C1371  C     0.83377   0.83498   0.88469   0.00000  Uiso   1.00
C1372  C     0.91340   0.83332   0.74983   0.00000  Uiso   1.00
C1373  C     0.83426   0.83173   0.61459   0.00000  Uiso   1.00
C1374  C     0.81424   0.79910   0.90598   0.00000  Uiso   1.00
C1375  C     0.83690   0.87352   0.59326   0.00000  Uiso   1.00
C1376  C     0.81303   0.79839   0.95186   0.00000  Uiso   1.00
C1377  C     0.83598   0.87514   0.54738   0.00000  Uiso   1.00
C1378  C     0.82611   0.83696   0.97640   0.00000  Uiso   1.00
C1379  C     0.82614   0.83556   0.52275   0.00000  Uiso   1.00
C1380  C     0.84071   0.87625   0.95464   0.00000  Uiso   1.00
C1381  C     0.81793   0.79413   0.54436   0.00000  Uiso   1.00
C1382  C     0.79746   0.76032   0.97336   0.00000  Uiso   1.00
C1383  C     0.79885   0.75798   0.51981   0.00000  Uiso   1.00
C1384  C     0.84299   0.91622   0.52603   0.00000  Uiso   1.00
C1385  C     0.88743   0.89928   0.88984   0.00000  Uiso   1.00
C1386  C     0.92386   0.86887   0.87438   0.00000  Uiso   1.00
C1387  C     0.95993   0.89717   0.85689   0.00000  Uiso   1.00
C1388  C     0.84648   0.74512   0.60648   0.00000  Uiso   1.00
C1389  C     0.89283   0.74742   0.61953   0.00000  Uiso   1.00
C1390  C     0.90722   0.70295   0.64004   0.00000  Uiso   1.00
C1391  C     0.77577   0.72084   0.54194   0.00000  Uiso   1.00
C1392  C     0.84495   0.96271   0.95792   0.00000  Uiso   1.00
C1393  C     0.84464   0.91761   0.97952   0.00000  Uiso   1.00
C1394  C     0.68799   0.79339   0.76023   0.00000  Uiso   1.00
C1395  C     0.97863   0.87327   0.73963   0.00000  Uiso   1.00
C1396  C     0.97869   0.79336   0.76011   0.00000  Uiso   1.00
C1397  C     0.68793   0.87333   0.73983   0.00000  Uiso   1.00
C1398  C     0.95751   0.83330   0.74980   0.00000  Uiso   1.00
H1399  H     0.80135   0.77079   0.88680   0.00000  Uiso   1.00
H1400  H     0.78068   0.95697   0.70755   0.00000  Uiso   1.00
H1401  H     0.78072   0.70822   0.70751   0.00000  Uiso   1.00
H1402  H     0.88646   0.95851   0.79170   0.00000  Uiso   1.00
H1403  H     0.94960   0.91748   0.82802   0.00000  Uiso   1.00
H1404  H     0.97197   0.92041   0.88350   0.00000  Uiso   1.00
H1405  H     0.98556   0.87429   0.84583   0.00000  Uiso   1.00
H1406  H     0.93509   0.84853   0.90290   0.00000  Uiso   1.00
H1407  H     0.91404   0.84494   0.84744   0.00000  Uiso   1.00
H1408  H     0.87617   0.92068   0.86229   0.00000  Uiso   1.00
H1409  H     0.90101   0.92265   0.91529   0.00000  Uiso   1.00
H1410  H     0.84162   0.90484   0.61224   0.00000  Uiso   1.00
H1411  H     0.88943   0.69628   0.67096   0.00000  Uiso   1.00
H1412  H     0.90271   0.67416   0.61604   0.00000  Uiso   1.00
H1413  H     0.94079   0.70534   0.64864   0.00000  Uiso   1.00
H1414  H     0.91168   0.75390   0.58924   0.00000  Uiso   1.00
H1415  H     0.89916   0.77546   0.64379   0.00000  Uiso   1.00
H1416  H     0.82688   0.73291   0.63421   0.00000  Uiso   1.00
H1417  H     0.84497   0.71819   0.58023   0.00000  Uiso   1.00
H1418  H     0.76831   0.72357   0.57715   0.00000  Uiso   1.00
H1419  H     0.83585   0.96568   0.92323   0.00000  Uiso   1.00
H1420  H     0.78424   0.73248   0.95381   0.00000  Uiso   1.00
H1421  H     0.84697   0.94721   0.54574   0.00000  Uiso   1.00
H1422  H     0.70429   0.76240   0.76852   0.00000  Uiso   1.00
H1423  H     0.96233   0.90428   0.73140   0.00000  Uiso   1.00
H1424  H     0.96244   0.76237   0.76836   0.00000  Uiso   1.00
H1425  H     0.70417   0.90435   0.73166   0.00000  Uiso   1.00
H1426  H     0.88622   0.70971   0.79210   0.00000  Uiso   1.00
N1427  N     0.83333   0.95240   0.75000   0.00000  Uiso   1.00
N1428  N     0.83333   0.71427   0.75000   0.00000  Uiso   1.00
O1429  O     0.77226   0.87154   0.74999   0.00000  Uiso   1.00
O1430  O     0.85501   0.99708   0.97867   0.00000  Uiso   1.00
O1431  O     0.89441   0.79513   0.75000   0.00000  Uiso   1.00
O1432  O     0.89441   0.87154   0.75000   0.00000  Uiso   1.00
O1433  O     0.77226   0.79513   0.74999   0.00000  Uiso   1.00
O1434  O     0.83333   0.87156   0.68392   0.00000  Uiso   1.00
O1435  O     0.83334   0.79511   0.81607   0.00000  Uiso   1.00
O1436  O     0.83334   0.87156   0.81607   0.00000  Uiso   1.00
O1437  O     0.83333   0.79511   0.68392   0.00000  Uiso   1.00
O1438  O     0.76437   0.68706   0.52104   0.00000  Uiso   1.00
Zn1439 Zn    0.83333   0.88437   0.75000   0.00000  Uiso   1.00
Zn1440 Zn    0.83333   0.78229   0.75000   0.00000  Uiso   1.00
loop_
_geom_bond_atom_site_label_1
_geom_bond_atom_site_label_2
_geom_bond_distance
_geom_bond_site_symmetry_2
_ccdc_geom_bond_type
C1     C2      1.418   .     S
C1     O69     1.279   .     A
C1     O73     1.279   .     A
C2     C37     1.397   .     A
C2     C34     1.397   .     A
C3     N68     1.365   .     A
C3     H66     1.082   .     S
C3     C486    1.413   1_545 S
C4     H40     1.082   .     S
C4     N67     1.365   .     A
C4     C245    1.413   .     S
C5     N68     1.365   .     A
C5     H41     1.082   .     S
C5     C484    1.413   1_545 S
C6     N67     1.365   .     A
C6     H42     1.081   .     S
C6     C243    1.413   .     S
C7     O77     1.283   .     A
C7     O74     1.293   .     A
C7     C13     1.453   .     S
C8     O76     1.282   .     A
C8     O75     1.286   .     A
C8     C11     1.439   .     S
C9     C25     1.532   .     S
C9     C20     1.410   .     A
C9     C11     1.415   .     A
C10    C21     1.409   .     A
C10    C28     1.533   .     S
C10    C13     1.422   .     A
C11    C14     1.394   .     A
C12    O72     1.279   .     A
C12    O71     1.279   .     A
C12    C38     1.417   .     S
C13    C15     1.399   .     A
C14    H39     1.085   .     S
C14    C16     1.377   .     A
C15    H50     1.085   .     S
C15    C17     1.378   .     A
C16    C22     1.396   .     A
C16    C18     1.405   .     A
C17    C24     1.397   .     A
C17    C19     1.403   .     A
C18    C20     1.418   .     A
C18    C739    1.391   .     S
C19    C21     1.416   .     A
C19    C738    1.391   1_554 S
C20    C33     1.421   .     A
C21    C23     1.421   .     A
C22    H60     1.085   .     S
C22    C743    1.397   .     S
C23    C31     1.488   .     S
C23    C742    1.397   1_554 S
C24    H61     1.085   .     S
C24    C753    1.397   1_554 S
C25    C26     1.540   .     S
C25    H48     1.108   .     S
C25    H49     1.107   .     S
C26    C27     1.527   .     S
C26    H47     1.108   .     S
C26    H46     1.112   .     S
C27    H44     1.111   .     S
C27    H45     1.111   .     S
C27    H43     1.111   .     S
C28    H56     1.109   .     S
C28    H57     1.108   .     S
C28    C29     1.540   .     S
C29    H54     1.112   .     S
C29    H55     1.109   .     S
C29    C30     1.527   .     S
C30    H51     1.111   .     S
C30    H52     1.111   .     S
C30    H53     1.110   .     S
C31    H58     1.085   .     S
C31    O78     1.221   .     D
C32    O70     1.221   .     D
C32    C33     1.487   .     S
C32    H59     1.085   .     S
C33    C744    1.397   .     S
C34    H62     1.084   .     S
C34    C196    1.370   1_455 S
C35    C38     1.397   .     A
C35    H63     1.084   .     S
C35    C117    1.370   .     S
C36    C38     1.397   .     A
C36    H64     1.084   .     S
C36    C114    1.370   .     S
C37    H65     1.084   .     S
C37    C195    1.370   1_455 S
N67    Zn79    2.001   .     S
N68    Zn80    2.001   .     S
O69    Zn79    1.998   .     S
O71    Zn80    1.998   .     S
O72    Zn79    1.998   .     S
O73    Zn80    1.998   .     S
O74    Zn79    2.010   .     S
O75    Zn80    2.010   .     S
O76    Zn79    2.024   .     S
O77    Zn80    2.024   .     S
C81    C82     1.418   .     S
C81    O149    1.279   .     A
C81    O153    1.279   .     A
C82    C117    1.397   .     A
C82    C114    1.397   .     A
C83    N148    1.365   .     A
C83    H146    1.082   .     S
C83    C566    1.413   1_545 S
C84    H120    1.082   .     S
C84    N147    1.365   .     A
C84    C325    1.413   .     S
C85    N148    1.365   .     A
C85    H121    1.082   .     S
C85    C564    1.413   1_545 S
C86    N147    1.365   .     A
C86    H122    1.081   .     S
C86    C323    1.413   .     S
C87    O157    1.283   .     A
C87    O154    1.293   .     A
C87    C93     1.453   .     S
C88    O156    1.282   .     A
C88    O155    1.286   .     A
C88    C91     1.439   .     S
C89    C105    1.532   .     S
C89    C100    1.410   .     A
C89    C91     1.415   .     A
C90    C101    1.409   .     A
C90    C108    1.533   .     S
C90    C93     1.422   .     A
C91    C94     1.394   .     A
C92    O152    1.279   .     A
C92    O151    1.279   .     A
C92    C118    1.417   .     S
C93    C95     1.399   .     A
C94    H119    1.085   .     S
C94    C96     1.377   .     A
C95    H130    1.085   .     S
C95    C97     1.378   .     A
C96    C102    1.396   .     A
C96    C98     1.405   .     A
C97    C104    1.397   .     A
C97    C99     1.403   .     A
C98    C100    1.418   .     A
C98    C819    1.391   .     S
C99    C101    1.416   .     A
C99    C818    1.391   1_554 S
C100   C113    1.421   .     A
C101   C103    1.421   .     A
C102   H140    1.085   .     S
C102   C823    1.397   .     S
C103   C111    1.488   .     S
C103   C822    1.397   1_554 S
C104   H141    1.085   .     S
C104   C833    1.397   1_554 S
C105   C106    1.540   .     S
C105   H128    1.108   .     S
C105   H129    1.107   .     S
C106   C107    1.527   .     S
C106   H127    1.108   .     S
C106   H126    1.112   .     S
C107   H124    1.111   .     S
C107   H125    1.111   .     S
C107   H123    1.111   .     S
C108   H136    1.109   .     S
C108   H137    1.108   .     S
C108   C109    1.540   .     S
C109   H134    1.112   .     S
C109   H135    1.109   .     S
C109   C110    1.527   .     S
C110   H131    1.111   .     S
C110   H132    1.111   .     S
C110   H133    1.110   .     S
C111   H138    1.085   .     S
C111   O158    1.221   .     D
C112   O150    1.221   .     D
C112   C113    1.487   .     S
C112   H139    1.085   .     S
C113   C824    1.397   .     S
C114   H142    1.084   .     S
C115   C118    1.397   .     A
C115   H143    1.084   .     S
C115   C197    1.370   .     S
C116   C118    1.397   .     A
C116   H144    1.084   .     S
C116   C194    1.370   .     S
C117   H145    1.084   .     S
N147   Zn159   2.001   .     S
N148   Zn160   2.001   .     S
O149   Zn159   1.998   .     S
O151   Zn160   1.998   .     S
O152   Zn159   1.998   .     S
O153   Zn160   1.998   .     S
O154   Zn159   2.010   .     S
O155   Zn160   2.010   .     S
O156   Zn159   2.024   .     S
O157   Zn160   2.024   .     S
C161   C162    1.418   .     S
C161   O229    1.279   .     A
C161   O233    1.279   .     A
C162   C197    1.397   .     A
C162   C194    1.397   .     A
C163   N228    1.365   .     A
C163   H226    1.082   .     S
C163   C646    1.413   1_545 S
C164   H200    1.082   .     S
C164   N227    1.365   .     A
C164   C405    1.413   .     S
C165   N228    1.365   .     A
C165   H201    1.082   .     S
C165   C644    1.413   1_545 S
C166   N227    1.365   .     A
C166   H202    1.081   .     S
C166   C403    1.413   .     S
C167   O237    1.283   .     A
C167   O234    1.293   .     A
C167   C173    1.453   .     S
C168   O236    1.282   .     A
C168   O235    1.286   .     A
C168   C171    1.439   .     S
C169   C185    1.532   .     S
C169   C180    1.410   .     A
C169   C171    1.415   .     A
C170   C181    1.409   .     A
C170   C188    1.533   .     S
C170   C173    1.422   .     A
C171   C174    1.394   .     A
C172   O232    1.279   .     A
C172   O231    1.279   .     A
C172   C198    1.417   .     S
C173   C175    1.399   .     A
C174   H199    1.085   .     S
C174   C176    1.377   .     A
C175   H210    1.085   .     S
C175   C177    1.378   .     A
C176   C182    1.396   .     A
C176   C178    1.405   .     A
C177   C184    1.397   .     A
C177   C179    1.403   .     A
C178   C180    1.418   .     A
C178   C899    1.391   .     S
C179   C181    1.416   .     A
C179   C898    1.391   1_554 S
C180   C193    1.421   .     A
C181   C183    1.421   .     A
C182   H220    1.085   .     S
C182   C903    1.397   .     S
C183   C191    1.488   .     S
C183   C902    1.397   1_554 S
C184   H221    1.085   .     S
C184   C913    1.397   1_554 S
C185   C186    1.540   .     S
C185   H208    1.108   .     S
C185   H209    1.107   .     S
C186   C187    1.527   .     S
C186   H207    1.108   .     S
C186   H206    1.112   .     S
C187   H204    1.111   .     S
C187   H205    1.111   .     S
C187   H203    1.111   .     S
C188   H216    1.109   .     S
C188   H217    1.108   .     S
C188   C189    1.540   .     S
C189   H214    1.112   .     S
C189   H215    1.109   .     S
C189   C190    1.527   .     S
C190   H211    1.111   .     S
C190   H212    1.111   .     S
C190   H213    1.110   .     S
C191   H218    1.085   .     S
C191   O238    1.221   .     D
C192   O230    1.221   .     D
C192   C193    1.487   .     S
C192   H219    1.085   .     S
C193   C904    1.397   .     S
C194   H222    1.084   .     S
C195   C198    1.397   .     A
C195   H223    1.084   .     S
C195   C37     1.370   1_655 S
C196   C198    1.397   .     A
C196   H224    1.084   .     S
C196   C34     1.370   1_655 S
C197   H225    1.084   .     S
N227   Zn239   2.001   .     S
N228   Zn240   2.001   .     S
O229   Zn239   1.998   .     S
O231   Zn240   1.998   .     S
O232   Zn239   1.998   .     S
O233   Zn240   1.998   .     S
O234   Zn239   2.010   .     S
O235   Zn240   2.010   .     S
O236   Zn239   2.024   .     S
O237   Zn240   2.024   .     S
C241   C242    1.418   .     S
C241   O309    1.279   .     A
C241   O313    1.279   .     A
C242   C277    1.397   .     A
C242   C274    1.397   .     A
C243   N308    1.365   .     A
C243   H306    1.082   .     S
C244   H280    1.082   .     S
C244   N307    1.365   .     A
C244   C485    1.413   .     S
C245   N308    1.365   .     A
C245   H281    1.082   .     S
C246   N307    1.365   .     A
C246   H282    1.081   .     S
C246   C483    1.413   .     S
C247   O317    1.283   .     A
C247   O314    1.293   .     A
C247   C253    1.453   .     S
C248   O316    1.282   .     A
C248   O315    1.286   .     A
C248   C251    1.439   .     S
C249   C265    1.532   .     S
C249   C260    1.410   .     A
C249   C251    1.415   .     A
C250   C261    1.409   .     A
C250   C268    1.533   .     S
C250   C253    1.422   .     A
C251   C254    1.394   .     A
C252   O312    1.279   .     A
C252   O311    1.279   .     A
C252   C278    1.417   .     S
C253   C255    1.399   .     A
C254   H279    1.085   .     S
C254   C256    1.377   .     A
C255   H290    1.085   .     S
C255   C257    1.378   .     A
C256   C262    1.396   .     A
C256   C258    1.405   .     A
C257   C264    1.397   .     A
C257   C259    1.403   .     A
C258   C260    1.418   .     A
C258   C979    1.391   .     S
C259   C261    1.416   .     A
C259   C978    1.391   1_554 S
C260   C273    1.421   .     A
C261   C263    1.421   .     A
C262   H300    1.085   .     S
C262   C983    1.397   .     S
C263   C271    1.488   .     S
C263   C982    1.397   1_554 S
C264   H301    1.085   .     S
C264   C993    1.397   1_554 S
C265   C266    1.540   .     S
C265   H288    1.108   .     S
C265   H289    1.107   .     S
C266   C267    1.527   .     S
C266   H287    1.108   .     S
C266   H286    1.112   .     S
C267   H284    1.111   .     S
C267   H285    1.111   .     S
C267   H283    1.111   .     S
C268   H296    1.109   .     S
C268   H297    1.108   .     S
C268   C269    1.540   .     S
C269   H294    1.112   .     S
C269   H295    1.109   .     S
C269   C270    1.527   .     S
C270   H291    1.111   .     S
C270   H292    1.111   .     S
C270   H293    1.110   .     S
C271   H298    1.085   .     S
C271   O318    1.221   .     D
C272   O310    1.221   .     D
C272   C273    1.487   .     S
C272   H299    1.085   .     S
C273   C984    1.397   .     S
C274   H302    1.084   .     S
C274   C436    1.370   1_455 S
C275   C278    1.397   .     A
C275   H303    1.084   .     S
C275   C357    1.370   .     S
C276   C278    1.397   .     A
C276   H304    1.084   .     S
C276   C354    1.370   .     S
C277   H305    1.084   .     S
C277   C435    1.370   1_455 S
N307   Zn319   2.001   .     S
N308   Zn320   2.001   .     S
O309   Zn319   1.998   .     S
O311   Zn320   1.998   .     S
O312   Zn319   1.998   .     S
O313   Zn320   1.998   .     S
O314   Zn319   2.010   .     S
O315   Zn320   2.010   .     S
O316   Zn319   2.024   .     S
O317   Zn320   2.024   .     S
C321   C322    1.418   .     S
C321   O389    1.279   .     A
C321   O393    1.279   .     A
C322   C357    1.397   .     A
C322   C354    1.397   .     A
C323   N388    1.365   .     A
C323   H386    1.082   .     S
C324   H360    1.082   .     S
C324   N387    1.365   .     A
C324   C565    1.413   .     S
C325   N388    1.365   .     A
C325   H361    1.082   .     S
C326   N387    1.365   .     A
C326   H362    1.081   .     S
C326   C563    1.413   .     S
C327   O397    1.283   .     A
C327   O394    1.293   .     A
C327   C333    1.453   .     S
C328   O396    1.282   .     A
C328   O395    1.286   .     A
C328   C331    1.439   .     S
C329   C345    1.532   .     S
C329   C340    1.410   .     A
C329   C331    1.415   .     A
C330   C341    1.409   .     A
C330   C348    1.533   .     S
C330   C333    1.422   .     A
C331   C334    1.394   .     A
C332   O392    1.279   .     A
C332   O391    1.279   .     A
C332   C358    1.417   .     S
C333   C335    1.399   .     A
C334   H359    1.085   .     S
C334   C336    1.377   .     A
C335   H370    1.085   .     S
C335   C337    1.378   .     A
C336   C342    1.396   .     A
C336   C338    1.405   .     A
C337   C344    1.397   .     A
C337   C339    1.403   .     A
C338   C340    1.418   .     A
C338   C1059   1.391   .     S
C339   C341    1.416   .     A
C339   C1058   1.391   1_554 S
C340   C353    1.421   .     A
C341   C343    1.421   .     A
C342   H380    1.085   .     S
C342   C1063   1.397   .     S
C343   C351    1.488   .     S
C343   C1062   1.397   1_554 S
C344   H381    1.085   .     S
C344   C1073   1.397   1_554 S
C345   C346    1.540   .     S
C345   H368    1.108   .     S
C345   H369    1.107   .     S
C346   C347    1.527   .     S
C346   H367    1.108   .     S
C346   H366    1.112   .     S
C347   H364    1.111   .     S
C347   H365    1.111   .     S
C347   H363    1.111   .     S
C348   H376    1.109   .     S
C348   H377    1.108   .     S
C348   C349    1.540   .     S
C349   H374    1.112   .     S
C349   H375    1.109   .     S
C349   C350    1.527   .     S
C350   H371    1.111   .     S
C350   H372    1.111   .     S
C350   H373    1.110   .     S
C351   H378    1.085   .     S
C351   O398    1.221   .     D
C352   O390    1.221   .     D
C352   C353    1.487   .     S
C352   H379    1.085   .     S
C353   C1064   1.397   .     S
C354   H382    1.084   .     S
C355   C358    1.397   .     A
C355   H383    1.084   .     S
C355   C437    1.370   .     S
C356   C358    1.397   .     A
C356   H384    1.084   .     S
C356   C434    1.370   .     S
C357   H385    1.084   .     S
N387   Zn399   2.001   .     S
N388   Zn400   2.001   .     S
O389   Zn399   1.998   .     S
O391   Zn400   1.998   .     S
O392   Zn399   1.998   .     S
O393   Zn400   1.998   .     S
O394   Zn399   2.010   .     S
O395   Zn400   2.010   .     S
O396   Zn399   2.024   .     S
O397   Zn400   2.024   .     S
C401   C402    1.418   .     S
C401   O469    1.279   .     A
C401   O473    1.279   .     A
C402   C437    1.397   .     A
C402   C434    1.397   .     A
C403   N468    1.365   .     A
C403   H466    1.082   .     S
C404   H440    1.082   .     S
C404   N467    1.365   .     A
C404   C645    1.413   .     S
C405   N468    1.365   .     A
C405   H441    1.082   .     S
C406   N467    1.365   .     A
C406   H442    1.081   .     S
C406   C643    1.413   .     S
C407   O477    1.283   .     A
C407   O474    1.293   .     A
C407   C413    1.453   .     S
C408   O476    1.282   .     A
C408   O475    1.286   .     A
C408   C411    1.439   .     S
C409   C425    1.532   .     S
C409   C420    1.410   .     A
C409   C411    1.415   .     A
C410   C421    1.409   .     A
C410   C428    1.533   .     S
C410   C413    1.422   .     A
C411   C414    1.394   .     A
C412   O472    1.279   .     A
C412   O471    1.279   .     A
C412   C438    1.417   .     S
C413   C415    1.399   .     A
C414   H439    1.085   .     S
C414   C416    1.377   .     A
C415   H450    1.085   .     S
C415   C417    1.378   .     A
C416   C422    1.396   .     A
C416   C418    1.405   .     A
C417   C424    1.397   .     A
C417   C419    1.403   .     A
C418   C420    1.418   .     A
C418   C1139   1.391   .     S
C419   C421    1.416   .     A
C419   C1138   1.391   1_554 S
C420   C433    1.421   .     A
C421   C423    1.421   .     A
C422   H460    1.085   .     S
C422   C1143   1.397   .     S
C423   C431    1.488   .     S
C423   C1142   1.397   1_554 S
C424   H461    1.085   .     S
C424   C1153   1.397   1_554 S
C425   C426    1.540   .     S
C425   H448    1.108   .     S
C425   H449    1.107   .     S
C426   C427    1.527   .     S
C426   H447    1.108   .     S
C426   H446    1.112   .     S
C427   H444    1.111   .     S
C427   H445    1.111   .     S
C427   H443    1.111   .     S
C428   H456    1.109   .     S
C428   H457    1.108   .     S
C428   C429    1.540   .     S
C429   H454    1.112   .     S
C429   H455    1.109   .     S
C429   C430    1.527   .     S
C430   H451    1.111   .     S
C430   H452    1.111   .     S
C430   H453    1.110   .     S
C431   H458    1.085   .     S
C431   O478    1.221   .     D
C432   O470    1.221   .     D
C432   C433    1.487   .     S
C432   H459    1.085   .     S
C433   C1144   1.397   .     S
C434   H462    1.084   .     S
C435   C438    1.397   .     A
C435   H463    1.084   .     S
C435   C277    1.370   1_655 S
C436   C438    1.397   .     A
C436   H464    1.084   .     S
C436   C274    1.370   1_655 S
C437   H465    1.084   .     S
N467   Zn479   2.001   .     S
N468   Zn480   2.001   .     S
O469   Zn479   1.998   .     S
O471   Zn480   1.998   .     S
O472   Zn479   1.998   .     S
O473   Zn480   1.998   .     S
O474   Zn479   2.010   .     S
O475   Zn480   2.010   .     S
O476   Zn479   2.024   .     S
O477   Zn480   2.024   .     S
C481   C482    1.418   .     S
C481   O549    1.279   .     A
C481   O553    1.279   .     A
C482   C517    1.397   .     A
C482   C514    1.397   .     A
C483   N548    1.365   .     A
C483   H546    1.082   .     S
C484   H520    1.082   .     S
C484   N547    1.365   .     A
C484   C5      1.413   1_565 S
C485   N548    1.365   .     A
C485   H521    1.082   .     S
C486   N547    1.365   .     A
C486   H522    1.081   .     S
C486   C3      1.413   1_565 S
C487   O557    1.283   .     A
C487   O554    1.293   .     A
C487   C493    1.453   .     S
C488   O556    1.282   .     A
C488   O555    1.286   .     A
C488   C491    1.439   .     S
C489   C505    1.532   .     S
C489   C500    1.410   .     A
C489   C491    1.415   .     A
C490   C501    1.409   .     A
C490   C508    1.533   .     S
C490   C493    1.422   .     A
C491   C494    1.394   .     A
C492   O552    1.279   .     A
C492   O551    1.279   .     A
C492   C518    1.417   .     S
C493   C495    1.399   .     A
C494   H519    1.085   .     S
C494   C496    1.377   .     A
C495   H530    1.085   .     S
C495   C497    1.378   .     A
C496   C502    1.396   .     A
C496   C498    1.405   .     A
C497   C504    1.397   .     A
C497   C499    1.403   .     A
C498   C500    1.418   .     A
C498   C1219   1.391   .     S
C499   C501    1.416   .     A
C499   C1218   1.391   1_554 S
C500   C513    1.421   .     A
C501   C503    1.421   .     A
C502   H540    1.085   .     S
C502   C1223   1.397   .     S
C503   C511    1.488   .     S
C503   C1222   1.397   1_554 S
C504   H541    1.085   .     S
C504   C1233   1.397   1_554 S
C505   C506    1.540   .     S
C505   H528    1.108   .     S
C505   H529    1.107   .     S
C506   C507    1.527   .     S
C506   H527    1.108   .     S
C506   H526    1.112   .     S
C507   H524    1.111   .     S
C507   H525    1.111   .     S
C507   H523    1.111   .     S
C508   H536    1.109   .     S
C508   H537    1.108   .     S
C508   C509    1.540   .     S
C509   H534    1.112   .     S
C509   H535    1.109   .     S
C509   C510    1.527   .     S
C510   H531    1.111   .     S
C510   H532    1.111   .     S
C510   H533    1.110   .     S
C511   H538    1.085   .     S
C511   O558    1.221   .     D
C512   O550    1.221   .     D
C512   C513    1.487   .     S
C512   H539    1.085   .     S
C513   C1224   1.397   .     S
C514   H542    1.084   .     S
C514   C676    1.370   1_455 S
C515   C518    1.397   .     A
C515   H543    1.084   .     S
C515   C597    1.370   .     S
C516   C518    1.397   .     A
C516   H544    1.084   .     S
C516   C594    1.370   .     S
C517   H545    1.084   .     S
C517   C675    1.370   1_455 S
N547   Zn559   2.001   .     S
N548   Zn560   2.001   .     S
O549   Zn559   1.998   .     S
O551   Zn560   1.998   .     S
O552   Zn559   1.998   .     S
O553   Zn560   1.998   .     S
O554   Zn559   2.010   .     S
O555   Zn560   2.010   .     S
O556   Zn559   2.024   .     S
O557   Zn560   2.024   .     S
C561   C562    1.418   .     S
C561   O629    1.279   .     A
C561   O633    1.279   .     A
C562   C597    1.397   .     A
C562   C594    1.397   .     A
C563   N628    1.365   .     A
C563   H626    1.082   .     S
C564   H600    1.082   .     S
C564   N627    1.365   .     A
C564   C85     1.413   1_565 S
C565   N628    1.365   .     A
C565   H601    1.082   .     S
C566   N627    1.365   .     A
C566   H602    1.081   .     S
C566   C83     1.413   1_565 S
C567   O637    1.283   .     A
C567   O634    1.293   .     A
C567   C573    1.453   .     S
C568   O636    1.282   .     A
C568   O635    1.286   .     A
C568   C571    1.439   .     S
C569   C585    1.532   .     S
C569   C580    1.410   .     A
C569   C571    1.415   .     A
C570   C581    1.409   .     A
C570   C588    1.533   .     S
C570   C573    1.422   .     A
C571   C574    1.394   .     A
C572   O632    1.279   .     A
C572   O631    1.279   .     A
C572   C598    1.417   .     S
C573   C575    1.399   .     A
C574   H599    1.085   .     S
C574   C576    1.377   .     A
C575   H610    1.085   .     S
C575   C577    1.378   .     A
C576   C582    1.396   .     A
C576   C578    1.405   .     A
C577   C584    1.397   .     A
C577   C579    1.403   .     A
C578   C580    1.418   .     A
C578   C1299   1.391   .     S
C579   C581    1.416   .     A
C579   C1298   1.391   1_554 S
C580   C593    1.421   .     A
C581   C583    1.421   .     A
C582   H620    1.085   .     S
C582   C1303   1.397   .     S
C583   C591    1.488   .     S
C583   C1302   1.397   1_554 S
C584   H621    1.085   .     S
C584   C1313   1.397   1_554 S
C585   C586    1.540   .     S
C585   H608    1.108   .     S
C585   H609    1.107   .     S
C586   C587    1.527   .     S
C586   H607    1.108   .     S
C586   H606    1.112   .     S
C587   H604    1.111   .     S
C587   H605    1.111   .     S
C587   H603    1.111   .     S
C588   H616    1.109   .     S
C588   H617    1.108   .     S
C588   C589    1.540   .     S
C589   H614    1.112   .     S
C589   H615    1.109   .     S
C589   C590    1.527   .     S
C590   H611    1.111   .     S
C590   H612    1.111   .     S
C590   H613    1.110   .     S
C591   H618    1.085   .     S
C591   O638    1.221   .     D
C592   O630    1.221   .     D
C592   C593    1.487   .     S
C592   H619    1.085   .     S
C593   C1304   1.397   .     S
C594   H622    1.084   .     S
C595   C598    1.397   .     A
C595   H623    1.084   .     S
C595   C677    1.370   .     S
C596   C598    1.397   .     A
C596   H624    1.084   .     S
C596   C674    1.370   .     S
C597   H625    1.084   .     S
N627   Zn639   2.001   .     S
N628   Zn640   2.001   .     S
O629   Zn639   1.998   .     S
O631   Zn640   1.998   .     S
O632   Zn639   1.998   .     S
O633   Zn640   1.998   .     S
O634   Zn639   2.010   .     S
O635   Zn640   2.010   .     S
O636   Zn639   2.024   .     S
O637   Zn640   2.024   .     S
C641   C642    1.418   .     S
C641   O709    1.279   .     A
C641   O713    1.279   .     A
C642   C677    1.397   .     A
C642   C674    1.397   .     A
C643   N708    1.365   .     A
C643   H706    1.082   .     S
C644   H680    1.082   .     S
C644   N707    1.365   .     A
C644   C165    1.413   1_565 S
C645   N708    1.365   .     A
C645   H681    1.082   .     S
C646   N707    1.365   .     A
C646   H682    1.081   .     S
C646   C163    1.413   1_565 S
C647   O717    1.283   .     A
C647   O714    1.293   .     A
C647   C653    1.453   .     S
C648   O716    1.282   .     A
C648   O715    1.286   .     A
C648   C651    1.439   .     S
C649   C665    1.532   .     S
C649   C660    1.410   .     A
C649   C651    1.415   .     A
C650   C661    1.409   .     A
C650   C668    1.533   .     S
C650   C653    1.422   .     A
C651   C654    1.394   .     A
C652   O712    1.279   .     A
C652   O711    1.279   .     A
C652   C678    1.417   .     S
C653   C655    1.399   .     A
C654   H679    1.085   .     S
C654   C656    1.377   .     A
C655   H690    1.085   .     S
C655   C657    1.378   .     A
C656   C662    1.396   .     A
C656   C658    1.405   .     A
C657   C664    1.397   .     A
C657   C659    1.403   .     A
C658   C660    1.418   .     A
C658   C1379   1.391   .     S
C659   C661    1.416   .     A
C659   C1378   1.391   1_554 S
C660   C673    1.421   .     A
C661   C663    1.421   .     A
C662   H700    1.085   .     S
C662   C1383   1.397   .     S
C663   C671    1.488   .     S
C663   C1382   1.397   1_554 S
C664   H701    1.085   .     S
C664   C1393   1.397   1_554 S
C665   C666    1.540   .     S
C665   H688    1.108   .     S
C665   H689    1.107   .     S
C666   C667    1.527   .     S
C666   H687    1.108   .     S
C666   H686    1.112   .     S
C667   H684    1.111   .     S
C667   H685    1.111   .     S
C667   H683    1.111   .     S
C668   H696    1.109   .     S
C668   H697    1.108   .     S
C668   C669    1.540   .     S
C669   H694    1.112   .     S
C669   H695    1.109   .     S
C669   C670    1.527   .     S
C670   H691    1.111   .     S
C670   H692    1.111   .     S
C670   H693    1.110   .     S
C671   H698    1.085   .     S
C671   O718    1.221   .     D
C672   O710    1.221   .     D
C672   C673    1.487   .     S
C672   H699    1.085   .     S
C673   C1384   1.397   .     S
C674   H702    1.084   .     S
C675   C678    1.397   .     A
C675   H703    1.084   .     S
C675   C517    1.370   1_655 S
C676   C678    1.397   .     A
C676   H704    1.084   .     S
C676   C514    1.370   1_655 S
C677   H705    1.084   .     S
N707   Zn719   2.001   .     S
N708   Zn720   2.001   .     S
O709   Zn719   1.998   .     S
O711   Zn720   1.998   .     S
O712   Zn719   1.998   .     S
O713   Zn720   1.998   .     S
O714   Zn719   2.010   .     S
O715   Zn720   2.010   .     S
O716   Zn719   2.024   .     S
O717   Zn720   2.024   .     S
C721   C722    1.418   .     S
C721   O789    1.279   .     A
C721   O793    1.279   .     A
C722   C757    1.397   .     A
C722   C754    1.397   .     A
C723   N788    1.365   .     A
C723   H786    1.082   .     S
C723   C1206   1.413   1_545 S
C724   H760    1.082   .     S
C724   N787    1.365   .     A
C724   C965    1.413   .     S
C725   N788    1.365   .     A
C725   H761    1.082   .     S
C725   C1204   1.413   1_545 S
C726   N787    1.365   .     A
C726   H762    1.081   .     S
C726   C963    1.413   .     S
C727   O797    1.283   .     A
C727   O794    1.293   .     A
C727   C733    1.453   .     S
C728   O796    1.282   .     A
C728   O795    1.286   .     A
C728   C731    1.439   .     S
C729   C745    1.532   .     S
C729   C740    1.410   .     A
C729   C731    1.415   .     A
C730   C741    1.409   .     A
C730   C748    1.533   .     S
C730   C733    1.422   .     A
C731   C734    1.394   .     A
C732   O792    1.279   .     A
C732   O791    1.279   .     A
C732   C758    1.417   .     S
C733   C735    1.399   .     A
C734   H759    1.085   .     S
C734   C736    1.377   .     A
C735   H770    1.085   .     S
C735   C737    1.378   .     A
C736   C742    1.396   .     A
C736   C738    1.405   .     A
C737   C744    1.397   .     A
C737   C739    1.403   .     A
C738   C740    1.418   .     A
C738   C19     1.391   1_556 S
C739   C741    1.416   .     A
C740   C753    1.421   .     A
C741   C743    1.421   .     A
C742   H780    1.085   .     S
C742   C23     1.397   1_556 S
C743   C751    1.488   .     S
C744   H781    1.085   .     S
C745   C746    1.540   .     S
C745   H768    1.108   .     S
C745   H769    1.107   .     S
C746   C747    1.527   .     S
C746   H767    1.108   .     S
C746   H766    1.112   .     S
C747   H764    1.111   .     S
C747   H765    1.111   .     S
C747   H763    1.111   .     S
C748   H776    1.109   .     S
C748   H777    1.108   .     S
C748   C749    1.540   .     S
C749   H774    1.112   .     S
C749   H775    1.109   .     S
C749   C750    1.527   .     S
C750   H771    1.111   .     S
C750   H772    1.111   .     S
C750   H773    1.110   .     S
C751   H778    1.085   .     S
C751   O798    1.221   .     D
C752   O790    1.221   .     D
C752   C753    1.487   .     S
C752   H779    1.085   .     S
C753   C24     1.397   1_556 S
C754   H782    1.084   .     S
C754   C916    1.370   1_455 S
C755   C758    1.397   .     A
C755   H783    1.084   .     S
C755   C837    1.370   .     S
C756   C758    1.397   .     A
C756   H784    1.084   .     S
C756   C834    1.370   .     S
C757   H785    1.084   .     S
C757   C915    1.370   1_455 S
N787   Zn799   2.001   .     S
N788   Zn800   2.001   .     S
O789   Zn799   1.998   .     S
O791   Zn800   1.998   .     S
O792   Zn799   1.998   .     S
O793   Zn800   1.998   .     S
O794   Zn799   2.010   .     S
O795   Zn800   2.010   .     S
O796   Zn799   2.024   .     S
O797   Zn800   2.024   .     S
C801   C802    1.418   .     S
C801   O869    1.279   .     A
C801   O873    1.279   .     A
C802   C837    1.397   .     A
C802   C834    1.397   .     A
C803   N868    1.365   .     A
C803   H866    1.082   .     S
C803   C1286   1.413   1_545 S
C804   H840    1.082   .     S
C804   N867    1.365   .     A
C804   C1045   1.413   .     S
C805   N868    1.365   .     A
C805   H841    1.082   .     S
C805   C1284   1.413   1_545 S
C806   N867    1.365   .     A
C806   H842    1.081   .     S
C806   C1043   1.413   .     S
C807   O877    1.283   .     A
C807   O874    1.293   .     A
C807   C813    1.453   .     S
C808   O876    1.282   .     A
C808   O875    1.286   .     A
C808   C811    1.439   .     S
C809   C825    1.532   .     S
C809   C820    1.410   .     A
C809   C811    1.415   .     A
C810   C821    1.409   .     A
C810   C828    1.533   .     S
C810   C813    1.422   .     A
C811   C814    1.394   .     A
C812   O872    1.279   .     A
C812   O871    1.279   .     A
C812   C838    1.417   .     S
C813   C815    1.399   .     A
C814   H839    1.085   .     S
C814   C816    1.377   .     A
C815   H850    1.085   .     S
C815   C817    1.378   .     A
C816   C822    1.396   .     A
C816   C818    1.405   .     A
C817   C824    1.397   .     A
C817   C819    1.403   .     A
C818   C820    1.418   .     A
C818   C99     1.391   1_556 S
C819   C821    1.416   .     A
C820   C833    1.421   .     A
C821   C823    1.421   .     A
C822   H860    1.085   .     S
C822   C103    1.397   1_556 S
C823   C831    1.488   .     S
C824   H861    1.085   .     S
C825   C826    1.540   .     S
C825   H848    1.108   .     S
C825   H849    1.107   .     S
C826   C827    1.527   .     S
C826   H847    1.108   .     S
C826   H846    1.112   .     S
C827   H844    1.111   .     S
C827   H845    1.111   .     S
C827   H843    1.111   .     S
C828   H856    1.109   .     S
C828   H857    1.108   .     S
C828   C829    1.540   .     S
C829   H854    1.112   .     S
C829   H855    1.109   .     S
C829   C830    1.527   .     S
C830   H851    1.111   .     S
C830   H852    1.111   .     S
C830   H853    1.110   .     S
C831   H858    1.085   .     S
C831   O878    1.221   .     D
C832   O870    1.221   .     D
C832   C833    1.487   .     S
C832   H859    1.085   .     S
C833   C104    1.397   1_556 S
C834   H862    1.084   .     S
C835   C838    1.397   .     A
C835   H863    1.084   .     S
C835   C917    1.370   .     S
C836   C838    1.397   .     A
C836   H864    1.084   .     S
C836   C914    1.370   .     S
C837   H865    1.084   .     S
N867   Zn879   2.001   .     S
N868   Zn880   2.001   .     S
O869   Zn879   1.998   .     S
O871   Zn880   1.998   .     S
O872   Zn879   1.998   .     S
O873   Zn880   1.998   .     S
O874   Zn879   2.010   .     S
O875   Zn880   2.010   .     S
O876   Zn879   2.024   .     S
O877   Zn880   2.024   .     S
C881   C882    1.418   .     S
C881   O949    1.279   .     A
C881   O953    1.279   .     A
C882   C917    1.397   .     A
C882   C914    1.397   .     A
C883   N948    1.365   .     A
C883   H946    1.082   .     S
C883   C1366   1.413   1_545 S
C884   H920    1.082   .     S
C884   N947    1.365   .     A
C884   C1125   1.413   .     S
C885   N948    1.365   .     A
C885   H921    1.082   .     S
C885   C1364   1.413   1_545 S
C886   N947    1.365   .     A
C886   H922    1.081   .     S
C886   C1123   1.413   .     S
C887   O957    1.283   .     A
C887   O954    1.293   .     A
C887   C893    1.453   .     S
C888   O956    1.282   .     A
C888   O955    1.286   .     A
C888   C891    1.439   .     S
C889   C905    1.532   .     S
C889   C900    1.410   .     A
C889   C891    1.415   .     A
C890   C901    1.409   .     A
C890   C908    1.533   .     S
C890   C893    1.422   .     A
C891   C894    1.394   .     A
C892   O952    1.279   .     A
C892   O951    1.279   .     A
C892   C918    1.417   .     S
C893   C895    1.399   .     A
C894   H919    1.085   .     S
C894   C896    1.377   .     A
C895   H930    1.085   .     S
C895   C897    1.378   .     A
C896   C902    1.396   .     A
C896   C898    1.405   .     A
C897   C904    1.397   .     A
C897   C899    1.403   .     A
C898   C900    1.418   .     A
C898   C179    1.391   1_556 S
C899   C901    1.416   .     A
C900   C913    1.421   .     A
C901   C903    1.421   .     A
C902   H940    1.085   .     S
C902   C183    1.397   1_556 S
C903   C911    1.488   .     S
C904   H941    1.085   .     S
C905   C906    1.540   .     S
C905   H928    1.108   .     S
C905   H929    1.107   .     S
C906   C907    1.527   .     S
C906   H927    1.108   .     S
C906   H926    1.112   .     S
C907   H924    1.111   .     S
C907   H925    1.111   .     S
C907   H923    1.111   .     S
C908   H936    1.109   .     S
C908   H937    1.108   .     S
C908   C909    1.540   .     S
C909   H934    1.112   .     S
C909   H935    1.109   .     S
C909   C910    1.527   .     S
C910   H931    1.111   .     S
C910   H932    1.111   .     S
C910   H933    1.110   .     S
C911   H938    1.085   .     S
C911   O958    1.221   .     D
C912   O950    1.221   .     D
C912   C913    1.487   .     S
C912   H939    1.085   .     S
C913   C184    1.397   1_556 S
C914   H942    1.084   .     S
C915   C918    1.397   .     A
C915   H943    1.084   .     S
C915   C757    1.370   1_655 S
C916   C918    1.397   .     A
C916   H944    1.084   .     S
C916   C754    1.370   1_655 S
C917   H945    1.084   .     S
N947   Zn959   2.001   .     S
N948   Zn960   2.001   .     S
O949   Zn959   1.998   .     S
O951   Zn960   1.998   .     S
O952   Zn959   1.998   .     S
O953   Zn960   1.998   .     S
O954   Zn959   2.010   .     S
O955   Zn960   2.010   .     S
O956   Zn959   2.024   .     S
O957   Zn960   2.024   .     S
C961   C962    1.418   .     S
C961   O1029   1.279   .     A
C961   O1033   1.279   .     A
C962   C997    1.397   .     A
C962   C994    1.397   .     A
C963   N1028   1.365   .     A
C963   H1026   1.082   .     S
C964   H1000   1.082   .     S
C964   N1027   1.365   .     A
C964   C1205   1.413   .     S
C965   N1028   1.365   .     A
C965   H1001   1.082   .     S
C966   N1027   1.365   .     A
C966   H1002   1.081   .     S
C966   C1203   1.413   .     S
C967   O1037   1.283   .     A
C967   O1034   1.293   .     A
C967   C973    1.453   .     S
C968   O1036   1.282   .     A
C968   O1035   1.286   .     A
C968   C971    1.439   .     S
C969   C985    1.532   .     S
C969   C980    1.410   .     A
C969   C971    1.415   .     A
C970   C981    1.409   .     A
C970   C988    1.533   .     S
C970   C973    1.422   .     A
C971   C974    1.394   .     A
C972   O1032   1.279   .     A
C972   O1031   1.279   .     A
C972   C998    1.417   .     S
C973   C975    1.399   .     A
C974   H999    1.085   .     S
C974   C976    1.377   .     A
C975   H1010   1.085   .     S
C975   C977    1.378   .     A
C976   C982    1.396   .     A
C976   C978    1.405   .     A
C977   C984    1.397   .     A
C977   C979    1.403   .     A
C978   C980    1.418   .     A
C978   C259    1.391   1_556 S
C979   C981    1.416   .     A
C980   C993    1.421   .     A
C981   C983    1.421   .     A
C982   H1020   1.085   .     S
C982   C263    1.397   1_556 S
C983   C991    1.488   .     S
C984   H1021   1.085   .     S
C985   C986    1.540   .     S
C985   H1008   1.108   .     S
C985   H1009   1.107   .     S
C986   C987    1.527   .     S
C986   H1007   1.108   .     S
C986   H1006   1.112   .     S
C987   H1004   1.111   .     S
C987   H1005   1.111   .     S
C987   H1003   1.111   .     S
C988   H1016   1.109   .     S
C988   H1017   1.108   .     S
C988   C989    1.540   .     S
C989   H1014   1.112   .     S
C989   H1015   1.109   .     S
C989   C990    1.527   .     S
C990   H1011   1.111   .     S
C990   H1012   1.111   .     S
C990   H1013   1.110   .     S
C991   H1018   1.085   .     S
C991   O1038   1.221   .     D
C992   O1030   1.221   .     D
C992   C993    1.487   .     S
C992   H1019   1.085   .     S
C993   C264    1.397   1_556 S
C994   H1022   1.084   .     S
C994   C1156   1.370   1_455 S
C995   C998    1.397   .     A
C995   H1023   1.084   .     S
C995   C1077   1.370   .     S
C996   C998    1.397   .     A
C996   H1024   1.084   .     S
C996   C1074   1.370   .     S
C997   H1025   1.084   .     S
C997   C1155   1.370   1_455 S
N1027  Zn1039  2.001   .     S
N1028  Zn1040  2.001   .     S
O1029  Zn1039  1.998   .     S
O1031  Zn1040  1.998   .     S
O1032  Zn1039  1.998   .     S
O1033  Zn1040  1.998   .     S
O1034  Zn1039  2.010   .     S
O1035  Zn1040  2.010   .     S
O1036  Zn1039  2.024   .     S
O1037  Zn1040  2.024   .     S
C1041  C1042   1.418   .     S
C1041  O1109   1.279   .     A
C1041  O1113   1.279   .     A
C1042  C1077   1.397   .     A
C1042  C1074   1.397   .     A
C1043  N1108   1.365   .     A
C1043  H1106   1.082   .     S
C1044  H1080   1.082   .     S
C1044  N1107   1.365   .     A
C1044  C1285   1.413   .     S
C1045  N1108   1.365   .     A
C1045  H1081   1.082   .     S
C1046  N1107   1.365   .     A
C1046  H1082   1.081   .     S
C1046  C1283   1.413   .     S
C1047  O1117   1.283   .     A
C1047  O1114   1.293   .     A
C1047  C1053   1.453   .     S
C1048  O1116   1.282   .     A
C1048  O1115   1.286   .     A
C1048  C1051   1.439   .     S
C1049  C1065   1.532   .     S
C1049  C1060   1.410   .     A
C1049  C1051   1.415   .     A
C1050  C1061   1.409   .     A
C1050  C1068   1.533   .     S
C1050  C1053   1.422   .     A
C1051  C1054   1.394   .     A
C1052  O1112   1.279   .     A
C1052  O1111   1.279   .     A
C1052  C1078   1.417   .     S
C1053  C1055   1.399   .     A
C1054  H1079   1.085   .     S
C1054  C1056   1.377   .     A
C1055  H1090   1.085   .     S
C1055  C1057   1.378   .     A
C1056  C1062   1.396   .     A
C1056  C1058   1.405   .     A
C1057  C1064   1.397   .     A
C1057  C1059   1.403   .     A
C1058  C1060   1.418   .     A
C1058  C339    1.391   1_556 S
C1059  C1061   1.416   .     A
C1060  C1073   1.421   .     A
C1061  C1063   1.421   .     A
C1062  H1100   1.085   .     S
C1062  C343    1.397   1_556 S
C1063  C1071   1.488   .     S
C1064  H1101   1.085   .     S
C1065  C1066   1.540   .     S
C1065  H1088   1.108   .     S
C1065  H1089   1.107   .     S
C1066  C1067   1.527   .     S
C1066  H1087   1.108   .     S
C1066  H1086   1.112   .     S
C1067  H1084   1.111   .     S
C1067  H1085   1.111   .     S
C1067  H1083   1.111   .     S
C1068  H1096   1.109   .     S
C1068  H1097   1.108   .     S
C1068  C1069   1.540   .     S
C1069  H1094   1.112   .     S
C1069  H1095   1.109   .     S
C1069  C1070   1.527   .     S
C1070  H1091   1.111   .     S
C1070  H1092   1.111   .     S
C1070  H1093   1.110   .     S
C1071  H1098   1.085   .     S
C1071  O1118   1.221   .     D
C1072  O1110   1.221   .     D
C1072  C1073   1.487   .     S
C1072  H1099   1.085   .     S
C1073  C344    1.397   1_556 S
C1074  H1102   1.084   .     S
C1075  C1078   1.397   .     A
C1075  H1103   1.084   .     S
C1075  C1157   1.370   .     S
C1076  C1078   1.397   .     A
C1076  H1104   1.084   .     S
C1076  C1154   1.370   .     S
C1077  H1105   1.084   .     S
N1107  Zn1119  2.001   .     S
N1108  Zn1120  2.001   .     S
O1109  Zn1119  1.998   .     S
O1111  Zn1120  1.998   .     S
O1112  Zn1119  1.998   .     S
O1113  Zn1120  1.998   .     S
O1114  Zn1119  2.010   .     S
O1115  Zn1120  2.010   .     S
O1116  Zn1119  2.024   .     S
O1117  Zn1120  2.024   .     S
C1121  C1122   1.418   .     S
C1121  O1189   1.279   .     A
C1121  O1193   1.279   .     A
C1122  C1157   1.397   .     A
C1122  C1154   1.397   .     A
C1123  N1188   1.365   .     A
C1123  H1186   1.082   .     S
C1124  H1160   1.082   .     S
C1124  N1187   1.365   .     A
C1124  C1365   1.413   .     S
C1125  N1188   1.365   .     A
C1125  H1161   1.082   .     S
C1126  N1187   1.365   .     A
C1126  H1162   1.081   .     S
C1126  C1363   1.413   .     S
C1127  O1197   1.283   .     A
C1127  O1194   1.293   .     A
C1127  C1133   1.453   .     S
C1128  O1196   1.282   .     A
C1128  O1195   1.286   .     A
C1128  C1131   1.439   .     S
C1129  C1145   1.532   .     S
C1129  C1140   1.410   .     A
C1129  C1131   1.415   .     A
C1130  C1141   1.409   .     A
C1130  C1148   1.533   .     S
C1130  C1133   1.422   .     A
C1131  C1134   1.394   .     A
C1132  O1192   1.279   .     A
C1132  O1191   1.279   .     A
C1132  C1158   1.417   .     S
C1133  C1135   1.399   .     A
C1134  H1159   1.085   .     S
C1134  C1136   1.377   .     A
C1135  H1170   1.085   .     S
C1135  C1137   1.378   .     A
C1136  C1142   1.396   .     A
C1136  C1138   1.405   .     A
C1137  C1144   1.397   .     A
C1137  C1139   1.403   .     A
C1138  C1140   1.418   .     A
C1138  C419    1.391   1_556 S
C1139  C1141   1.416   .     A
C1140  C1153   1.421   .     A
C1141  C1143   1.421   .     A
C1142  H1180   1.085   .     S
C1142  C423    1.397   1_556 S
C1143  C1151   1.488   .     S
C1144  H1181   1.085   .     S
C1145  C1146   1.540   .     S
C1145  H1168   1.108   .     S
C1145  H1169   1.107   .     S
C1146  C1147   1.527   .     S
C1146  H1167   1.108   .     S
C1146  H1166   1.112   .     S
C1147  H1164   1.111   .     S
C1147  H1165   1.111   .     S
C1147  H1163   1.111   .     S
C1148  H1176   1.109   .     S
C1148  H1177   1.108   .     S
C1148  C1149   1.540   .     S
C1149  H1174   1.112   .     S
C1149  H1175   1.109   .     S
C1149  C1150   1.527   .     S
C1150  H1171   1.111   .     S
C1150  H1172   1.111   .     S
C1150  H1173   1.110   .     S
C1151  H1178   1.085   .     S
C1151  O1198   1.221   .     D
C1152  O1190   1.221   .     D
C1152  C1153   1.487   .     S
C1152  H1179   1.085   .     S
C1153  C424    1.397   1_556 S
C1154  H1182   1.084   .     S
C1155  C1158   1.397   .     A
C1155  H1183   1.084   .     S
C1155  C997    1.370   1_655 S
C1156  C1158   1.397   .     A
C1156  H1184   1.084   .     S
C1156  C994    1.370   1_655 S
C1157  H1185   1.084   .     S
N1187  Zn1199  2.001   .     S
N1188  Zn1200  2.001   .     S
O1189  Zn1199  1.998   .     S
O1191  Zn1200  1.998   .     S
O1192  Zn1199  1.998   .     S
O1193  Zn1200  1.998   .     S
O1194  Zn1199  2.010   .     S
O1195  Zn1200  2.010   .     S
O1196  Zn1199  2.024   .     S
O1197  Zn1200  2.024   .     S
C1201  C1202   1.418   .     S
C1201  O1269   1.279   .     A
C1201  O1273   1.279   .     A
C1202  C1237   1.397   .     A
C1202  C1234   1.397   .     A
C1203  N1268   1.365   .     A
C1203  H1266   1.082   .     S
C1204  H1240   1.082   .     S
C1204  N1267   1.365   .     A
C1204  C725    1.413   1_565 S
C1205  N1268   1.365   .     A
C1205  H1241   1.082   .     S
C1206  N1267   1.365   .     A
C1206  H1242   1.081   .     S
C1206  C723    1.413   1_565 S
C1207  O1277   1.283   .     A
C1207  O1274   1.293   .     A
C1207  C1213   1.453   .     S
C1208  O1276   1.282   .     A
C1208  O1275   1.286   .     A
C1208  C1211   1.439   .     S
C1209  C1225   1.532   .     S
C1209  C1220   1.410   .     A
C1209  C1211   1.415   .     A
C1210  C1221   1.409   .     A
C1210  C1228   1.533   .     S
C1210  C1213   1.422   .     A
C1211  C1214   1.394   .     A
C1212  O1272   1.279   .     A
C1212  O1271   1.279   .     A
C1212  C1238   1.417   .     S
C1213  C1215   1.399   .     A
C1214  H1239   1.085   .     S
C1214  C1216   1.377   .     A
C1215  H1250   1.085   .     S
C1215  C1217   1.378   .     A
C1216  C1222   1.396   .     A
C1216  C1218   1.405   .     A
C1217  C1224   1.397   .     A
C1217  C1219   1.403   .     A
C1218  C1220   1.418   .     A
C1218  C499    1.391   1_556 S
C1219  C1221   1.416   .     A
C1220  C1233   1.421   .     A
C1221  C1223   1.421   .     A
C1222  H1260   1.085   .     S
C1222  C503    1.397   1_556 S
C1223  C1231   1.488   .     S
C1224  H1261   1.085   .     S
C1225  C1226   1.540   .     S
C1225  H1248   1.108   .     S
C1225  H1249   1.107   .     S
C1226  C1227   1.527   .     S
C1226  H1247   1.108   .     S
C1226  H1246   1.112   .     S
C1227  H1244   1.111   .     S
C1227  H1245   1.111   .     S
C1227  H1243   1.111   .     S
C1228  H1256   1.109   .     S
C1228  H1257   1.108   .     S
C1228  C1229   1.540   .     S
C1229  H1254   1.112   .     S
C1229  H1255   1.109   .     S
C1229  C1230   1.527   .     S
C1230  H1251   1.111   .     S
C1230  H1252   1.111   .     S
C1230  H1253   1.110   .     S
C1231  H1258   1.085   .     S
C1231  O1278   1.221   .     D
C1232  O1270   1.221   .     D
C1232  C1233   1.487   .     S
C1232  H1259   1.085   .     S
C1233  C504    1.397   1_556 S
C1234  H1262   1.084   .     S
C1234  C1396   1.370   1_455 S
C1235  C1238   1.397   .     A
C1235  H1263   1.084   .     S
C1235  C1317   1.370   .     S
C1236  C1238   1.397   .     A
C1236  H1264   1.084   .     S
C1236  C1314   1.370   .     S
C1237  H1265   1.084   .     S
C1237  C1395   1.370   1_455 S
N1267  Zn1279  2.001   .     S
N1268  Zn1280  2.001   .     S
O1269  Zn1279  1.998   .     S
O1271  Zn1280  1.998   .     S
O1272  Zn1279  1.998   .     S
O1273  Zn1280  1.998   .     S
O1274  Zn1279  2.010   .     S
O1275  Zn1280  2.010   .     S
O1276  Zn1279  2.024   .     S
O1277  Zn1280  2.024   .     S
C1281  C1282   1.418   .     S
C1281  O1349   1.279   .     A
C1281  O1353   1.279   .     A
C1282  C1317   1.397   .     A
C1282  C1314   1.397   .     A
C1283  N1348   1.365   .     A
C1283  H1346   1.082   .     S
C1284  H1320   1.082   .     S
C1284  N1347   1.365   .     A
C1284  C805    1.413   1_565 S
C1285  N1348   1.365   .     A
C1285  H1321   1.082   .     S
C1286  N1347   1.365   .     A
C1286  H1322   1.081   .     S
C1286  C803    1.413   1_565 S
C1287  O1357   1.283   .     A
C1287  O1354   1.293   .     A
C1287  C1293   1.453   .     S
C1288  O1356   1.282   .     A
C1288  O1355   1.286   .     A
C1288  C1291   1.439   .     S
C1289  C1305   1.532   .     S
C1289  C1300   1.410   .     A
C1289  C1291   1.415   .     A
C1290  C1301   1.409   .     A
C1290  C1308   1.533   .     S
C1290  C1293   1.422   .     A
C1291  C1294   1.394   .     A
C1292  O1352   1.279   .     A
C1292  O1351   1.279   .     A
C1292  C1318   1.417   .     S
C1293  C1295   1.399   .     A
C1294  H1319   1.085   .     S
C1294  C1296   1.377   .     A
C1295  H1330   1.085   .     S
C1295  C1297   1.378   .     A
C1296  C1302   1.396   .     A
C1296  C1298   1.405   .     A
C1297  C1304   1.397   .     A
C1297  C1299   1.403   .     A
C1298  C1300   1.418   .     A
C1298  C579    1.391   1_556 S
C1299  C1301   1.416   .     A
C1300  C1313   1.421   .     A
C1301  C1303   1.421   .     A
C1302  H1340   1.085   .     S
C1302  C583    1.397   1_556 S
C1303  C1311   1.488   .     S
C1304  H1341   1.085   .     S
C1305  C1306   1.540   .     S
C1305  H1328   1.108   .     S
C1305  H1329   1.107   .     S
C1306  C1307   1.527   .     S
C1306  H1327   1.108   .     S
C1306  H1326   1.112   .     S
C1307  H1324   1.111   .     S
C1307  H1325   1.111   .     S
C1307  H1323   1.111   .     S
C1308  H1336   1.109   .     S
C1308  H1337   1.108   .     S
C1308  C1309   1.540   .     S
C1309  H1334   1.112   .     S
C1309  H1335   1.109   .     S
C1309  C1310   1.527   .     S
C1310  H1331   1.111   .     S
C1310  H1332   1.111   .     S
C1310  H1333   1.110   .     S
C1311  H1338   1.085   .     S
C1311  O1358   1.221   .     D
C1312  O1350   1.221   .     D
C1312  C1313   1.487   .     S
C1312  H1339   1.085   .     S
C1313  C584    1.397   1_556 S
C1314  H1342   1.084   .     S
C1315  C1318   1.397   .     A
C1315  H1343   1.084   .     S
C1315  C1397   1.370   .     S
C1316  C1318   1.397   .     A
C1316  H1344   1.084   .     S
C1316  C1394   1.370   .     S
C1317  H1345   1.084   .     S
N1347  Zn1359  2.001   .     S
N1348  Zn1360  2.001   .     S
O1349  Zn1359  1.998   .     S
O1351  Zn1360  1.998   .     S
O1352  Zn1359  1.998   .     S
O1353  Zn1360  1.998   .     S
O1354  Zn1359  2.010   .     S
O1355  Zn1360  2.010   .     S
O1356  Zn1359  2.024   .     S
O1357  Zn1360  2.024   .     S
C1361  C1362   1.418   .     S
C1361  O1429   1.279   .     A
C1361  O1433   1.279   .     A
C1362  C1397   1.397   .     A
C1362  C1394   1.397   .     A
C1363  N1428   1.365   .     A
C1363  H1426   1.082   .     S
C1364  H1400   1.082   .     S
C1364  N1427   1.365   .     A
C1364  C885    1.413   1_565 S
C1365  N1428   1.365   .     A
C1365  H1401   1.082   .     S
C1366  N1427   1.365   .     A
C1366  H1402   1.081   .     S
C1366  C883    1.413   1_565 S
C1367  O1437   1.283   .     A
C1367  O1434   1.293   .     A
C1367  C1373   1.453   .     S
C1368  O1436   1.282   .     A
C1368  O1435   1.286   .     A
C1368  C1371   1.439   .     S
C1369  C1385   1.532   .     S
C1369  C1380   1.410   .     A
C1369  C1371   1.415   .     A
C1370  C1381   1.409   .     A
C1370  C1388   1.533   .     S
C1370  C1373   1.422   .     A
C1371  C1374   1.394   .     A
C1372  O1432   1.279   .     A
C1372  O1431   1.279   .     A
C1372  C1398   1.417   .     S
C1373  C1375   1.399   .     A
C1374  H1399   1.085   .     S
C1374  C1376   1.377   .     A
C1375  H1410   1.085   .     S
C1375  C1377   1.378   .     A
C1376  C1382   1.396   .     A
C1376  C1378   1.405   .     A
C1377  C1384   1.397   .     A
C1377  C1379   1.403   .     A
C1378  C1380   1.418   .     A
C1378  C659    1.391   1_556 S
C1379  C1381   1.416   .     A
C1380  C1393   1.421   .     A
C1381  C1383   1.421   .     A
C1382  H1420   1.085   .     S
C1382  C663    1.397   1_556 S
C1383  C1391   1.488   .     S
C1384  H1421   1.085   .     S
C1385  C1386   1.540   .     S
C1385  H1408   1.108   .     S
C1385  H1409   1.107   .     S
C1386  C1387   1.527   .     S
C1386  H1407   1.108   .     S
C1386  H1406   1.112   .     S
C1387  H1404   1.111   .     S
C1387  H1405   1.111   .     S
C1387  H1403   1.111   .     S
C1388  H1416   1.109   .     S
C1388  H1417   1.108   .     S
C1388  C1389   1.540   .     S
C1389  H1414   1.112   .     S
C1389  H1415   1.109   .     S
C1389  C1390   1.527   .     S
C1390  H1411   1.111   .     S
C1390  H1412   1.111   .     S
C1390  H1413   1.110   .     S
C1391  H1418   1.085   .     S
C1391  O1438   1.221   .     D
C1392  O1430   1.221   .     D
C1392  C1393   1.487   .     S
C1392  H1419   1.085   .     S
C1393  C664    1.397   1_556 S
C1394  H1422   1.084   .     S
C1395  C1398   1.397   .     A
C1395  H1423   1.084   .     S
C1395  C1237   1.370   1_655 S
C1396  C1398   1.397   .     A
C1396  H1424   1.084   .     S
C1396  C1234   1.370   1_655 S
C1397  H1425   1.084   .     S
N1427  Zn1439  2.001   .     S
N1428  Zn1440  2.001   .     S
O1429  Zn1439  1.998   .     S
O1431  Zn1440  1.998   .     S
O1432  Zn1439  1.998   .     S
O1433  Zn1440  1.998   .     S
O1434  Zn1439  2.010   .     S
O1435  Zn1440  2.010   .     S
O1436  Zn1439  2.024   .     S
O1437  Zn1440  2.024   .     S
