data_str_m2_o1_o1_pcu_sym.83
_audit_creation_date              2020-01-03
_audit_creation_method            'Materials Studio'
_symmetry_space_group_name_H-M    'P1'
_symmetry_Int_Tables_number       1
_symmetry_cell_setting            triclinic
loop_
_symmetry_equiv_pos_as_xyz
  x,y,z
_cell_length_a                    32.6884
_cell_length_b                    29.2757
_cell_length_c                    28.7552
_cell_angle_alpha                 90.0000
_cell_angle_beta                  89.9999
_cell_angle_gamma                 89.9999
loop_
_atom_site_label
_atom_site_type_symbol
_atom_site_fract_x
_atom_site_fract_y
_atom_site_fract_z
_atom_site_U_iso_or_equiv
_atom_site_adp_type
_atom_site_occupancy
C1     C     0.06061   0.19202   0.16667   0.00000  Uiso   1.00
C2     C     0.00000   0.29043   0.30856   0.00000  Uiso   1.00
C3     C    -0.00000   0.29043   0.02477   0.00000  Uiso   1.00
C4     C     0.00000   0.20957   0.30856   0.00000  Uiso   1.00
C5     C     0.25000   0.45957   0.02477   0.00000  Uiso   1.00
C6     C     0.25000   0.04043   0.30856   0.00000  Uiso   1.00
C7     C     0.25000   0.04043   0.02477   0.00000  Uiso   1.00
C8     C     0.25000   0.45957   0.30856   0.00000  Uiso   1.00
C9     C     0.38887   0.14320   0.12418   0.00000  Uiso   1.00
C10    C     0.11113   0.35680   0.20915   0.00000  Uiso   1.00
C11    C     0.11113   0.35680   0.12418   0.00000  Uiso   1.00
C12    C     0.43939   0.30798   0.16667   0.00000  Uiso   1.00
C13    C     0.38887   0.14320   0.20915   0.00000  Uiso   1.00
C14    C     0.11113   0.14320   0.20915   0.00000  Uiso   1.00
C15    C     0.38887   0.35680   0.12418   0.00000  Uiso   1.00
C16    C     0.38887   0.35680   0.20915   0.00000  Uiso   1.00
C17    C     0.11113   0.14320   0.12418   0.00000  Uiso   1.00
C18    C     0.13887   0.39320   0.12418   0.00000  Uiso   1.00
C19    C     0.36113   0.10680   0.20915   0.00000  Uiso   1.00
C20    C     0.36113   0.10680   0.12418   0.00000  Uiso   1.00
C21    C     0.13887   0.39320   0.20915   0.00000  Uiso   1.00
C22    C     0.36113   0.39320   0.20915   0.00000  Uiso   1.00
C23    C     0.43939   0.19202   0.16667   0.00000  Uiso   1.00
C24    C     0.13887   0.10680   0.12418   0.00000  Uiso   1.00
C25    C     0.13887   0.10680   0.20915   0.00000  Uiso   1.00
C26    C     0.36113   0.39320   0.12418   0.00000  Uiso   1.00
C27    C     0.09515   0.34038   0.16667   0.00000  Uiso   1.00
C28    C     0.40485   0.15962   0.16667   0.00000  Uiso   1.00
C29    C     0.40485   0.34038   0.16667   0.00000  Uiso   1.00
C30    C     0.09515   0.15962   0.16667   0.00000  Uiso   1.00
C31    C     0.34515   0.09038   0.16667   0.00000  Uiso   1.00
C32    C     0.15485   0.40962   0.16667   0.00000  Uiso   1.00
C33    C     0.15485   0.09038   0.16667   0.00000  Uiso   1.00
C34    C     0.06061   0.30798   0.16667   0.00000  Uiso   1.00
C35    C     0.34515   0.40962   0.16667   0.00000  Uiso   1.00
C36    C     0.31061   0.44202   0.16667   0.00000  Uiso   1.00
C37    C     0.18939   0.05798   0.16667   0.00000  Uiso   1.00
C38    C     0.18939   0.44202   0.16667   0.00000  Uiso   1.00
C39    C     0.31061   0.05798   0.16667   0.00000  Uiso   1.00
C40    C     0.00000   0.20957   0.02477   0.00000  Uiso   1.00
Cu41   Cu    0.00000   0.25000   0.21355   0.00000  Uiso   1.00
Cu42   Cu    0.00000   0.25000   0.11978   0.00000  Uiso   1.00
Cu43   Cu    0.25000   0.00000   0.21355   0.00000  Uiso   1.00
Cu44   Cu    0.25000   0.00000   0.11978   0.00000  Uiso   1.00
H45    H     0.37216   0.18008   0.06758   0.00000  Uiso   1.00
H46    H     0.09058   0.14117   0.27613   0.00000  Uiso   1.00
H47    H     0.37215   0.31992   0.06758   0.00000  Uiso   1.00
H48    H     0.40942   0.35883   0.05721   0.00000  Uiso   1.00
H49    H     0.37216   0.31993   0.26576   0.00000  Uiso   1.00
H50    H     0.40942   0.35884   0.27612   0.00000  Uiso   1.00
H51    H     0.12784   0.18007   0.06758   0.00000  Uiso   1.00
H52    H     0.09058   0.14116   0.05721   0.00000  Uiso   1.00
H53    H     0.12216   0.43008   0.06758   0.00000  Uiso   1.00
H54    H     0.15942   0.39117   0.05721   0.00000  Uiso   1.00
H55    H     0.37784   0.06992   0.26575   0.00000  Uiso   1.00
H56    H     0.40942   0.14117   0.05721   0.00000  Uiso   1.00
H57    H     0.34058   0.10884   0.27613   0.00000  Uiso   1.00
H58    H     0.37784   0.06993   0.06758   0.00000  Uiso   1.00
H59    H     0.34058   0.10884   0.05721   0.00000  Uiso   1.00
H60    H     0.12216   0.43007   0.26576   0.00000  Uiso   1.00
H61    H     0.15942   0.39116   0.27612   0.00000  Uiso   1.00
H62    H     0.37785   0.43008   0.26575   0.00000  Uiso   1.00
H63    H     0.34058   0.39117   0.27613   0.00000  Uiso   1.00
H64    H     0.12215   0.06992   0.06758   0.00000  Uiso   1.00
H65    H     0.15942   0.10883   0.05721   0.00000  Uiso   1.00
H66    H     0.12216   0.06993   0.26576   0.00000  Uiso   1.00
H67    H     0.12784   0.31992   0.26575   0.00000  Uiso   1.00
H68    H     0.15942   0.10884   0.27612   0.00000  Uiso   1.00
H69    H     0.37784   0.43007   0.06758   0.00000  Uiso   1.00
H70    H     0.34058   0.39116   0.05721   0.00000  Uiso   1.00
H71    H     0.09058   0.35884   0.27613   0.00000  Uiso   1.00
H72    H     0.12784   0.31993   0.06758   0.00000  Uiso   1.00
H73    H     0.09058   0.35884   0.05721   0.00000  Uiso   1.00
H74    H     0.37216   0.18007   0.26576   0.00000  Uiso   1.00
H75    H     0.40942   0.14116   0.27612   0.00000  Uiso   1.00
H76    H     0.12785   0.18008   0.26575   0.00000  Uiso   1.00
I77    I    -0.00000   0.14480   0.05998   0.00000  Uiso   1.00
I78    I     0.00000   0.35520   0.27335   0.00000  Uiso   1.00
I79    I    -0.00000   0.35520   0.05998   0.00000  Uiso   1.00
I80    I     0.00000   0.14480   0.27335   0.00000  Uiso   1.00
I81    I     0.25000   0.39480   0.05998   0.00000  Uiso   1.00
I82    I     0.25000   0.10520   0.27335   0.00000  Uiso   1.00
I83    I     0.25000   0.10520   0.05998   0.00000  Uiso   1.00
I84    I     0.25000   0.39480   0.27335   0.00000  Uiso   1.00
N85    N     0.00000   0.25000   0.28402   0.00000  Uiso   1.00
N86    N     0.39878   0.33466   0.08101   0.00000  Uiso   1.00
N87    N     0.39879   0.33467   0.25232   0.00000  Uiso   1.00
N88    N     0.10121   0.16533   0.08101   0.00000  Uiso   1.00
N89    N     0.14878   0.41534   0.08101   0.00000  Uiso   1.00
N90    N     0.35122   0.08466   0.25232   0.00000  Uiso   1.00
N91    N     0.35121   0.08467   0.08101   0.00000  Uiso   1.00
N92    N     0.14879   0.41533   0.25232   0.00000  Uiso   1.00
N93    N     0.35122   0.41534   0.25232   0.00000  Uiso   1.00
N94    N     0.14878   0.08466   0.08101   0.00000  Uiso   1.00
N95    N     0.14879   0.08467   0.25232   0.00000  Uiso   1.00
N96    N     0.00000   0.25000   0.04931   0.00000  Uiso   1.00
N97    N     0.35121   0.41533   0.08101   0.00000  Uiso   1.00
N98    N     0.25000   0.00000   0.28402   0.00000  Uiso   1.00
N99    N     0.25000   0.00000   0.04931   0.00000  Uiso   1.00
N100   N     0.39878   0.16534   0.08101   0.00000  Uiso   1.00
N101   N     0.10122   0.33466   0.25232   0.00000  Uiso   1.00
N102   N     0.10121   0.33467   0.08101   0.00000  Uiso   1.00
N103   N     0.39879   0.16533   0.25232   0.00000  Uiso   1.00
N104   N     0.10122   0.16534   0.25232   0.00000  Uiso   1.00
O105   O     0.04509   0.20491   0.20625   0.00000  Uiso   1.00
O106   O     0.20492   0.04509   0.12709   0.00000  Uiso   1.00
O107   O     0.20492   0.04509   0.20625   0.00000  Uiso   1.00
O108   O     0.29509   0.45491   0.12709   0.00000  Uiso   1.00
O109   O     0.20492   0.45491   0.12709   0.00000  Uiso   1.00
O110   O     0.29509   0.04509   0.20625   0.00000  Uiso   1.00
O111   O     0.29509   0.04509   0.12709   0.00000  Uiso   1.00
O112   O     0.20492   0.45491   0.20625   0.00000  Uiso   1.00
O113   O     0.45492   0.29509   0.12709   0.00000  Uiso   1.00
O114   O     0.45492   0.29509   0.20625   0.00000  Uiso   1.00
O115   O     0.04509   0.20491   0.12709   0.00000  Uiso   1.00
O116   O     0.45492   0.20491   0.12709   0.00000  Uiso   1.00
O117   O     0.04509   0.29509   0.20625   0.00000  Uiso   1.00
O118   O     0.04509   0.29509   0.12709   0.00000  Uiso   1.00
O119   O     0.45492   0.20491   0.20625   0.00000  Uiso   1.00
O120   O     0.29509   0.45491   0.20625   0.00000  Uiso   1.00
C121   C     0.56061   0.19202   0.16667   0.00000  Uiso   1.00
C122   C     0.50000   0.29043   0.30856   0.00000  Uiso   1.00
C123   C     0.50000   0.29043   0.02477   0.00000  Uiso   1.00
C124   C     0.50000   0.20957   0.30856   0.00000  Uiso   1.00
C125   C     0.75000   0.45957   0.02477   0.00000  Uiso   1.00
C126   C     0.75000   0.04043   0.30856   0.00000  Uiso   1.00
C127   C     0.75000   0.04043   0.02477   0.00000  Uiso   1.00
C128   C     0.75000   0.45957   0.30856   0.00000  Uiso   1.00
C129   C     0.88887   0.14320   0.12418   0.00000  Uiso   1.00
C130   C     0.61113   0.35680   0.20915   0.00000  Uiso   1.00
C131   C     0.61113   0.35680   0.12418   0.00000  Uiso   1.00
C132   C     0.93939   0.30798   0.16667   0.00000  Uiso   1.00
C133   C     0.88887   0.14320   0.20915   0.00000  Uiso   1.00
C134   C     0.61113   0.14320   0.20915   0.00000  Uiso   1.00
C135   C     0.88887   0.35680   0.12418   0.00000  Uiso   1.00
C136   C     0.88887   0.35680   0.20915   0.00000  Uiso   1.00
C137   C     0.61113   0.14320   0.12418   0.00000  Uiso   1.00
C138   C     0.63887   0.39320   0.12418   0.00000  Uiso   1.00
C139   C     0.86113   0.10680   0.20915   0.00000  Uiso   1.00
C140   C     0.86113   0.10680   0.12418   0.00000  Uiso   1.00
C141   C     0.63887   0.39320   0.20915   0.00000  Uiso   1.00
C142   C     0.86113   0.39320   0.20915   0.00000  Uiso   1.00
C143   C     0.93939   0.19202   0.16667   0.00000  Uiso   1.00
C144   C     0.63887   0.10680   0.12418   0.00000  Uiso   1.00
C145   C     0.63887   0.10680   0.20915   0.00000  Uiso   1.00
C146   C     0.86113   0.39320   0.12418   0.00000  Uiso   1.00
C147   C     0.59515   0.34038   0.16667   0.00000  Uiso   1.00
C148   C     0.90485   0.15962   0.16667   0.00000  Uiso   1.00
C149   C     0.90485   0.34038   0.16667   0.00000  Uiso   1.00
C150   C     0.59515   0.15962   0.16667   0.00000  Uiso   1.00
C151   C     0.84515   0.09038   0.16667   0.00000  Uiso   1.00
C152   C     0.65485   0.40962   0.16667   0.00000  Uiso   1.00
C153   C     0.65485   0.09038   0.16667   0.00000  Uiso   1.00
C154   C     0.56061   0.30798   0.16667   0.00000  Uiso   1.00
C155   C     0.84515   0.40962   0.16667   0.00000  Uiso   1.00
C156   C     0.81061   0.44202   0.16667   0.00000  Uiso   1.00
C157   C     0.68939   0.05798   0.16667   0.00000  Uiso   1.00
C158   C     0.68939   0.44202   0.16667   0.00000  Uiso   1.00
C159   C     0.81061   0.05798   0.16667   0.00000  Uiso   1.00
C160   C     0.50000   0.20957   0.02477   0.00000  Uiso   1.00
Cu161  Cu    0.50000   0.25000   0.21355   0.00000  Uiso   1.00
Cu162  Cu    0.50000   0.25000   0.11978   0.00000  Uiso   1.00
Cu163  Cu    0.75000   0.00000   0.21355   0.00000  Uiso   1.00
Cu164  Cu    0.75000   0.00000   0.11978   0.00000  Uiso   1.00
H165   H     0.87216   0.18008   0.06758   0.00000  Uiso   1.00
H166   H     0.59058   0.14117   0.27613   0.00000  Uiso   1.00
H167   H     0.87215   0.31992   0.06758   0.00000  Uiso   1.00
H168   H     0.90942   0.35883   0.05721   0.00000  Uiso   1.00
H169   H     0.87216   0.31993   0.26576   0.00000  Uiso   1.00
H170   H     0.90942   0.35884   0.27612   0.00000  Uiso   1.00
H171   H     0.62784   0.18007   0.06758   0.00000  Uiso   1.00
H172   H     0.59058   0.14116   0.05721   0.00000  Uiso   1.00
H173   H     0.62216   0.43008   0.06758   0.00000  Uiso   1.00
H174   H     0.65942   0.39117   0.05721   0.00000  Uiso   1.00
H175   H     0.87784   0.06992   0.26575   0.00000  Uiso   1.00
H176   H     0.90942   0.14117   0.05721   0.00000  Uiso   1.00
H177   H     0.84058   0.10884   0.27613   0.00000  Uiso   1.00
H178   H     0.87784   0.06993   0.06758   0.00000  Uiso   1.00
H179   H     0.84058   0.10884   0.05721   0.00000  Uiso   1.00
H180   H     0.62216   0.43007   0.26576   0.00000  Uiso   1.00
H181   H     0.65942   0.39116   0.27612   0.00000  Uiso   1.00
H182   H     0.87785   0.43008   0.26575   0.00000  Uiso   1.00
H183   H     0.84058   0.39117   0.27613   0.00000  Uiso   1.00
H184   H     0.62215   0.06992   0.06758   0.00000  Uiso   1.00
H185   H     0.65942   0.10883   0.05721   0.00000  Uiso   1.00
H186   H     0.62216   0.06993   0.26576   0.00000  Uiso   1.00
H187   H     0.62784   0.31992   0.26575   0.00000  Uiso   1.00
H188   H     0.65942   0.10884   0.27612   0.00000  Uiso   1.00
H189   H     0.87784   0.43007   0.06758   0.00000  Uiso   1.00
H190   H     0.84058   0.39116   0.05721   0.00000  Uiso   1.00
H191   H     0.59058   0.35884   0.27613   0.00000  Uiso   1.00
H192   H     0.62784   0.31993   0.06758   0.00000  Uiso   1.00
H193   H     0.59058   0.35884   0.05721   0.00000  Uiso   1.00
H194   H     0.87216   0.18007   0.26576   0.00000  Uiso   1.00
H195   H     0.90942   0.14116   0.27612   0.00000  Uiso   1.00
H196   H     0.62785   0.18008   0.26575   0.00000  Uiso   1.00
I197   I     0.50000   0.14480   0.05998   0.00000  Uiso   1.00
I198   I     0.50000   0.35520   0.27335   0.00000  Uiso   1.00
I199   I     0.50000   0.35520   0.05998   0.00000  Uiso   1.00
I200   I     0.50000   0.14480   0.27335   0.00000  Uiso   1.00
I201   I     0.75000   0.39480   0.05998   0.00000  Uiso   1.00
I202   I     0.75000   0.10520   0.27335   0.00000  Uiso   1.00
I203   I     0.75000   0.10520   0.05998   0.00000  Uiso   1.00
I204   I     0.75000   0.39480   0.27335   0.00000  Uiso   1.00
N205   N     0.50000   0.25000   0.28402   0.00000  Uiso   1.00
N206   N     0.89878   0.33466   0.08101   0.00000  Uiso   1.00
N207   N     0.89879   0.33467   0.25232   0.00000  Uiso   1.00
N208   N     0.60121   0.16533   0.08101   0.00000  Uiso   1.00
N209   N     0.64878   0.41534   0.08101   0.00000  Uiso   1.00
N210   N     0.85122   0.08466   0.25232   0.00000  Uiso   1.00
N211   N     0.85121   0.08467   0.08101   0.00000  Uiso   1.00
N212   N     0.64879   0.41533   0.25232   0.00000  Uiso   1.00
N213   N     0.85122   0.41534   0.25232   0.00000  Uiso   1.00
N214   N     0.64878   0.08466   0.08101   0.00000  Uiso   1.00
N215   N     0.64879   0.08467   0.25232   0.00000  Uiso   1.00
N216   N     0.50000   0.25000   0.04931   0.00000  Uiso   1.00
N217   N     0.85121   0.41533   0.08101   0.00000  Uiso   1.00
N218   N     0.75000   0.00000   0.28402   0.00000  Uiso   1.00
N219   N     0.75000   0.00000   0.04931   0.00000  Uiso   1.00
N220   N     0.89878   0.16534   0.08101   0.00000  Uiso   1.00
N221   N     0.60122   0.33466   0.25232   0.00000  Uiso   1.00
N222   N     0.60121   0.33467   0.08101   0.00000  Uiso   1.00
N223   N     0.89879   0.16533   0.25232   0.00000  Uiso   1.00
N224   N     0.60122   0.16534   0.25232   0.00000  Uiso   1.00
O225   O     0.54509   0.20491   0.20625   0.00000  Uiso   1.00
O226   O     0.70492   0.04509   0.12709   0.00000  Uiso   1.00
O227   O     0.70492   0.04509   0.20625   0.00000  Uiso   1.00
O228   O     0.79509   0.45491   0.12709   0.00000  Uiso   1.00
O229   O     0.70492   0.45491   0.12709   0.00000  Uiso   1.00
O230   O     0.79509   0.04509   0.20625   0.00000  Uiso   1.00
O231   O     0.79509   0.04509   0.12709   0.00000  Uiso   1.00
O232   O     0.70492   0.45491   0.20625   0.00000  Uiso   1.00
O233   O     0.95492   0.29509   0.12709   0.00000  Uiso   1.00
O234   O     0.95492   0.29509   0.20625   0.00000  Uiso   1.00
O235   O     0.54509   0.20491   0.12709   0.00000  Uiso   1.00
O236   O     0.95492   0.20491   0.12709   0.00000  Uiso   1.00
O237   O     0.54509   0.29509   0.20625   0.00000  Uiso   1.00
O238   O     0.54509   0.29509   0.12709   0.00000  Uiso   1.00
O239   O     0.95492   0.20491   0.20625   0.00000  Uiso   1.00
O240   O     0.79509   0.45491   0.20625   0.00000  Uiso   1.00
C241   C     0.06061   0.69202   0.16667   0.00000  Uiso   1.00
C242   C     0.00000   0.79043   0.30856   0.00000  Uiso   1.00
C243   C    -0.00000   0.79043   0.02477   0.00000  Uiso   1.00
C244   C     0.00000   0.70957   0.30856   0.00000  Uiso   1.00
C245   C     0.25000   0.95957   0.02477   0.00000  Uiso   1.00
C246   C     0.25000   0.54043   0.30856   0.00000  Uiso   1.00
C247   C     0.25000   0.54043   0.02477   0.00000  Uiso   1.00
C248   C     0.25000   0.95957   0.30856   0.00000  Uiso   1.00
C249   C     0.38887   0.64320   0.12418   0.00000  Uiso   1.00
C250   C     0.11113   0.85680   0.20915   0.00000  Uiso   1.00
C251   C     0.11113   0.85680   0.12418   0.00000  Uiso   1.00
C252   C     0.43939   0.80798   0.16667   0.00000  Uiso   1.00
C253   C     0.38887   0.64320   0.20915   0.00000  Uiso   1.00
C254   C     0.11113   0.64320   0.20915   0.00000  Uiso   1.00
C255   C     0.38887   0.85680   0.12418   0.00000  Uiso   1.00
C256   C     0.38887   0.85680   0.20915   0.00000  Uiso   1.00
C257   C     0.11113   0.64320   0.12418   0.00000  Uiso   1.00
C258   C     0.13887   0.89320   0.12418   0.00000  Uiso   1.00
C259   C     0.36113   0.60680   0.20915   0.00000  Uiso   1.00
C260   C     0.36113   0.60680   0.12418   0.00000  Uiso   1.00
C261   C     0.13887   0.89320   0.20915   0.00000  Uiso   1.00
C262   C     0.36113   0.89320   0.20915   0.00000  Uiso   1.00
C263   C     0.43939   0.69202   0.16667   0.00000  Uiso   1.00
C264   C     0.13887   0.60680   0.12418   0.00000  Uiso   1.00
C265   C     0.13887   0.60680   0.20915   0.00000  Uiso   1.00
C266   C     0.36113   0.89320   0.12418   0.00000  Uiso   1.00
C267   C     0.09515   0.84038   0.16667   0.00000  Uiso   1.00
C268   C     0.40485   0.65962   0.16667   0.00000  Uiso   1.00
C269   C     0.40485   0.84038   0.16667   0.00000  Uiso   1.00
C270   C     0.09515   0.65962   0.16667   0.00000  Uiso   1.00
C271   C     0.34515   0.59038   0.16667   0.00000  Uiso   1.00
C272   C     0.15485   0.90962   0.16667   0.00000  Uiso   1.00
C273   C     0.15485   0.59038   0.16667   0.00000  Uiso   1.00
C274   C     0.06061   0.80798   0.16667   0.00000  Uiso   1.00
C275   C     0.34515   0.90962   0.16667   0.00000  Uiso   1.00
C276   C     0.31061   0.94202   0.16667   0.00000  Uiso   1.00
C277   C     0.18939   0.55798   0.16667   0.00000  Uiso   1.00
C278   C     0.18939   0.94202   0.16667   0.00000  Uiso   1.00
C279   C     0.31061   0.55798   0.16667   0.00000  Uiso   1.00
C280   C     0.00000   0.70957   0.02477   0.00000  Uiso   1.00
Cu281  Cu    0.00000   0.75000   0.21355   0.00000  Uiso   1.00
Cu282  Cu    0.00000   0.75000   0.11978   0.00000  Uiso   1.00
Cu283  Cu    0.25000   0.50000   0.21355   0.00000  Uiso   1.00
Cu284  Cu    0.25000   0.50000   0.11978   0.00000  Uiso   1.00
H285   H     0.37216   0.68008   0.06758   0.00000  Uiso   1.00
H286   H     0.09058   0.64117   0.27613   0.00000  Uiso   1.00
H287   H     0.37215   0.81992   0.06758   0.00000  Uiso   1.00
H288   H     0.40942   0.85883   0.05721   0.00000  Uiso   1.00
H289   H     0.37216   0.81993   0.26576   0.00000  Uiso   1.00
H290   H     0.40942   0.85884   0.27612   0.00000  Uiso   1.00
H291   H     0.12784   0.68007   0.06758   0.00000  Uiso   1.00
H292   H     0.09058   0.64116   0.05721   0.00000  Uiso   1.00
H293   H     0.12216   0.93008   0.06758   0.00000  Uiso   1.00
H294   H     0.15942   0.89117   0.05721   0.00000  Uiso   1.00
H295   H     0.37784   0.56992   0.26575   0.00000  Uiso   1.00
H296   H     0.40942   0.64117   0.05721   0.00000  Uiso   1.00
H297   H     0.34058   0.60884   0.27613   0.00000  Uiso   1.00
H298   H     0.37784   0.56993   0.06758   0.00000  Uiso   1.00
H299   H     0.34058   0.60884   0.05721   0.00000  Uiso   1.00
H300   H     0.12216   0.93007   0.26576   0.00000  Uiso   1.00
H301   H     0.15942   0.89116   0.27612   0.00000  Uiso   1.00
H302   H     0.37785   0.93008   0.26575   0.00000  Uiso   1.00
H303   H     0.34058   0.89117   0.27613   0.00000  Uiso   1.00
H304   H     0.12215   0.56992   0.06758   0.00000  Uiso   1.00
H305   H     0.15942   0.60883   0.05721   0.00000  Uiso   1.00
H306   H     0.12216   0.56993   0.26576   0.00000  Uiso   1.00
H307   H     0.12784   0.81992   0.26575   0.00000  Uiso   1.00
H308   H     0.15942   0.60884   0.27612   0.00000  Uiso   1.00
H309   H     0.37784   0.93007   0.06758   0.00000  Uiso   1.00
H310   H     0.34058   0.89116   0.05721   0.00000  Uiso   1.00
H311   H     0.09058   0.85884   0.27613   0.00000  Uiso   1.00
H312   H     0.12784   0.81993   0.06758   0.00000  Uiso   1.00
H313   H     0.09058   0.85884   0.05721   0.00000  Uiso   1.00
H314   H     0.37216   0.68007   0.26576   0.00000  Uiso   1.00
H315   H     0.40942   0.64116   0.27612   0.00000  Uiso   1.00
H316   H     0.12785   0.68008   0.26575   0.00000  Uiso   1.00
I317   I    -0.00000   0.64480   0.05998   0.00000  Uiso   1.00
I318   I     0.00000   0.85520   0.27335   0.00000  Uiso   1.00
I319   I    -0.00000   0.85520   0.05998   0.00000  Uiso   1.00
I320   I     0.00000   0.64480   0.27335   0.00000  Uiso   1.00
I321   I     0.25000   0.89480   0.05998   0.00000  Uiso   1.00
I322   I     0.25000   0.60520   0.27335   0.00000  Uiso   1.00
I323   I     0.25000   0.60520   0.05998   0.00000  Uiso   1.00
I324   I     0.25000   0.89480   0.27335   0.00000  Uiso   1.00
N325   N     0.00000   0.75000   0.28402   0.00000  Uiso   1.00
N326   N     0.39878   0.83466   0.08101   0.00000  Uiso   1.00
N327   N     0.39879   0.83467   0.25232   0.00000  Uiso   1.00
N328   N     0.10121   0.66533   0.08101   0.00000  Uiso   1.00
N329   N     0.14878   0.91534   0.08101   0.00000  Uiso   1.00
N330   N     0.35122   0.58466   0.25232   0.00000  Uiso   1.00
N331   N     0.35121   0.58467   0.08101   0.00000  Uiso   1.00
N332   N     0.14879   0.91533   0.25232   0.00000  Uiso   1.00
N333   N     0.35122   0.91534   0.25232   0.00000  Uiso   1.00
N334   N     0.14878   0.58466   0.08101   0.00000  Uiso   1.00
N335   N     0.14879   0.58467   0.25232   0.00000  Uiso   1.00
N336   N     0.00000   0.75000   0.04931   0.00000  Uiso   1.00
N337   N     0.35121   0.91533   0.08101   0.00000  Uiso   1.00
N338   N     0.25000   0.50000   0.28402   0.00000  Uiso   1.00
N339   N     0.25000   0.50000   0.04931   0.00000  Uiso   1.00
N340   N     0.39878   0.66534   0.08101   0.00000  Uiso   1.00
N341   N     0.10122   0.83466   0.25232   0.00000  Uiso   1.00
N342   N     0.10121   0.83467   0.08101   0.00000  Uiso   1.00
N343   N     0.39879   0.66533   0.25232   0.00000  Uiso   1.00
N344   N     0.10122   0.66534   0.25232   0.00000  Uiso   1.00
O345   O     0.04509   0.70491   0.20625   0.00000  Uiso   1.00
O346   O     0.20492   0.54509   0.12709   0.00000  Uiso   1.00
O347   O     0.20492   0.54509   0.20625   0.00000  Uiso   1.00
O348   O     0.29509   0.95491   0.12709   0.00000  Uiso   1.00
O349   O     0.20492   0.95491   0.12709   0.00000  Uiso   1.00
O350   O     0.29509   0.54509   0.20625   0.00000  Uiso   1.00
O351   O     0.29509   0.54509   0.12709   0.00000  Uiso   1.00
O352   O     0.20492   0.95491   0.20625   0.00000  Uiso   1.00
O353   O     0.45492   0.79509   0.12709   0.00000  Uiso   1.00
O354   O     0.45492   0.79509   0.20625   0.00000  Uiso   1.00
O355   O     0.04509   0.70491   0.12709   0.00000  Uiso   1.00
O356   O     0.45492   0.70491   0.12709   0.00000  Uiso   1.00
O357   O     0.04509   0.79509   0.20625   0.00000  Uiso   1.00
O358   O     0.04509   0.79509   0.12709   0.00000  Uiso   1.00
O359   O     0.45492   0.70491   0.20625   0.00000  Uiso   1.00
O360   O     0.29509   0.95491   0.20625   0.00000  Uiso   1.00
C361   C     0.56061   0.69202   0.16667   0.00000  Uiso   1.00
C362   C     0.50000   0.79043   0.30856   0.00000  Uiso   1.00
C363   C     0.50000   0.79043   0.02477   0.00000  Uiso   1.00
C364   C     0.50000   0.70957   0.30856   0.00000  Uiso   1.00
C365   C     0.75000   0.95957   0.02477   0.00000  Uiso   1.00
C366   C     0.75000   0.54043   0.30856   0.00000  Uiso   1.00
C367   C     0.75000   0.54043   0.02477   0.00000  Uiso   1.00
C368   C     0.75000   0.95957   0.30856   0.00000  Uiso   1.00
C369   C     0.88887   0.64320   0.12418   0.00000  Uiso   1.00
C370   C     0.61113   0.85680   0.20915   0.00000  Uiso   1.00
C371   C     0.61113   0.85680   0.12418   0.00000  Uiso   1.00
C372   C     0.93939   0.80798   0.16667   0.00000  Uiso   1.00
C373   C     0.88887   0.64320   0.20915   0.00000  Uiso   1.00
C374   C     0.61113   0.64320   0.20915   0.00000  Uiso   1.00
C375   C     0.88887   0.85680   0.12418   0.00000  Uiso   1.00
C376   C     0.88887   0.85680   0.20915   0.00000  Uiso   1.00
C377   C     0.61113   0.64320   0.12418   0.00000  Uiso   1.00
C378   C     0.63887   0.89320   0.12418   0.00000  Uiso   1.00
C379   C     0.86113   0.60680   0.20915   0.00000  Uiso   1.00
C380   C     0.86113   0.60680   0.12418   0.00000  Uiso   1.00
C381   C     0.63887   0.89320   0.20915   0.00000  Uiso   1.00
C382   C     0.86113   0.89320   0.20915   0.00000  Uiso   1.00
C383   C     0.93939   0.69202   0.16667   0.00000  Uiso   1.00
C384   C     0.63887   0.60680   0.12418   0.00000  Uiso   1.00
C385   C     0.63887   0.60680   0.20915   0.00000  Uiso   1.00
C386   C     0.86113   0.89320   0.12418   0.00000  Uiso   1.00
C387   C     0.59515   0.84038   0.16667   0.00000  Uiso   1.00
C388   C     0.90485   0.65962   0.16667   0.00000  Uiso   1.00
C389   C     0.90485   0.84038   0.16667   0.00000  Uiso   1.00
C390   C     0.59515   0.65962   0.16667   0.00000  Uiso   1.00
C391   C     0.84515   0.59038   0.16667   0.00000  Uiso   1.00
C392   C     0.65485   0.90962   0.16667   0.00000  Uiso   1.00
C393   C     0.65485   0.59038   0.16667   0.00000  Uiso   1.00
C394   C     0.56061   0.80798   0.16667   0.00000  Uiso   1.00
C395   C     0.84515   0.90962   0.16667   0.00000  Uiso   1.00
C396   C     0.81061   0.94202   0.16667   0.00000  Uiso   1.00
C397   C     0.68939   0.55798   0.16667   0.00000  Uiso   1.00
C398   C     0.68939   0.94202   0.16667   0.00000  Uiso   1.00
C399   C     0.81061   0.55798   0.16667   0.00000  Uiso   1.00
C400   C     0.50000   0.70957   0.02477   0.00000  Uiso   1.00
Cu401  Cu    0.50000   0.75000   0.21355   0.00000  Uiso   1.00
Cu402  Cu    0.50000   0.75000   0.11978   0.00000  Uiso   1.00
Cu403  Cu    0.75000   0.50000   0.21355   0.00000  Uiso   1.00
Cu404  Cu    0.75000   0.50000   0.11978   0.00000  Uiso   1.00
H405   H     0.87216   0.68008   0.06758   0.00000  Uiso   1.00
H406   H     0.59058   0.64117   0.27613   0.00000  Uiso   1.00
H407   H     0.87215   0.81992   0.06758   0.00000  Uiso   1.00
H408   H     0.90942   0.85883   0.05721   0.00000  Uiso   1.00
H409   H     0.87216   0.81993   0.26576   0.00000  Uiso   1.00
H410   H     0.90942   0.85884   0.27612   0.00000  Uiso   1.00
H411   H     0.62784   0.68007   0.06758   0.00000  Uiso   1.00
H412   H     0.59058   0.64116   0.05721   0.00000  Uiso   1.00
H413   H     0.62216   0.93008   0.06758   0.00000  Uiso   1.00
H414   H     0.65942   0.89117   0.05721   0.00000  Uiso   1.00
H415   H     0.87784   0.56992   0.26575   0.00000  Uiso   1.00
H416   H     0.90942   0.64117   0.05721   0.00000  Uiso   1.00
H417   H     0.84058   0.60884   0.27613   0.00000  Uiso   1.00
H418   H     0.87784   0.56993   0.06758   0.00000  Uiso   1.00
H419   H     0.84058   0.60884   0.05721   0.00000  Uiso   1.00
H420   H     0.62216   0.93007   0.26576   0.00000  Uiso   1.00
H421   H     0.65942   0.89116   0.27612   0.00000  Uiso   1.00
H422   H     0.87785   0.93008   0.26575   0.00000  Uiso   1.00
H423   H     0.84058   0.89117   0.27613   0.00000  Uiso   1.00
H424   H     0.62215   0.56992   0.06758   0.00000  Uiso   1.00
H425   H     0.65942   0.60883   0.05721   0.00000  Uiso   1.00
H426   H     0.62216   0.56993   0.26576   0.00000  Uiso   1.00
H427   H     0.62784   0.81992   0.26575   0.00000  Uiso   1.00
H428   H     0.65942   0.60884   0.27612   0.00000  Uiso   1.00
H429   H     0.87784   0.93007   0.06758   0.00000  Uiso   1.00
H430   H     0.84058   0.89116   0.05721   0.00000  Uiso   1.00
H431   H     0.59058   0.85884   0.27613   0.00000  Uiso   1.00
H432   H     0.62784   0.81993   0.06758   0.00000  Uiso   1.00
H433   H     0.59058   0.85884   0.05721   0.00000  Uiso   1.00
H434   H     0.87216   0.68007   0.26576   0.00000  Uiso   1.00
H435   H     0.90942   0.64116   0.27612   0.00000  Uiso   1.00
H436   H     0.62785   0.68008   0.26575   0.00000  Uiso   1.00
I437   I     0.50000   0.64480   0.05998   0.00000  Uiso   1.00
I438   I     0.50000   0.85520   0.27335   0.00000  Uiso   1.00
I439   I     0.50000   0.85520   0.05998   0.00000  Uiso   1.00
I440   I     0.50000   0.64480   0.27335   0.00000  Uiso   1.00
I441   I     0.75000   0.89480   0.05998   0.00000  Uiso   1.00
I442   I     0.75000   0.60520   0.27335   0.00000  Uiso   1.00
I443   I     0.75000   0.60520   0.05998   0.00000  Uiso   1.00
I444   I     0.75000   0.89480   0.27335   0.00000  Uiso   1.00
N445   N     0.50000   0.75000   0.28402   0.00000  Uiso   1.00
N446   N     0.89878   0.83466   0.08101   0.00000  Uiso   1.00
N447   N     0.89879   0.83467   0.25232   0.00000  Uiso   1.00
N448   N     0.60121   0.66533   0.08101   0.00000  Uiso   1.00
N449   N     0.64878   0.91534   0.08101   0.00000  Uiso   1.00
N450   N     0.85122   0.58466   0.25232   0.00000  Uiso   1.00
N451   N     0.85121   0.58467   0.08101   0.00000  Uiso   1.00
N452   N     0.64879   0.91533   0.25232   0.00000  Uiso   1.00
N453   N     0.85122   0.91534   0.25232   0.00000  Uiso   1.00
N454   N     0.64878   0.58466   0.08101   0.00000  Uiso   1.00
N455   N     0.64879   0.58467   0.25232   0.00000  Uiso   1.00
N456   N     0.50000   0.75000   0.04931   0.00000  Uiso   1.00
N457   N     0.85121   0.91533   0.08101   0.00000  Uiso   1.00
N458   N     0.75000   0.50000   0.28402   0.00000  Uiso   1.00
N459   N     0.75000   0.50000   0.04931   0.00000  Uiso   1.00
N460   N     0.89878   0.66534   0.08101   0.00000  Uiso   1.00
N461   N     0.60122   0.83466   0.25232   0.00000  Uiso   1.00
N462   N     0.60121   0.83467   0.08101   0.00000  Uiso   1.00
N463   N     0.89879   0.66533   0.25232   0.00000  Uiso   1.00
N464   N     0.60122   0.66534   0.25232   0.00000  Uiso   1.00
O465   O     0.54509   0.70491   0.20625   0.00000  Uiso   1.00
O466   O     0.70492   0.54509   0.12709   0.00000  Uiso   1.00
O467   O     0.70492   0.54509   0.20625   0.00000  Uiso   1.00
O468   O     0.79509   0.95491   0.12709   0.00000  Uiso   1.00
O469   O     0.70492   0.95491   0.12709   0.00000  Uiso   1.00
O470   O     0.79509   0.54509   0.20625   0.00000  Uiso   1.00
O471   O     0.79509   0.54509   0.12709   0.00000  Uiso   1.00
O472   O     0.70492   0.95491   0.20625   0.00000  Uiso   1.00
O473   O     0.95492   0.79509   0.12709   0.00000  Uiso   1.00
O474   O     0.95492   0.79509   0.20625   0.00000  Uiso   1.00
O475   O     0.54509   0.70491   0.12709   0.00000  Uiso   1.00
O476   O     0.95492   0.70491   0.12709   0.00000  Uiso   1.00
O477   O     0.54509   0.79509   0.20625   0.00000  Uiso   1.00
O478   O     0.54509   0.79509   0.12709   0.00000  Uiso   1.00
O479   O     0.95492   0.70491   0.20625   0.00000  Uiso   1.00
O480   O     0.79509   0.95491   0.20625   0.00000  Uiso   1.00
C481   C     0.06061   0.19202   0.50000   0.00000  Uiso   1.00
C482   C     0.00000   0.29043   0.64189   0.00000  Uiso   1.00
C483   C    -0.00000   0.29043   0.35811   0.00000  Uiso   1.00
C484   C     0.00000   0.20957   0.64189   0.00000  Uiso   1.00
C485   C     0.25000   0.45957   0.35811   0.00000  Uiso   1.00
C486   C     0.25000   0.04043   0.64189   0.00000  Uiso   1.00
C487   C     0.25000   0.04043   0.35811   0.00000  Uiso   1.00
C488   C     0.25000   0.45957   0.64189   0.00000  Uiso   1.00
C489   C     0.38887   0.14320   0.45751   0.00000  Uiso   1.00
C490   C     0.11113   0.35680   0.54249   0.00000  Uiso   1.00
C491   C     0.11113   0.35680   0.45751   0.00000  Uiso   1.00
C492   C     0.43939   0.30798   0.50000   0.00000  Uiso   1.00
C493   C     0.38887   0.14320   0.54249   0.00000  Uiso   1.00
C494   C     0.11113   0.14320   0.54249   0.00000  Uiso   1.00
C495   C     0.38887   0.35680   0.45751   0.00000  Uiso   1.00
C496   C     0.38887   0.35680   0.54249   0.00000  Uiso   1.00
C497   C     0.11113   0.14320   0.45751   0.00000  Uiso   1.00
C498   C     0.13887   0.39320   0.45751   0.00000  Uiso   1.00
C499   C     0.36113   0.10680   0.54249   0.00000  Uiso   1.00
C500   C     0.36113   0.10680   0.45751   0.00000  Uiso   1.00
C501   C     0.13887   0.39320   0.54249   0.00000  Uiso   1.00
C502   C     0.36113   0.39320   0.54249   0.00000  Uiso   1.00
C503   C     0.43939   0.19202   0.50000   0.00000  Uiso   1.00
C504   C     0.13887   0.10680   0.45751   0.00000  Uiso   1.00
C505   C     0.13887   0.10680   0.54249   0.00000  Uiso   1.00
C506   C     0.36113   0.39320   0.45751   0.00000  Uiso   1.00
C507   C     0.09515   0.34038   0.50000   0.00000  Uiso   1.00
C508   C     0.40485   0.15962   0.50000   0.00000  Uiso   1.00
C509   C     0.40485   0.34038   0.50000   0.00000  Uiso   1.00
C510   C     0.09515   0.15962   0.50000   0.00000  Uiso   1.00
C511   C     0.34515   0.09038   0.50000   0.00000  Uiso   1.00
C512   C     0.15485   0.40962   0.50000   0.00000  Uiso   1.00
C513   C     0.15485   0.09038   0.50000   0.00000  Uiso   1.00
C514   C     0.06061   0.30798   0.50000   0.00000  Uiso   1.00
C515   C     0.34515   0.40962   0.50000   0.00000  Uiso   1.00
C516   C     0.31061   0.44202   0.50000   0.00000  Uiso   1.00
C517   C     0.18939   0.05798   0.50000   0.00000  Uiso   1.00
C518   C     0.18939   0.44202   0.50000   0.00000  Uiso   1.00
C519   C     0.31061   0.05798   0.50000   0.00000  Uiso   1.00
C520   C     0.00000   0.20957   0.35811   0.00000  Uiso   1.00
Cu521  Cu    0.00000   0.25000   0.54689   0.00000  Uiso   1.00
Cu522  Cu    0.00000   0.25000   0.45311   0.00000  Uiso   1.00
Cu523  Cu    0.25000   0.00000   0.54689   0.00000  Uiso   1.00
Cu524  Cu    0.25000   0.00000   0.45311   0.00000  Uiso   1.00
H525   H     0.37216   0.18008   0.40091   0.00000  Uiso   1.00
H526   H     0.09058   0.14117   0.60946   0.00000  Uiso   1.00
H527   H     0.37215   0.31992   0.40091   0.00000  Uiso   1.00
H528   H     0.40942   0.35883   0.39054   0.00000  Uiso   1.00
H529   H     0.37216   0.31993   0.59909   0.00000  Uiso   1.00
H530   H     0.40942   0.35884   0.60946   0.00000  Uiso   1.00
H531   H     0.12784   0.18007   0.40091   0.00000  Uiso   1.00
H532   H     0.09058   0.14116   0.39054   0.00000  Uiso   1.00
H533   H     0.12216   0.43008   0.40091   0.00000  Uiso   1.00
H534   H     0.15942   0.39117   0.39054   0.00000  Uiso   1.00
H535   H     0.37784   0.06992   0.59908   0.00000  Uiso   1.00
H536   H     0.40942   0.14117   0.39054   0.00000  Uiso   1.00
H537   H     0.34058   0.10884   0.60946   0.00000  Uiso   1.00
H538   H     0.37784   0.06993   0.40091   0.00000  Uiso   1.00
H539   H     0.34058   0.10884   0.39054   0.00000  Uiso   1.00
H540   H     0.12216   0.43007   0.59909   0.00000  Uiso   1.00
H541   H     0.15942   0.39116   0.60946   0.00000  Uiso   1.00
H542   H     0.37785   0.43008   0.59909   0.00000  Uiso   1.00
H543   H     0.34058   0.39117   0.60946   0.00000  Uiso   1.00
H544   H     0.12215   0.06992   0.40091   0.00000  Uiso   1.00
H545   H     0.15942   0.10883   0.39054   0.00000  Uiso   1.00
H546   H     0.12216   0.06993   0.59909   0.00000  Uiso   1.00
H547   H     0.12784   0.31992   0.59908   0.00000  Uiso   1.00
H548   H     0.15942   0.10884   0.60946   0.00000  Uiso   1.00
H549   H     0.37784   0.43007   0.40091   0.00000  Uiso   1.00
H550   H     0.34058   0.39116   0.39054   0.00000  Uiso   1.00
H551   H     0.09058   0.35884   0.60946   0.00000  Uiso   1.00
H552   H     0.12784   0.31993   0.40091   0.00000  Uiso   1.00
H553   H     0.09058   0.35884   0.39054   0.00000  Uiso   1.00
H554   H     0.37216   0.18007   0.59909   0.00000  Uiso   1.00
H555   H     0.40942   0.14116   0.60946   0.00000  Uiso   1.00
H556   H     0.12785   0.18008   0.59909   0.00000  Uiso   1.00
I557   I    -0.00000   0.14480   0.39331   0.00000  Uiso   1.00
I558   I     0.00000   0.35520   0.60669   0.00000  Uiso   1.00
I559   I    -0.00000   0.35520   0.39331   0.00000  Uiso   1.00
I560   I     0.00000   0.14480   0.60669   0.00000  Uiso   1.00
I561   I     0.25000   0.39480   0.39331   0.00000  Uiso   1.00
I562   I     0.25000   0.10520   0.60669   0.00000  Uiso   1.00
I563   I     0.25000   0.10520   0.39331   0.00000  Uiso   1.00
I564   I     0.25000   0.39480   0.60669   0.00000  Uiso   1.00
N565   N     0.00000   0.25000   0.61736   0.00000  Uiso   1.00
N566   N     0.39878   0.33466   0.41434   0.00000  Uiso   1.00
N567   N     0.39879   0.33467   0.58566   0.00000  Uiso   1.00
N568   N     0.10121   0.16533   0.41434   0.00000  Uiso   1.00
N569   N     0.14878   0.41534   0.41434   0.00000  Uiso   1.00
N570   N     0.35122   0.08466   0.58566   0.00000  Uiso   1.00
N571   N     0.35121   0.08467   0.41434   0.00000  Uiso   1.00
N572   N     0.14879   0.41533   0.58566   0.00000  Uiso   1.00
N573   N     0.35122   0.41534   0.58566   0.00000  Uiso   1.00
N574   N     0.14878   0.08466   0.41434   0.00000  Uiso   1.00
N575   N     0.14879   0.08467   0.58566   0.00000  Uiso   1.00
N576   N     0.00000   0.25000   0.38264   0.00000  Uiso   1.00
N577   N     0.35121   0.41533   0.41434   0.00000  Uiso   1.00
N578   N     0.25000   0.00000   0.61736   0.00000  Uiso   1.00
N579   N     0.25000   0.00000   0.38264   0.00000  Uiso   1.00
N580   N     0.39878   0.16534   0.41434   0.00000  Uiso   1.00
N581   N     0.10122   0.33466   0.58566   0.00000  Uiso   1.00
N582   N     0.10121   0.33467   0.41434   0.00000  Uiso   1.00
N583   N     0.39879   0.16533   0.58566   0.00000  Uiso   1.00
N584   N     0.10122   0.16534   0.58566   0.00000  Uiso   1.00
O585   O     0.04509   0.20491   0.53958   0.00000  Uiso   1.00
O586   O     0.20492   0.04509   0.46042   0.00000  Uiso   1.00
O587   O     0.20492   0.04509   0.53958   0.00000  Uiso   1.00
O588   O     0.29509   0.45491   0.46042   0.00000  Uiso   1.00
O589   O     0.20492   0.45491   0.46042   0.00000  Uiso   1.00
O590   O     0.29509   0.04509   0.53958   0.00000  Uiso   1.00
O591   O     0.29509   0.04509   0.46042   0.00000  Uiso   1.00
O592   O     0.20492   0.45491   0.53958   0.00000  Uiso   1.00
O593   O     0.45492   0.29509   0.46042   0.00000  Uiso   1.00
O594   O     0.45492   0.29509   0.53958   0.00000  Uiso   1.00
O595   O     0.04509   0.20491   0.46042   0.00000  Uiso   1.00
O596   O     0.45492   0.20491   0.46042   0.00000  Uiso   1.00
O597   O     0.04509   0.29509   0.53958   0.00000  Uiso   1.00
O598   O     0.04509   0.29509   0.46042   0.00000  Uiso   1.00
O599   O     0.45492   0.20491   0.53958   0.00000  Uiso   1.00
O600   O     0.29509   0.45491   0.53958   0.00000  Uiso   1.00
C601   C     0.56061   0.19202   0.50000   0.00000  Uiso   1.00
C602   C     0.50000   0.29043   0.64189   0.00000  Uiso   1.00
C603   C     0.50000   0.29043   0.35811   0.00000  Uiso   1.00
C604   C     0.50000   0.20957   0.64189   0.00000  Uiso   1.00
C605   C     0.75000   0.45957   0.35811   0.00000  Uiso   1.00
C606   C     0.75000   0.04043   0.64189   0.00000  Uiso   1.00
C607   C     0.75000   0.04043   0.35811   0.00000  Uiso   1.00
C608   C     0.75000   0.45957   0.64189   0.00000  Uiso   1.00
C609   C     0.88887   0.14320   0.45751   0.00000  Uiso   1.00
C610   C     0.61113   0.35680   0.54249   0.00000  Uiso   1.00
C611   C     0.61113   0.35680   0.45751   0.00000  Uiso   1.00
C612   C     0.93939   0.30798   0.50000   0.00000  Uiso   1.00
C613   C     0.88887   0.14320   0.54249   0.00000  Uiso   1.00
C614   C     0.61113   0.14320   0.54249   0.00000  Uiso   1.00
C615   C     0.88887   0.35680   0.45751   0.00000  Uiso   1.00
C616   C     0.88887   0.35680   0.54249   0.00000  Uiso   1.00
C617   C     0.61113   0.14320   0.45751   0.00000  Uiso   1.00
C618   C     0.63887   0.39320   0.45751   0.00000  Uiso   1.00
C619   C     0.86113   0.10680   0.54249   0.00000  Uiso   1.00
C620   C     0.86113   0.10680   0.45751   0.00000  Uiso   1.00
C621   C     0.63887   0.39320   0.54249   0.00000  Uiso   1.00
C622   C     0.86113   0.39320   0.54249   0.00000  Uiso   1.00
C623   C     0.93939   0.19202   0.50000   0.00000  Uiso   1.00
C624   C     0.63887   0.10680   0.45751   0.00000  Uiso   1.00
C625   C     0.63887   0.10680   0.54249   0.00000  Uiso   1.00
C626   C     0.86113   0.39320   0.45751   0.00000  Uiso   1.00
C627   C     0.59515   0.34038   0.50000   0.00000  Uiso   1.00
C628   C     0.90485   0.15962   0.50000   0.00000  Uiso   1.00
C629   C     0.90485   0.34038   0.50000   0.00000  Uiso   1.00
C630   C     0.59515   0.15962   0.50000   0.00000  Uiso   1.00
C631   C     0.84515   0.09038   0.50000   0.00000  Uiso   1.00
C632   C     0.65485   0.40962   0.50000   0.00000  Uiso   1.00
C633   C     0.65485   0.09038   0.50000   0.00000  Uiso   1.00
C634   C     0.56061   0.30798   0.50000   0.00000  Uiso   1.00
C635   C     0.84515   0.40962   0.50000   0.00000  Uiso   1.00
C636   C     0.81061   0.44202   0.50000   0.00000  Uiso   1.00
C637   C     0.68939   0.05798   0.50000   0.00000  Uiso   1.00
C638   C     0.68939   0.44202   0.50000   0.00000  Uiso   1.00
C639   C     0.81061   0.05798   0.50000   0.00000  Uiso   1.00
C640   C     0.50000   0.20957   0.35811   0.00000  Uiso   1.00
Cu641  Cu    0.50000   0.25000   0.54689   0.00000  Uiso   1.00
Cu642  Cu    0.50000   0.25000   0.45311   0.00000  Uiso   1.00
Cu643  Cu    0.75000   0.00000   0.54689   0.00000  Uiso   1.00
Cu644  Cu    0.75000   0.00000   0.45311   0.00000  Uiso   1.00
H645   H     0.87216   0.18008   0.40091   0.00000  Uiso   1.00
H646   H     0.59058   0.14117   0.60946   0.00000  Uiso   1.00
H647   H     0.87215   0.31992   0.40091   0.00000  Uiso   1.00
H648   H     0.90942   0.35883   0.39054   0.00000  Uiso   1.00
H649   H     0.87216   0.31993   0.59909   0.00000  Uiso   1.00
H650   H     0.90942   0.35884   0.60946   0.00000  Uiso   1.00
H651   H     0.62784   0.18007   0.40091   0.00000  Uiso   1.00
H652   H     0.59058   0.14116   0.39054   0.00000  Uiso   1.00
H653   H     0.62216   0.43008   0.40091   0.00000  Uiso   1.00
H654   H     0.65942   0.39117   0.39054   0.00000  Uiso   1.00
H655   H     0.87784   0.06992   0.59908   0.00000  Uiso   1.00
H656   H     0.90942   0.14117   0.39054   0.00000  Uiso   1.00
H657   H     0.84058   0.10884   0.60946   0.00000  Uiso   1.00
H658   H     0.87784   0.06993   0.40091   0.00000  Uiso   1.00
H659   H     0.84058   0.10884   0.39054   0.00000  Uiso   1.00
H660   H     0.62216   0.43007   0.59909   0.00000  Uiso   1.00
H661   H     0.65942   0.39116   0.60946   0.00000  Uiso   1.00
H662   H     0.87785   0.43008   0.59909   0.00000  Uiso   1.00
H663   H     0.84058   0.39117   0.60946   0.00000  Uiso   1.00
H664   H     0.62215   0.06992   0.40091   0.00000  Uiso   1.00
H665   H     0.65942   0.10883   0.39054   0.00000  Uiso   1.00
H666   H     0.62216   0.06993   0.59909   0.00000  Uiso   1.00
H667   H     0.62784   0.31992   0.59908   0.00000  Uiso   1.00
H668   H     0.65942   0.10884   0.60946   0.00000  Uiso   1.00
H669   H     0.87784   0.43007   0.40091   0.00000  Uiso   1.00
H670   H     0.84058   0.39116   0.39054   0.00000  Uiso   1.00
H671   H     0.59058   0.35884   0.60946   0.00000  Uiso   1.00
H672   H     0.62784   0.31993   0.40091   0.00000  Uiso   1.00
H673   H     0.59058   0.35884   0.39054   0.00000  Uiso   1.00
H674   H     0.87216   0.18007   0.59909   0.00000  Uiso   1.00
H675   H     0.90942   0.14116   0.60946   0.00000  Uiso   1.00
H676   H     0.62785   0.18008   0.59909   0.00000  Uiso   1.00
I677   I     0.50000   0.14480   0.39331   0.00000  Uiso   1.00
I678   I     0.50000   0.35520   0.60669   0.00000  Uiso   1.00
I679   I     0.50000   0.35520   0.39331   0.00000  Uiso   1.00
I680   I     0.50000   0.14480   0.60669   0.00000  Uiso   1.00
I681   I     0.75000   0.39480   0.39331   0.00000  Uiso   1.00
I682   I     0.75000   0.10520   0.60669   0.00000  Uiso   1.00
I683   I     0.75000   0.10520   0.39331   0.00000  Uiso   1.00
I684   I     0.75000   0.39480   0.60669   0.00000  Uiso   1.00
N685   N     0.50000   0.25000   0.61736   0.00000  Uiso   1.00
N686   N     0.89878   0.33466   0.41434   0.00000  Uiso   1.00
N687   N     0.89879   0.33467   0.58566   0.00000  Uiso   1.00
N688   N     0.60121   0.16533   0.41434   0.00000  Uiso   1.00
N689   N     0.64878   0.41534   0.41434   0.00000  Uiso   1.00
N690   N     0.85122   0.08466   0.58566   0.00000  Uiso   1.00
N691   N     0.85121   0.08467   0.41434   0.00000  Uiso   1.00
N692   N     0.64879   0.41533   0.58566   0.00000  Uiso   1.00
N693   N     0.85122   0.41534   0.58566   0.00000  Uiso   1.00
N694   N     0.64878   0.08466   0.41434   0.00000  Uiso   1.00
N695   N     0.64879   0.08467   0.58566   0.00000  Uiso   1.00
N696   N     0.50000   0.25000   0.38264   0.00000  Uiso   1.00
N697   N     0.85121   0.41533   0.41434   0.00000  Uiso   1.00
N698   N     0.75000   0.00000   0.61736   0.00000  Uiso   1.00
N699   N     0.75000   0.00000   0.38264   0.00000  Uiso   1.00
N700   N     0.89878   0.16534   0.41434   0.00000  Uiso   1.00
N701   N     0.60122   0.33466   0.58566   0.00000  Uiso   1.00
N702   N     0.60121   0.33467   0.41434   0.00000  Uiso   1.00
N703   N     0.89879   0.16533   0.58566   0.00000  Uiso   1.00
N704   N     0.60122   0.16534   0.58566   0.00000  Uiso   1.00
O705   O     0.54509   0.20491   0.53958   0.00000  Uiso   1.00
O706   O     0.70492   0.04509   0.46042   0.00000  Uiso   1.00
O707   O     0.70492   0.04509   0.53958   0.00000  Uiso   1.00
O708   O     0.79509   0.45491   0.46042   0.00000  Uiso   1.00
O709   O     0.70492   0.45491   0.46042   0.00000  Uiso   1.00
O710   O     0.79509   0.04509   0.53958   0.00000  Uiso   1.00
O711   O     0.79509   0.04509   0.46042   0.00000  Uiso   1.00
O712   O     0.70492   0.45491   0.53958   0.00000  Uiso   1.00
O713   O     0.95492   0.29509   0.46042   0.00000  Uiso   1.00
O714   O     0.95492   0.29509   0.53958   0.00000  Uiso   1.00
O715   O     0.54509   0.20491   0.46042   0.00000  Uiso   1.00
O716   O     0.95492   0.20491   0.46042   0.00000  Uiso   1.00
O717   O     0.54509   0.29509   0.53958   0.00000  Uiso   1.00
O718   O     0.54509   0.29509   0.46042   0.00000  Uiso   1.00
O719   O     0.95492   0.20491   0.53958   0.00000  Uiso   1.00
O720   O     0.79509   0.45491   0.53958   0.00000  Uiso   1.00
C721   C     0.06061   0.69202   0.50000   0.00000  Uiso   1.00
C722   C     0.00000   0.79043   0.64189   0.00000  Uiso   1.00
C723   C    -0.00000   0.79043   0.35811   0.00000  Uiso   1.00
C724   C     0.00000   0.70957   0.64189   0.00000  Uiso   1.00
C725   C     0.25000   0.95957   0.35811   0.00000  Uiso   1.00
C726   C     0.25000   0.54043   0.64189   0.00000  Uiso   1.00
C727   C     0.25000   0.54043   0.35811   0.00000  Uiso   1.00
C728   C     0.25000   0.95957   0.64189   0.00000  Uiso   1.00
C729   C     0.38887   0.64320   0.45751   0.00000  Uiso   1.00
C730   C     0.11113   0.85680   0.54249   0.00000  Uiso   1.00
C731   C     0.11113   0.85680   0.45751   0.00000  Uiso   1.00
C732   C     0.43939   0.80798   0.50000   0.00000  Uiso   1.00
C733   C     0.38887   0.64320   0.54249   0.00000  Uiso   1.00
C734   C     0.11113   0.64320   0.54249   0.00000  Uiso   1.00
C735   C     0.38887   0.85680   0.45751   0.00000  Uiso   1.00
C736   C     0.38887   0.85680   0.54249   0.00000  Uiso   1.00
C737   C     0.11113   0.64320   0.45751   0.00000  Uiso   1.00
C738   C     0.13887   0.89320   0.45751   0.00000  Uiso   1.00
C739   C     0.36113   0.60680   0.54249   0.00000  Uiso   1.00
C740   C     0.36113   0.60680   0.45751   0.00000  Uiso   1.00
C741   C     0.13887   0.89320   0.54249   0.00000  Uiso   1.00
C742   C     0.36113   0.89320   0.54249   0.00000  Uiso   1.00
C743   C     0.43939   0.69202   0.50000   0.00000  Uiso   1.00
C744   C     0.13887   0.60680   0.45751   0.00000  Uiso   1.00
C745   C     0.13887   0.60680   0.54249   0.00000  Uiso   1.00
C746   C     0.36113   0.89320   0.45751   0.00000  Uiso   1.00
C747   C     0.09515   0.84038   0.50000   0.00000  Uiso   1.00
C748   C     0.40485   0.65962   0.50000   0.00000  Uiso   1.00
C749   C     0.40485   0.84038   0.50000   0.00000  Uiso   1.00
C750   C     0.09515   0.65962   0.50000   0.00000  Uiso   1.00
C751   C     0.34515   0.59038   0.50000   0.00000  Uiso   1.00
C752   C     0.15485   0.90962   0.50000   0.00000  Uiso   1.00
C753   C     0.15485   0.59038   0.50000   0.00000  Uiso   1.00
C754   C     0.06061   0.80798   0.50000   0.00000  Uiso   1.00
C755   C     0.34515   0.90962   0.50000   0.00000  Uiso   1.00
C756   C     0.31061   0.94202   0.50000   0.00000  Uiso   1.00
C757   C     0.18939   0.55798   0.50000   0.00000  Uiso   1.00
C758   C     0.18939   0.94202   0.50000   0.00000  Uiso   1.00
C759   C     0.31061   0.55798   0.50000   0.00000  Uiso   1.00
C760   C     0.00000   0.70957   0.35811   0.00000  Uiso   1.00
Cu761  Cu    0.00000   0.75000   0.54689   0.00000  Uiso   1.00
Cu762  Cu    0.00000   0.75000   0.45311   0.00000  Uiso   1.00
Cu763  Cu    0.25000   0.50000   0.54689   0.00000  Uiso   1.00
Cu764  Cu    0.25000   0.50000   0.45311   0.00000  Uiso   1.00
H765   H     0.37216   0.68008   0.40091   0.00000  Uiso   1.00
H766   H     0.09058   0.64117   0.60946   0.00000  Uiso   1.00
H767   H     0.37215   0.81992   0.40091   0.00000  Uiso   1.00
H768   H     0.40942   0.85883   0.39054   0.00000  Uiso   1.00
H769   H     0.37216   0.81993   0.59909   0.00000  Uiso   1.00
H770   H     0.40942   0.85884   0.60946   0.00000  Uiso   1.00
H771   H     0.12784   0.68007   0.40091   0.00000  Uiso   1.00
H772   H     0.09058   0.64116   0.39054   0.00000  Uiso   1.00
H773   H     0.12216   0.93008   0.40091   0.00000  Uiso   1.00
H774   H     0.15942   0.89117   0.39054   0.00000  Uiso   1.00
H775   H     0.37784   0.56992   0.59908   0.00000  Uiso   1.00
H776   H     0.40942   0.64117   0.39054   0.00000  Uiso   1.00
H777   H     0.34058   0.60884   0.60946   0.00000  Uiso   1.00
H778   H     0.37784   0.56993   0.40091   0.00000  Uiso   1.00
H779   H     0.34058   0.60884   0.39054   0.00000  Uiso   1.00
H780   H     0.12216   0.93007   0.59909   0.00000  Uiso   1.00
H781   H     0.15942   0.89116   0.60946   0.00000  Uiso   1.00
H782   H     0.37785   0.93008   0.59909   0.00000  Uiso   1.00
H783   H     0.34058   0.89117   0.60946   0.00000  Uiso   1.00
H784   H     0.12215   0.56992   0.40091   0.00000  Uiso   1.00
H785   H     0.15942   0.60883   0.39054   0.00000  Uiso   1.00
H786   H     0.12216   0.56993   0.59909   0.00000  Uiso   1.00
H787   H     0.12784   0.81992   0.59908   0.00000  Uiso   1.00
H788   H     0.15942   0.60884   0.60946   0.00000  Uiso   1.00
H789   H     0.37784   0.93007   0.40091   0.00000  Uiso   1.00
H790   H     0.34058   0.89116   0.39054   0.00000  Uiso   1.00
H791   H     0.09058   0.85884   0.60946   0.00000  Uiso   1.00
H792   H     0.12784   0.81993   0.40091   0.00000  Uiso   1.00
H793   H     0.09058   0.85884   0.39054   0.00000  Uiso   1.00
H794   H     0.37216   0.68007   0.59909   0.00000  Uiso   1.00
H795   H     0.40942   0.64116   0.60946   0.00000  Uiso   1.00
H796   H     0.12785   0.68008   0.59909   0.00000  Uiso   1.00
I797   I    -0.00000   0.64480   0.39331   0.00000  Uiso   1.00
I798   I     0.00000   0.85520   0.60669   0.00000  Uiso   1.00
I799   I    -0.00000   0.85520   0.39331   0.00000  Uiso   1.00
I800   I     0.00000   0.64480   0.60669   0.00000  Uiso   1.00
I801   I     0.25000   0.89480   0.39331   0.00000  Uiso   1.00
I802   I     0.25000   0.60520   0.60669   0.00000  Uiso   1.00
I803   I     0.25000   0.60520   0.39331   0.00000  Uiso   1.00
I804   I     0.25000   0.89480   0.60669   0.00000  Uiso   1.00
N805   N     0.00000   0.75000   0.61736   0.00000  Uiso   1.00
N806   N     0.39878   0.83466   0.41434   0.00000  Uiso   1.00
N807   N     0.39879   0.83467   0.58566   0.00000  Uiso   1.00
N808   N     0.10121   0.66533   0.41434   0.00000  Uiso   1.00
N809   N     0.14878   0.91534   0.41434   0.00000  Uiso   1.00
N810   N     0.35122   0.58466   0.58566   0.00000  Uiso   1.00
N811   N     0.35121   0.58467   0.41434   0.00000  Uiso   1.00
N812   N     0.14879   0.91533   0.58566   0.00000  Uiso   1.00
N813   N     0.35122   0.91534   0.58566   0.00000  Uiso   1.00
N814   N     0.14878   0.58466   0.41434   0.00000  Uiso   1.00
N815   N     0.14879   0.58467   0.58566   0.00000  Uiso   1.00
N816   N     0.00000   0.75000   0.38264   0.00000  Uiso   1.00
N817   N     0.35121   0.91533   0.41434   0.00000  Uiso   1.00
N818   N     0.25000   0.50000   0.61736   0.00000  Uiso   1.00
N819   N     0.25000   0.50000   0.38264   0.00000  Uiso   1.00
N820   N     0.39878   0.66534   0.41434   0.00000  Uiso   1.00
N821   N     0.10122   0.83466   0.58566   0.00000  Uiso   1.00
N822   N     0.10121   0.83467   0.41434   0.00000  Uiso   1.00
N823   N     0.39879   0.66533   0.58566   0.00000  Uiso   1.00
N824   N     0.10122   0.66534   0.58566   0.00000  Uiso   1.00
O825   O     0.04509   0.70491   0.53958   0.00000  Uiso   1.00
O826   O     0.20492   0.54509   0.46042   0.00000  Uiso   1.00
O827   O     0.20492   0.54509   0.53958   0.00000  Uiso   1.00
O828   O     0.29509   0.95491   0.46042   0.00000  Uiso   1.00
O829   O     0.20492   0.95491   0.46042   0.00000  Uiso   1.00
O830   O     0.29509   0.54509   0.53958   0.00000  Uiso   1.00
O831   O     0.29509   0.54509   0.46042   0.00000  Uiso   1.00
O832   O     0.20492   0.95491   0.53958   0.00000  Uiso   1.00
O833   O     0.45492   0.79509   0.46042   0.00000  Uiso   1.00
O834   O     0.45492   0.79509   0.53958   0.00000  Uiso   1.00
O835   O     0.04509   0.70491   0.46042   0.00000  Uiso   1.00
O836   O     0.45492   0.70491   0.46042   0.00000  Uiso   1.00
O837   O     0.04509   0.79509   0.53958   0.00000  Uiso   1.00
O838   O     0.04509   0.79509   0.46042   0.00000  Uiso   1.00
O839   O     0.45492   0.70491   0.53958   0.00000  Uiso   1.00
O840   O     0.29509   0.95491   0.53958   0.00000  Uiso   1.00
C841   C     0.56061   0.69202   0.50000   0.00000  Uiso   1.00
C842   C     0.50000   0.79043   0.64189   0.00000  Uiso   1.00
C843   C     0.50000   0.79043   0.35811   0.00000  Uiso   1.00
C844   C     0.50000   0.70957   0.64189   0.00000  Uiso   1.00
C845   C     0.75000   0.95957   0.35811   0.00000  Uiso   1.00
C846   C     0.75000   0.54043   0.64189   0.00000  Uiso   1.00
C847   C     0.75000   0.54043   0.35811   0.00000  Uiso   1.00
C848   C     0.75000   0.95957   0.64189   0.00000  Uiso   1.00
C849   C     0.88887   0.64320   0.45751   0.00000  Uiso   1.00
C850   C     0.61113   0.85680   0.54249   0.00000  Uiso   1.00
C851   C     0.61113   0.85680   0.45751   0.00000  Uiso   1.00
C852   C     0.93939   0.80798   0.50000   0.00000  Uiso   1.00
C853   C     0.88887   0.64320   0.54249   0.00000  Uiso   1.00
C854   C     0.61113   0.64320   0.54249   0.00000  Uiso   1.00
C855   C     0.88887   0.85680   0.45751   0.00000  Uiso   1.00
C856   C     0.88887   0.85680   0.54249   0.00000  Uiso   1.00
C857   C     0.61113   0.64320   0.45751   0.00000  Uiso   1.00
C858   C     0.63887   0.89320   0.45751   0.00000  Uiso   1.00
C859   C     0.86113   0.60680   0.54249   0.00000  Uiso   1.00
C860   C     0.86113   0.60680   0.45751   0.00000  Uiso   1.00
C861   C     0.63887   0.89320   0.54249   0.00000  Uiso   1.00
C862   C     0.86113   0.89320   0.54249   0.00000  Uiso   1.00
C863   C     0.93939   0.69202   0.50000   0.00000  Uiso   1.00
C864   C     0.63887   0.60680   0.45751   0.00000  Uiso   1.00
C865   C     0.63887   0.60680   0.54249   0.00000  Uiso   1.00
C866   C     0.86113   0.89320   0.45751   0.00000  Uiso   1.00
C867   C     0.59515   0.84038   0.50000   0.00000  Uiso   1.00
C868   C     0.90485   0.65962   0.50000   0.00000  Uiso   1.00
C869   C     0.90485   0.84038   0.50000   0.00000  Uiso   1.00
C870   C     0.59515   0.65962   0.50000   0.00000  Uiso   1.00
C871   C     0.84515   0.59038   0.50000   0.00000  Uiso   1.00
C872   C     0.65485   0.90962   0.50000   0.00000  Uiso   1.00
C873   C     0.65485   0.59038   0.50000   0.00000  Uiso   1.00
C874   C     0.56061   0.80798   0.50000   0.00000  Uiso   1.00
C875   C     0.84515   0.90962   0.50000   0.00000  Uiso   1.00
C876   C     0.81061   0.94202   0.50000   0.00000  Uiso   1.00
C877   C     0.68939   0.55798   0.50000   0.00000  Uiso   1.00
C878   C     0.68939   0.94202   0.50000   0.00000  Uiso   1.00
C879   C     0.81061   0.55798   0.50000   0.00000  Uiso   1.00
C880   C     0.50000   0.70957   0.35811   0.00000  Uiso   1.00
Cu881  Cu    0.50000   0.75000   0.54689   0.00000  Uiso   1.00
Cu882  Cu    0.50000   0.75000   0.45311   0.00000  Uiso   1.00
Cu883  Cu    0.75000   0.50000   0.54689   0.00000  Uiso   1.00
Cu884  Cu    0.75000   0.50000   0.45311   0.00000  Uiso   1.00
H885   H     0.87216   0.68008   0.40091   0.00000  Uiso   1.00
H886   H     0.59058   0.64117   0.60946   0.00000  Uiso   1.00
H887   H     0.87215   0.81992   0.40091   0.00000  Uiso   1.00
H888   H     0.90942   0.85883   0.39054   0.00000  Uiso   1.00
H889   H     0.87216   0.81993   0.59909   0.00000  Uiso   1.00
H890   H     0.90942   0.85884   0.60946   0.00000  Uiso   1.00
H891   H     0.62784   0.68007   0.40091   0.00000  Uiso   1.00
H892   H     0.59058   0.64116   0.39054   0.00000  Uiso   1.00
H893   H     0.62216   0.93008   0.40091   0.00000  Uiso   1.00
H894   H     0.65942   0.89117   0.39054   0.00000  Uiso   1.00
H895   H     0.87784   0.56992   0.59908   0.00000  Uiso   1.00
H896   H     0.90942   0.64117   0.39054   0.00000  Uiso   1.00
H897   H     0.84058   0.60884   0.60946   0.00000  Uiso   1.00
H898   H     0.87784   0.56993   0.40091   0.00000  Uiso   1.00
H899   H     0.84058   0.60884   0.39054   0.00000  Uiso   1.00
H900   H     0.62216   0.93007   0.59909   0.00000  Uiso   1.00
H901   H     0.65942   0.89116   0.60946   0.00000  Uiso   1.00
H902   H     0.87785   0.93008   0.59909   0.00000  Uiso   1.00
H903   H     0.84058   0.89117   0.60946   0.00000  Uiso   1.00
H904   H     0.62215   0.56992   0.40091   0.00000  Uiso   1.00
H905   H     0.65942   0.60883   0.39054   0.00000  Uiso   1.00
H906   H     0.62216   0.56993   0.59909   0.00000  Uiso   1.00
H907   H     0.62784   0.81992   0.59908   0.00000  Uiso   1.00
H908   H     0.65942   0.60884   0.60946   0.00000  Uiso   1.00
H909   H     0.87784   0.93007   0.40091   0.00000  Uiso   1.00
H910   H     0.84058   0.89116   0.39054   0.00000  Uiso   1.00
H911   H     0.59058   0.85884   0.60946   0.00000  Uiso   1.00
H912   H     0.62784   0.81993   0.40091   0.00000  Uiso   1.00
H913   H     0.59058   0.85884   0.39054   0.00000  Uiso   1.00
H914   H     0.87216   0.68007   0.59909   0.00000  Uiso   1.00
H915   H     0.90942   0.64116   0.60946   0.00000  Uiso   1.00
H916   H     0.62785   0.68008   0.59909   0.00000  Uiso   1.00
I917   I     0.50000   0.64480   0.39331   0.00000  Uiso   1.00
I918   I     0.50000   0.85520   0.60669   0.00000  Uiso   1.00
I919   I     0.50000   0.85520   0.39331   0.00000  Uiso   1.00
I920   I     0.50000   0.64480   0.60669   0.00000  Uiso   1.00
I921   I     0.75000   0.89480   0.39331   0.00000  Uiso   1.00
I922   I     0.75000   0.60520   0.60669   0.00000  Uiso   1.00
I923   I     0.75000   0.60520   0.39331   0.00000  Uiso   1.00
I924   I     0.75000   0.89480   0.60669   0.00000  Uiso   1.00
N925   N     0.50000   0.75000   0.61736   0.00000  Uiso   1.00
N926   N     0.89878   0.83466   0.41434   0.00000  Uiso   1.00
N927   N     0.89879   0.83467   0.58566   0.00000  Uiso   1.00
N928   N     0.60121   0.66533   0.41434   0.00000  Uiso   1.00
N929   N     0.64878   0.91534   0.41434   0.00000  Uiso   1.00
N930   N     0.85122   0.58466   0.58566   0.00000  Uiso   1.00
N931   N     0.85121   0.58467   0.41434   0.00000  Uiso   1.00
N932   N     0.64879   0.91533   0.58566   0.00000  Uiso   1.00
N933   N     0.85122   0.91534   0.58566   0.00000  Uiso   1.00
N934   N     0.64878   0.58466   0.41434   0.00000  Uiso   1.00
N935   N     0.64879   0.58467   0.58566   0.00000  Uiso   1.00
N936   N     0.50000   0.75000   0.38264   0.00000  Uiso   1.00
N937   N     0.85121   0.91533   0.41434   0.00000  Uiso   1.00
N938   N     0.75000   0.50000   0.61736   0.00000  Uiso   1.00
N939   N     0.75000   0.50000   0.38264   0.00000  Uiso   1.00
N940   N     0.89878   0.66534   0.41434   0.00000  Uiso   1.00
N941   N     0.60122   0.83466   0.58566   0.00000  Uiso   1.00
N942   N     0.60121   0.83467   0.41434   0.00000  Uiso   1.00
N943   N     0.89879   0.66533   0.58566   0.00000  Uiso   1.00
N944   N     0.60122   0.66534   0.58566   0.00000  Uiso   1.00
O945   O     0.54509   0.70491   0.53958   0.00000  Uiso   1.00
O946   O     0.70492   0.54509   0.46042   0.00000  Uiso   1.00
O947   O     0.70492   0.54509   0.53958   0.00000  Uiso   1.00
O948   O     0.79509   0.95491   0.46042   0.00000  Uiso   1.00
O949   O     0.70492   0.95491   0.46042   0.00000  Uiso   1.00
O950   O     0.79509   0.54509   0.53958   0.00000  Uiso   1.00
O951   O     0.79509   0.54509   0.46042   0.00000  Uiso   1.00
O952   O     0.70492   0.95491   0.53958   0.00000  Uiso   1.00
O953   O     0.95492   0.79509   0.46042   0.00000  Uiso   1.00
O954   O     0.95492   0.79509   0.53958   0.00000  Uiso   1.00
O955   O     0.54509   0.70491   0.46042   0.00000  Uiso   1.00
O956   O     0.95492   0.70491   0.46042   0.00000  Uiso   1.00
O957   O     0.54509   0.79509   0.53958   0.00000  Uiso   1.00
O958   O     0.54509   0.79509   0.46042   0.00000  Uiso   1.00
O959   O     0.95492   0.70491   0.53958   0.00000  Uiso   1.00
O960   O     0.79509   0.95491   0.53958   0.00000  Uiso   1.00
C961   C     0.06061   0.19202   0.83333   0.00000  Uiso   1.00
C962   C     0.00000   0.29043   0.97523   0.00000  Uiso   1.00
C963   C    -0.00000   0.29043   0.69144   0.00000  Uiso   1.00
C964   C     0.00000   0.20957   0.97523   0.00000  Uiso   1.00
C965   C     0.25000   0.45957   0.69144   0.00000  Uiso   1.00
C966   C     0.25000   0.04043   0.97523   0.00000  Uiso   1.00
C967   C     0.25000   0.04043   0.69144   0.00000  Uiso   1.00
C968   C     0.25000   0.45957   0.97523   0.00000  Uiso   1.00
C969   C     0.38887   0.14320   0.79085   0.00000  Uiso   1.00
C970   C     0.11113   0.35680   0.87582   0.00000  Uiso   1.00
C971   C     0.11113   0.35680   0.79085   0.00000  Uiso   1.00
C972   C     0.43939   0.30798   0.83333   0.00000  Uiso   1.00
C973   C     0.38887   0.14320   0.87582   0.00000  Uiso   1.00
C974   C     0.11113   0.14320   0.87582   0.00000  Uiso   1.00
C975   C     0.38887   0.35680   0.79085   0.00000  Uiso   1.00
C976   C     0.38887   0.35680   0.87582   0.00000  Uiso   1.00
C977   C     0.11113   0.14320   0.79085   0.00000  Uiso   1.00
C978   C     0.13887   0.39320   0.79085   0.00000  Uiso   1.00
C979   C     0.36113   0.10680   0.87582   0.00000  Uiso   1.00
C980   C     0.36113   0.10680   0.79085   0.00000  Uiso   1.00
C981   C     0.13887   0.39320   0.87582   0.00000  Uiso   1.00
C982   C     0.36113   0.39320   0.87582   0.00000  Uiso   1.00
C983   C     0.43939   0.19202   0.83333   0.00000  Uiso   1.00
C984   C     0.13887   0.10680   0.79085   0.00000  Uiso   1.00
C985   C     0.13887   0.10680   0.87582   0.00000  Uiso   1.00
C986   C     0.36113   0.39320   0.79085   0.00000  Uiso   1.00
C987   C     0.09515   0.34038   0.83333   0.00000  Uiso   1.00
C988   C     0.40485   0.15962   0.83333   0.00000  Uiso   1.00
C989   C     0.40485   0.34038   0.83333   0.00000  Uiso   1.00
C990   C     0.09515   0.15962   0.83333   0.00000  Uiso   1.00
C991   C     0.34515   0.09038   0.83333   0.00000  Uiso   1.00
C992   C     0.15485   0.40962   0.83333   0.00000  Uiso   1.00
C993   C     0.15485   0.09038   0.83333   0.00000  Uiso   1.00
C994   C     0.06061   0.30798   0.83333   0.00000  Uiso   1.00
C995   C     0.34515   0.40962   0.83333   0.00000  Uiso   1.00
C996   C     0.31061   0.44202   0.83333   0.00000  Uiso   1.00
C997   C     0.18939   0.05798   0.83333   0.00000  Uiso   1.00
C998   C     0.18939   0.44202   0.83333   0.00000  Uiso   1.00
C999   C     0.31061   0.05798   0.83333   0.00000  Uiso   1.00
C1000  C     0.00000   0.20957   0.69144   0.00000  Uiso   1.00
Cu1001 Cu    0.00000   0.25000   0.88022   0.00000  Uiso   1.00
Cu1002 Cu    0.00000   0.25000   0.78645   0.00000  Uiso   1.00
Cu1003 Cu    0.25000   0.00000   0.88022   0.00000  Uiso   1.00
Cu1004 Cu    0.25000   0.00000   0.78645   0.00000  Uiso   1.00
H1005  H     0.37216   0.18008   0.73425   0.00000  Uiso   1.00
H1006  H     0.09058   0.14117   0.94279   0.00000  Uiso   1.00
H1007  H     0.37215   0.31992   0.73425   0.00000  Uiso   1.00
H1008  H     0.40942   0.35883   0.72387   0.00000  Uiso   1.00
H1009  H     0.37216   0.31993   0.93242   0.00000  Uiso   1.00
H1010  H     0.40942   0.35884   0.94279   0.00000  Uiso   1.00
H1011  H     0.12784   0.18007   0.73424   0.00000  Uiso   1.00
H1012  H     0.09058   0.14116   0.72388   0.00000  Uiso   1.00
H1013  H     0.12216   0.43008   0.73425   0.00000  Uiso   1.00
H1014  H     0.15942   0.39117   0.72387   0.00000  Uiso   1.00
H1015  H     0.37784   0.06992   0.93242   0.00000  Uiso   1.00
H1016  H     0.40942   0.14117   0.72387   0.00000  Uiso   1.00
H1017  H     0.34058   0.10884   0.94279   0.00000  Uiso   1.00
H1018  H     0.37784   0.06993   0.73424   0.00000  Uiso   1.00
H1019  H     0.34058   0.10884   0.72388   0.00000  Uiso   1.00
H1020  H     0.12216   0.43007   0.93242   0.00000  Uiso   1.00
H1021  H     0.15942   0.39116   0.94279   0.00000  Uiso   1.00
H1022  H     0.37785   0.43008   0.93242   0.00000  Uiso   1.00
H1023  H     0.34058   0.39117   0.94279   0.00000  Uiso   1.00
H1024  H     0.12215   0.06992   0.73425   0.00000  Uiso   1.00
H1025  H     0.15942   0.10883   0.72387   0.00000  Uiso   1.00
H1026  H     0.12216   0.06993   0.93242   0.00000  Uiso   1.00
H1027  H     0.12784   0.31992   0.93242   0.00000  Uiso   1.00
H1028  H     0.15942   0.10884   0.94279   0.00000  Uiso   1.00
H1029  H     0.37784   0.43007   0.73424   0.00000  Uiso   1.00
H1030  H     0.34058   0.39116   0.72388   0.00000  Uiso   1.00
H1031  H     0.09058   0.35884   0.94279   0.00000  Uiso   1.00
H1032  H     0.12784   0.31993   0.73424   0.00000  Uiso   1.00
H1033  H     0.09058   0.35884   0.72388   0.00000  Uiso   1.00
H1034  H     0.37216   0.18007   0.93242   0.00000  Uiso   1.00
H1035  H     0.40942   0.14116   0.94279   0.00000  Uiso   1.00
H1036  H     0.12785   0.18008   0.93242   0.00000  Uiso   1.00
I1037  I    -0.00000   0.14480   0.72665   0.00000  Uiso   1.00
I1038  I     0.00000   0.35520   0.94002   0.00000  Uiso   1.00
I1039  I    -0.00000   0.35520   0.72665   0.00000  Uiso   1.00
I1040  I     0.00000   0.14480   0.94002   0.00000  Uiso   1.00
I1041  I     0.25000   0.39480   0.72665   0.00000  Uiso   1.00
I1042  I     0.25000   0.10520   0.94002   0.00000  Uiso   1.00
I1043  I     0.25000   0.10520   0.72665   0.00000  Uiso   1.00
I1044  I     0.25000   0.39480   0.94002   0.00000  Uiso   1.00
N1045  N     0.00000   0.25000   0.95069   0.00000  Uiso   1.00
N1046  N     0.39878   0.33466   0.74768   0.00000  Uiso   1.00
N1047  N     0.39879   0.33467   0.91899   0.00000  Uiso   1.00
N1048  N     0.10121   0.16533   0.74768   0.00000  Uiso   1.00
N1049  N     0.14878   0.41534   0.74768   0.00000  Uiso   1.00
N1050  N     0.35122   0.08466   0.91899   0.00000  Uiso   1.00
N1051  N     0.35121   0.08467   0.74768   0.00000  Uiso   1.00
N1052  N     0.14879   0.41533   0.91899   0.00000  Uiso   1.00
N1053  N     0.35122   0.41534   0.91899   0.00000  Uiso   1.00
N1054  N     0.14878   0.08466   0.74768   0.00000  Uiso   1.00
N1055  N     0.14879   0.08467   0.91899   0.00000  Uiso   1.00
N1056  N     0.00000   0.25000   0.71598   0.00000  Uiso   1.00
N1057  N     0.35121   0.41533   0.74768   0.00000  Uiso   1.00
N1058  N     0.25000   0.00000   0.95069   0.00000  Uiso   1.00
N1059  N     0.25000   0.00000   0.71598   0.00000  Uiso   1.00
N1060  N     0.39878   0.16534   0.74768   0.00000  Uiso   1.00
N1061  N     0.10122   0.33466   0.91899   0.00000  Uiso   1.00
N1062  N     0.10121   0.33467   0.74768   0.00000  Uiso   1.00
N1063  N     0.39879   0.16533   0.91899   0.00000  Uiso   1.00
N1064  N     0.10122   0.16534   0.91899   0.00000  Uiso   1.00
O1065  O     0.04509   0.20491   0.87291   0.00000  Uiso   1.00
O1066  O     0.20492   0.04509   0.79375   0.00000  Uiso   1.00
O1067  O     0.20492   0.04509   0.87291   0.00000  Uiso   1.00
O1068  O     0.29509   0.45491   0.79375   0.00000  Uiso   1.00
O1069  O     0.20492   0.45491   0.79375   0.00000  Uiso   1.00
O1070  O     0.29509   0.04509   0.87291   0.00000  Uiso   1.00
O1071  O     0.29509   0.04509   0.79375   0.00000  Uiso   1.00
O1072  O     0.20492   0.45491   0.87291   0.00000  Uiso   1.00
O1073  O     0.45492   0.29509   0.79375   0.00000  Uiso   1.00
O1074  O     0.45492   0.29509   0.87291   0.00000  Uiso   1.00
O1075  O     0.04509   0.20491   0.79375   0.00000  Uiso   1.00
O1076  O     0.45492   0.20491   0.79375   0.00000  Uiso   1.00
O1077  O     0.04509   0.29509   0.87291   0.00000  Uiso   1.00
O1078  O     0.04509   0.29509   0.79375   0.00000  Uiso   1.00
O1079  O     0.45492   0.20491   0.87291   0.00000  Uiso   1.00
O1080  O     0.29509   0.45491   0.87291   0.00000  Uiso   1.00
C1081  C     0.56061   0.19202   0.83333   0.00000  Uiso   1.00
C1082  C     0.50000   0.29043   0.97523   0.00000  Uiso   1.00
C1083  C     0.50000   0.29043   0.69144   0.00000  Uiso   1.00
C1084  C     0.50000   0.20957   0.97523   0.00000  Uiso   1.00
C1085  C     0.75000   0.45957   0.69144   0.00000  Uiso   1.00
C1086  C     0.75000   0.04043   0.97523   0.00000  Uiso   1.00
C1087  C     0.75000   0.04043   0.69144   0.00000  Uiso   1.00
C1088  C     0.75000   0.45957   0.97523   0.00000  Uiso   1.00
C1089  C     0.88887   0.14320   0.79085   0.00000  Uiso   1.00
C1090  C     0.61113   0.35680   0.87582   0.00000  Uiso   1.00
C1091  C     0.61113   0.35680   0.79085   0.00000  Uiso   1.00
C1092  C     0.93939   0.30798   0.83333   0.00000  Uiso   1.00
C1093  C     0.88887   0.14320   0.87582   0.00000  Uiso   1.00
C1094  C     0.61113   0.14320   0.87582   0.00000  Uiso   1.00
C1095  C     0.88887   0.35680   0.79085   0.00000  Uiso   1.00
C1096  C     0.88887   0.35680   0.87582   0.00000  Uiso   1.00
C1097  C     0.61113   0.14320   0.79085   0.00000  Uiso   1.00
C1098  C     0.63887   0.39320   0.79085   0.00000  Uiso   1.00
C1099  C     0.86113   0.10680   0.87582   0.00000  Uiso   1.00
C1100  C     0.86113   0.10680   0.79085   0.00000  Uiso   1.00
C1101  C     0.63887   0.39320   0.87582   0.00000  Uiso   1.00
C1102  C     0.86113   0.39320   0.87582   0.00000  Uiso   1.00
C1103  C     0.93939   0.19202   0.83333   0.00000  Uiso   1.00
C1104  C     0.63887   0.10680   0.79085   0.00000  Uiso   1.00
C1105  C     0.63887   0.10680   0.87582   0.00000  Uiso   1.00
C1106  C     0.86113   0.39320   0.79085   0.00000  Uiso   1.00
C1107  C     0.59515   0.34038   0.83333   0.00000  Uiso   1.00
C1108  C     0.90485   0.15962   0.83333   0.00000  Uiso   1.00
C1109  C     0.90485   0.34038   0.83333   0.00000  Uiso   1.00
C1110  C     0.59515   0.15962   0.83333   0.00000  Uiso   1.00
C1111  C     0.84515   0.09038   0.83333   0.00000  Uiso   1.00
C1112  C     0.65485   0.40962   0.83333   0.00000  Uiso   1.00
C1113  C     0.65485   0.09038   0.83333   0.00000  Uiso   1.00
C1114  C     0.56061   0.30798   0.83333   0.00000  Uiso   1.00
C1115  C     0.84515   0.40962   0.83333   0.00000  Uiso   1.00
C1116  C     0.81061   0.44202   0.83333   0.00000  Uiso   1.00
C1117  C     0.68939   0.05798   0.83333   0.00000  Uiso   1.00
C1118  C     0.68939   0.44202   0.83333   0.00000  Uiso   1.00
C1119  C     0.81061   0.05798   0.83333   0.00000  Uiso   1.00
C1120  C     0.50000   0.20957   0.69144   0.00000  Uiso   1.00
Cu1121 Cu    0.50000   0.25000   0.88022   0.00000  Uiso   1.00
Cu1122 Cu    0.50000   0.25000   0.78645   0.00000  Uiso   1.00
Cu1123 Cu    0.75000   0.00000   0.88022   0.00000  Uiso   1.00
Cu1124 Cu    0.75000   0.00000   0.78645   0.00000  Uiso   1.00
H1125  H     0.87216   0.18008   0.73425   0.00000  Uiso   1.00
H1126  H     0.59058   0.14117   0.94279   0.00000  Uiso   1.00
H1127  H     0.87215   0.31992   0.73425   0.00000  Uiso   1.00
H1128  H     0.90942   0.35883   0.72387   0.00000  Uiso   1.00
H1129  H     0.87216   0.31993   0.93242   0.00000  Uiso   1.00
H1130  H     0.90942   0.35884   0.94279   0.00000  Uiso   1.00
H1131  H     0.62784   0.18007   0.73424   0.00000  Uiso   1.00
H1132  H     0.59058   0.14116   0.72388   0.00000  Uiso   1.00
H1133  H     0.62216   0.43008   0.73425   0.00000  Uiso   1.00
H1134  H     0.65942   0.39117   0.72387   0.00000  Uiso   1.00
H1135  H     0.87784   0.06992   0.93242   0.00000  Uiso   1.00
H1136  H     0.90942   0.14117   0.72387   0.00000  Uiso   1.00
H1137  H     0.84058   0.10884   0.94279   0.00000  Uiso   1.00
H1138  H     0.87784   0.06993   0.73424   0.00000  Uiso   1.00
H1139  H     0.84058   0.10884   0.72388   0.00000  Uiso   1.00
H1140  H     0.62216   0.43007   0.93242   0.00000  Uiso   1.00
H1141  H     0.65942   0.39116   0.94279   0.00000  Uiso   1.00
H1142  H     0.87785   0.43008   0.93242   0.00000  Uiso   1.00
H1143  H     0.84058   0.39117   0.94279   0.00000  Uiso   1.00
H1144  H     0.62215   0.06992   0.73425   0.00000  Uiso   1.00
H1145  H     0.65942   0.10883   0.72387   0.00000  Uiso   1.00
H1146  H     0.62216   0.06993   0.93242   0.00000  Uiso   1.00
H1147  H     0.62784   0.31992   0.93242   0.00000  Uiso   1.00
H1148  H     0.65942   0.10884   0.94279   0.00000  Uiso   1.00
H1149  H     0.87784   0.43007   0.73424   0.00000  Uiso   1.00
H1150  H     0.84058   0.39116   0.72388   0.00000  Uiso   1.00
H1151  H     0.59058   0.35884   0.94279   0.00000  Uiso   1.00
H1152  H     0.62784   0.31993   0.73424   0.00000  Uiso   1.00
H1153  H     0.59058   0.35884   0.72388   0.00000  Uiso   1.00
H1154  H     0.87216   0.18007   0.93242   0.00000  Uiso   1.00
H1155  H     0.90942   0.14116   0.94279   0.00000  Uiso   1.00
H1156  H     0.62785   0.18008   0.93242   0.00000  Uiso   1.00
I1157  I     0.50000   0.14480   0.72665   0.00000  Uiso   1.00
I1158  I     0.50000   0.35520   0.94002   0.00000  Uiso   1.00
I1159  I     0.50000   0.35520   0.72665   0.00000  Uiso   1.00
I1160  I     0.50000   0.14480   0.94002   0.00000  Uiso   1.00
I1161  I     0.75000   0.39480   0.72665   0.00000  Uiso   1.00
I1162  I     0.75000   0.10520   0.94002   0.00000  Uiso   1.00
I1163  I     0.75000   0.10520   0.72665   0.00000  Uiso   1.00
I1164  I     0.75000   0.39480   0.94002   0.00000  Uiso   1.00
N1165  N     0.50000   0.25000   0.95069   0.00000  Uiso   1.00
N1166  N     0.89878   0.33466   0.74768   0.00000  Uiso   1.00
N1167  N     0.89879   0.33467   0.91899   0.00000  Uiso   1.00
N1168  N     0.60121   0.16533   0.74768   0.00000  Uiso   1.00
N1169  N     0.64878   0.41534   0.74768   0.00000  Uiso   1.00
N1170  N     0.85122   0.08466   0.91899   0.00000  Uiso   1.00
N1171  N     0.85121   0.08467   0.74768   0.00000  Uiso   1.00
N1172  N     0.64879   0.41533   0.91899   0.00000  Uiso   1.00
N1173  N     0.85122   0.41534   0.91899   0.00000  Uiso   1.00
N1174  N     0.64878   0.08466   0.74768   0.00000  Uiso   1.00
N1175  N     0.64879   0.08467   0.91899   0.00000  Uiso   1.00
N1176  N     0.50000   0.25000   0.71598   0.00000  Uiso   1.00
N1177  N     0.85121   0.41533   0.74768   0.00000  Uiso   1.00
N1178  N     0.75000   0.00000   0.95069   0.00000  Uiso   1.00
N1179  N     0.75000   0.00000   0.71598   0.00000  Uiso   1.00
N1180  N     0.89878   0.16534   0.74768   0.00000  Uiso   1.00
N1181  N     0.60122   0.33466   0.91899   0.00000  Uiso   1.00
N1182  N     0.60121   0.33467   0.74768   0.00000  Uiso   1.00
N1183  N     0.89879   0.16533   0.91899   0.00000  Uiso   1.00
N1184  N     0.60122   0.16534   0.91899   0.00000  Uiso   1.00
O1185  O     0.54509   0.20491   0.87291   0.00000  Uiso   1.00
O1186  O     0.70492   0.04509   0.79375   0.00000  Uiso   1.00
O1187  O     0.70492   0.04509   0.87291   0.00000  Uiso   1.00
O1188  O     0.79509   0.45491   0.79375   0.00000  Uiso   1.00
O1189  O     0.70492   0.45491   0.79375   0.00000  Uiso   1.00
O1190  O     0.79509   0.04509   0.87291   0.00000  Uiso   1.00
O1191  O     0.79509   0.04509   0.79375   0.00000  Uiso   1.00
O1192  O     0.70492   0.45491   0.87291   0.00000  Uiso   1.00
O1193  O     0.95492   0.29509   0.79375   0.00000  Uiso   1.00
O1194  O     0.95492   0.29509   0.87291   0.00000  Uiso   1.00
O1195  O     0.54509   0.20491   0.79375   0.00000  Uiso   1.00
O1196  O     0.95492   0.20491   0.79375   0.00000  Uiso   1.00
O1197  O     0.54509   0.29509   0.87291   0.00000  Uiso   1.00
O1198  O     0.54509   0.29509   0.79375   0.00000  Uiso   1.00
O1199  O     0.95492   0.20491   0.87291   0.00000  Uiso   1.00
O1200  O     0.79509   0.45491   0.87291   0.00000  Uiso   1.00
C1201  C     0.06061   0.69202   0.83333   0.00000  Uiso   1.00
C1202  C     0.00000   0.79043   0.97523   0.00000  Uiso   1.00
C1203  C    -0.00000   0.79043   0.69144   0.00000  Uiso   1.00
C1204  C     0.00000   0.70957   0.97523   0.00000  Uiso   1.00
C1205  C     0.25000   0.95957   0.69144   0.00000  Uiso   1.00
C1206  C     0.25000   0.54043   0.97523   0.00000  Uiso   1.00
C1207  C     0.25000   0.54043   0.69144   0.00000  Uiso   1.00
C1208  C     0.25000   0.95957   0.97523   0.00000  Uiso   1.00
C1209  C     0.38887   0.64320   0.79085   0.00000  Uiso   1.00
C1210  C     0.11113   0.85680   0.87582   0.00000  Uiso   1.00
C1211  C     0.11113   0.85680   0.79085   0.00000  Uiso   1.00
C1212  C     0.43939   0.80798   0.83333   0.00000  Uiso   1.00
C1213  C     0.38887   0.64320   0.87582   0.00000  Uiso   1.00
C1214  C     0.11113   0.64320   0.87582   0.00000  Uiso   1.00
C1215  C     0.38887   0.85680   0.79085   0.00000  Uiso   1.00
C1216  C     0.38887   0.85680   0.87582   0.00000  Uiso   1.00
C1217  C     0.11113   0.64320   0.79085   0.00000  Uiso   1.00
C1218  C     0.13887   0.89320   0.79085   0.00000  Uiso   1.00
C1219  C     0.36113   0.60680   0.87582   0.00000  Uiso   1.00
C1220  C     0.36113   0.60680   0.79085   0.00000  Uiso   1.00
C1221  C     0.13887   0.89320   0.87582   0.00000  Uiso   1.00
C1222  C     0.36113   0.89320   0.87582   0.00000  Uiso   1.00
C1223  C     0.43939   0.69202   0.83333   0.00000  Uiso   1.00
C1224  C     0.13887   0.60680   0.79085   0.00000  Uiso   1.00
C1225  C     0.13887   0.60680   0.87582   0.00000  Uiso   1.00
C1226  C     0.36113   0.89320   0.79085   0.00000  Uiso   1.00
C1227  C     0.09515   0.84038   0.83333   0.00000  Uiso   1.00
C1228  C     0.40485   0.65962   0.83333   0.00000  Uiso   1.00
C1229  C     0.40485   0.84038   0.83333   0.00000  Uiso   1.00
C1230  C     0.09515   0.65962   0.83333   0.00000  Uiso   1.00
C1231  C     0.34515   0.59038   0.83333   0.00000  Uiso   1.00
C1232  C     0.15485   0.90962   0.83333   0.00000  Uiso   1.00
C1233  C     0.15485   0.59038   0.83333   0.00000  Uiso   1.00
C1234  C     0.06061   0.80798   0.83333   0.00000  Uiso   1.00
C1235  C     0.34515   0.90962   0.83333   0.00000  Uiso   1.00
C1236  C     0.31061   0.94202   0.83333   0.00000  Uiso   1.00
C1237  C     0.18939   0.55798   0.83333   0.00000  Uiso   1.00
C1238  C     0.18939   0.94202   0.83333   0.00000  Uiso   1.00
C1239  C     0.31061   0.55798   0.83333   0.00000  Uiso   1.00
C1240  C     0.00000   0.70957   0.69144   0.00000  Uiso   1.00
Cu1241 Cu    0.00000   0.75000   0.88022   0.00000  Uiso   1.00
Cu1242 Cu    0.00000   0.75000   0.78645   0.00000  Uiso   1.00
Cu1243 Cu    0.25000   0.50000   0.88022   0.00000  Uiso   1.00
Cu1244 Cu    0.25000   0.50000   0.78645   0.00000  Uiso   1.00
H1245  H     0.37216   0.68008   0.73425   0.00000  Uiso   1.00
H1246  H     0.09058   0.64117   0.94279   0.00000  Uiso   1.00
H1247  H     0.37215   0.81992   0.73425   0.00000  Uiso   1.00
H1248  H     0.40942   0.85883   0.72387   0.00000  Uiso   1.00
H1249  H     0.37216   0.81993   0.93242   0.00000  Uiso   1.00
H1250  H     0.40942   0.85884   0.94279   0.00000  Uiso   1.00
H1251  H     0.12784   0.68007   0.73424   0.00000  Uiso   1.00
H1252  H     0.09058   0.64116   0.72388   0.00000  Uiso   1.00
H1253  H     0.12216   0.93008   0.73425   0.00000  Uiso   1.00
H1254  H     0.15942   0.89117   0.72387   0.00000  Uiso   1.00
H1255  H     0.37784   0.56992   0.93242   0.00000  Uiso   1.00
H1256  H     0.40942   0.64117   0.72387   0.00000  Uiso   1.00
H1257  H     0.34058   0.60884   0.94279   0.00000  Uiso   1.00
H1258  H     0.37784   0.56993   0.73424   0.00000  Uiso   1.00
H1259  H     0.34058   0.60884   0.72388   0.00000  Uiso   1.00
H1260  H     0.12216   0.93007   0.93242   0.00000  Uiso   1.00
H1261  H     0.15942   0.89116   0.94279   0.00000  Uiso   1.00
H1262  H     0.37785   0.93008   0.93242   0.00000  Uiso   1.00
H1263  H     0.34058   0.89117   0.94279   0.00000  Uiso   1.00
H1264  H     0.12215   0.56992   0.73425   0.00000  Uiso   1.00
H1265  H     0.15942   0.60883   0.72387   0.00000  Uiso   1.00
H1266  H     0.12216   0.56993   0.93242   0.00000  Uiso   1.00
H1267  H     0.12784   0.81992   0.93242   0.00000  Uiso   1.00
H1268  H     0.15942   0.60884   0.94279   0.00000  Uiso   1.00
H1269  H     0.37784   0.93007   0.73424   0.00000  Uiso   1.00
H1270  H     0.34058   0.89116   0.72388   0.00000  Uiso   1.00
H1271  H     0.09058   0.85884   0.94279   0.00000  Uiso   1.00
H1272  H     0.12784   0.81993   0.73424   0.00000  Uiso   1.00
H1273  H     0.09058   0.85884   0.72388   0.00000  Uiso   1.00
H1274  H     0.37216   0.68007   0.93242   0.00000  Uiso   1.00
H1275  H     0.40942   0.64116   0.94279   0.00000  Uiso   1.00
H1276  H     0.12785   0.68008   0.93242   0.00000  Uiso   1.00
I1277  I    -0.00000   0.64480   0.72665   0.00000  Uiso   1.00
I1278  I     0.00000   0.85520   0.94002   0.00000  Uiso   1.00
I1279  I    -0.00000   0.85520   0.72665   0.00000  Uiso   1.00
I1280  I     0.00000   0.64480   0.94002   0.00000  Uiso   1.00
I1281  I     0.25000   0.89480   0.72665   0.00000  Uiso   1.00
I1282  I     0.25000   0.60520   0.94002   0.00000  Uiso   1.00
I1283  I     0.25000   0.60520   0.72665   0.00000  Uiso   1.00
I1284  I     0.25000   0.89480   0.94002   0.00000  Uiso   1.00
N1285  N     0.00000   0.75000   0.95069   0.00000  Uiso   1.00
N1286  N     0.39878   0.83466   0.74768   0.00000  Uiso   1.00
N1287  N     0.39879   0.83467   0.91899   0.00000  Uiso   1.00
N1288  N     0.10121   0.66533   0.74768   0.00000  Uiso   1.00
N1289  N     0.14878   0.91534   0.74768   0.00000  Uiso   1.00
N1290  N     0.35122   0.58466   0.91899   0.00000  Uiso   1.00
N1291  N     0.35121   0.58467   0.74768   0.00000  Uiso   1.00
N1292  N     0.14879   0.91533   0.91899   0.00000  Uiso   1.00
N1293  N     0.35122   0.91534   0.91899   0.00000  Uiso   1.00
N1294  N     0.14878   0.58466   0.74768   0.00000  Uiso   1.00
N1295  N     0.14879   0.58467   0.91899   0.00000  Uiso   1.00
N1296  N     0.00000   0.75000   0.71598   0.00000  Uiso   1.00
N1297  N     0.35121   0.91533   0.74768   0.00000  Uiso   1.00
N1298  N     0.25000   0.50000   0.95069   0.00000  Uiso   1.00
N1299  N     0.25000   0.50000   0.71598   0.00000  Uiso   1.00
N1300  N     0.39878   0.66534   0.74768   0.00000  Uiso   1.00
N1301  N     0.10122   0.83466   0.91899   0.00000  Uiso   1.00
N1302  N     0.10121   0.83467   0.74768   0.00000  Uiso   1.00
N1303  N     0.39879   0.66533   0.91899   0.00000  Uiso   1.00
N1304  N     0.10122   0.66534   0.91899   0.00000  Uiso   1.00
O1305  O     0.04509   0.70491   0.87291   0.00000  Uiso   1.00
O1306  O     0.20492   0.54509   0.79375   0.00000  Uiso   1.00
O1307  O     0.20492   0.54509   0.87291   0.00000  Uiso   1.00
O1308  O     0.29509   0.95491   0.79375   0.00000  Uiso   1.00
O1309  O     0.20492   0.95491   0.79375   0.00000  Uiso   1.00
O1310  O     0.29509   0.54509   0.87291   0.00000  Uiso   1.00
O1311  O     0.29509   0.54509   0.79375   0.00000  Uiso   1.00
O1312  O     0.20492   0.95491   0.87291   0.00000  Uiso   1.00
O1313  O     0.45492   0.79509   0.79375   0.00000  Uiso   1.00
O1314  O     0.45492   0.79509   0.87291   0.00000  Uiso   1.00
O1315  O     0.04509   0.70491   0.79375   0.00000  Uiso   1.00
O1316  O     0.45492   0.70491   0.79375   0.00000  Uiso   1.00
O1317  O     0.04509   0.79509   0.87291   0.00000  Uiso   1.00
O1318  O     0.04509   0.79509   0.79375   0.00000  Uiso   1.00
O1319  O     0.45492   0.70491   0.87291   0.00000  Uiso   1.00
O1320  O     0.29509   0.95491   0.87291   0.00000  Uiso   1.00
C1321  C     0.56061   0.69202   0.83333   0.00000  Uiso   1.00
C1322  C     0.50000   0.79043   0.97523   0.00000  Uiso   1.00
C1323  C     0.50000   0.79043   0.69144   0.00000  Uiso   1.00
C1324  C     0.50000   0.70957   0.97523   0.00000  Uiso   1.00
C1325  C     0.75000   0.95957   0.69144   0.00000  Uiso   1.00
C1326  C     0.75000   0.54043   0.97523   0.00000  Uiso   1.00
C1327  C     0.75000   0.54043   0.69144   0.00000  Uiso   1.00
C1328  C     0.75000   0.95957   0.97523   0.00000  Uiso   1.00
C1329  C     0.88887   0.64320   0.79085   0.00000  Uiso   1.00
C1330  C     0.61113   0.85680   0.87582   0.00000  Uiso   1.00
C1331  C     0.61113   0.85680   0.79085   0.00000  Uiso   1.00
C1332  C     0.93939   0.80798   0.83333   0.00000  Uiso   1.00
C1333  C     0.88887   0.64320   0.87582   0.00000  Uiso   1.00
C1334  C     0.61113   0.64320   0.87582   0.00000  Uiso   1.00
C1335  C     0.88887   0.85680   0.79085   0.00000  Uiso   1.00
C1336  C     0.88887   0.85680   0.87582   0.00000  Uiso   1.00
C1337  C     0.61113   0.64320   0.79085   0.00000  Uiso   1.00
C1338  C     0.63887   0.89320   0.79085   0.00000  Uiso   1.00
C1339  C     0.86113   0.60680   0.87582   0.00000  Uiso   1.00
C1340  C     0.86113   0.60680   0.79085   0.00000  Uiso   1.00
C1341  C     0.63887   0.89320   0.87582   0.00000  Uiso   1.00
C1342  C     0.86113   0.89320   0.87582   0.00000  Uiso   1.00
C1343  C     0.93939   0.69202   0.83333   0.00000  Uiso   1.00
C1344  C     0.63887   0.60680   0.79085   0.00000  Uiso   1.00
C1345  C     0.63887   0.60680   0.87582   0.00000  Uiso   1.00
C1346  C     0.86113   0.89320   0.79085   0.00000  Uiso   1.00
C1347  C     0.59515   0.84038   0.83333   0.00000  Uiso   1.00
C1348  C     0.90485   0.65962   0.83333   0.00000  Uiso   1.00
C1349  C     0.90485   0.84038   0.83333   0.00000  Uiso   1.00
C1350  C     0.59515   0.65962   0.83333   0.00000  Uiso   1.00
C1351  C     0.84515   0.59038   0.83333   0.00000  Uiso   1.00
C1352  C     0.65485   0.90962   0.83333   0.00000  Uiso   1.00
C1353  C     0.65485   0.59038   0.83333   0.00000  Uiso   1.00
C1354  C     0.56061   0.80798   0.83333   0.00000  Uiso   1.00
C1355  C     0.84515   0.90962   0.83333   0.00000  Uiso   1.00
C1356  C     0.81061   0.94202   0.83333   0.00000  Uiso   1.00
C1357  C     0.68939   0.55798   0.83333   0.00000  Uiso   1.00
C1358  C     0.68939   0.94202   0.83333   0.00000  Uiso   1.00
C1359  C     0.81061   0.55798   0.83333   0.00000  Uiso   1.00
C1360  C     0.50000   0.70957   0.69144   0.00000  Uiso   1.00
Cu1361 Cu    0.50000   0.75000   0.88022   0.00000  Uiso   1.00
Cu1362 Cu    0.50000   0.75000   0.78645   0.00000  Uiso   1.00
Cu1363 Cu    0.75000   0.50000   0.88022   0.00000  Uiso   1.00
Cu1364 Cu    0.75000   0.50000   0.78645   0.00000  Uiso   1.00
H1365  H     0.87216   0.68008   0.73425   0.00000  Uiso   1.00
H1366  H     0.59058   0.64117   0.94279   0.00000  Uiso   1.00
H1367  H     0.87215   0.81992   0.73425   0.00000  Uiso   1.00
H1368  H     0.90942   0.85883   0.72387   0.00000  Uiso   1.00
H1369  H     0.87216   0.81993   0.93242   0.00000  Uiso   1.00
H1370  H     0.90942   0.85884   0.94279   0.00000  Uiso   1.00
H1371  H     0.62784   0.68007   0.73424   0.00000  Uiso   1.00
H1372  H     0.59058   0.64116   0.72388   0.00000  Uiso   1.00
H1373  H     0.62216   0.93008   0.73425   0.00000  Uiso   1.00
H1374  H     0.65942   0.89117   0.72387   0.00000  Uiso   1.00
H1375  H     0.87784   0.56992   0.93242   0.00000  Uiso   1.00
H1376  H     0.90942   0.64117   0.72387   0.00000  Uiso   1.00
H1377  H     0.84058   0.60884   0.94279   0.00000  Uiso   1.00
H1378  H     0.87784   0.56993   0.73424   0.00000  Uiso   1.00
H1379  H     0.84058   0.60884   0.72388   0.00000  Uiso   1.00
H1380  H     0.62216   0.93007   0.93242   0.00000  Uiso   1.00
H1381  H     0.65942   0.89116   0.94279   0.00000  Uiso   1.00
H1382  H     0.87785   0.93008   0.93242   0.00000  Uiso   1.00
H1383  H     0.84058   0.89117   0.94279   0.00000  Uiso   1.00
H1384  H     0.62215   0.56992   0.73425   0.00000  Uiso   1.00
H1385  H     0.65942   0.60883   0.72387   0.00000  Uiso   1.00
H1386  H     0.62216   0.56993   0.93242   0.00000  Uiso   1.00
H1387  H     0.62784   0.81992   0.93242   0.00000  Uiso   1.00
H1388  H     0.65942   0.60884   0.94279   0.00000  Uiso   1.00
H1389  H     0.87784   0.93007   0.73424   0.00000  Uiso   1.00
H1390  H     0.84058   0.89116   0.72388   0.00000  Uiso   1.00
H1391  H     0.59058   0.85884   0.94279   0.00000  Uiso   1.00
H1392  H     0.62784   0.81993   0.73424   0.00000  Uiso   1.00
H1393  H     0.59058   0.85884   0.72388   0.00000  Uiso   1.00
H1394  H     0.87216   0.68007   0.93242   0.00000  Uiso   1.00
H1395  H     0.90942   0.64116   0.94279   0.00000  Uiso   1.00
H1396  H     0.62785   0.68008   0.93242   0.00000  Uiso   1.00
I1397  I     0.50000   0.64480   0.72665   0.00000  Uiso   1.00
I1398  I     0.50000   0.85520   0.94002   0.00000  Uiso   1.00
I1399  I     0.50000   0.85520   0.72665   0.00000  Uiso   1.00
I1400  I     0.50000   0.64480   0.94002   0.00000  Uiso   1.00
I1401  I     0.75000   0.89480   0.72665   0.00000  Uiso   1.00
I1402  I     0.75000   0.60520   0.94002   0.00000  Uiso   1.00
I1403  I     0.75000   0.60520   0.72665   0.00000  Uiso   1.00
I1404  I     0.75000   0.89480   0.94002   0.00000  Uiso   1.00
N1405  N     0.50000   0.75000   0.95069   0.00000  Uiso   1.00
N1406  N     0.89878   0.83466   0.74768   0.00000  Uiso   1.00
N1407  N     0.89879   0.83467   0.91899   0.00000  Uiso   1.00
N1408  N     0.60121   0.66533   0.74768   0.00000  Uiso   1.00
N1409  N     0.64878   0.91534   0.74768   0.00000  Uiso   1.00
N1410  N     0.85122   0.58466   0.91899   0.00000  Uiso   1.00
N1411  N     0.85121   0.58467   0.74768   0.00000  Uiso   1.00
N1412  N     0.64879   0.91533   0.91899   0.00000  Uiso   1.00
N1413  N     0.85122   0.91534   0.91899   0.00000  Uiso   1.00
N1414  N     0.64878   0.58466   0.74768   0.00000  Uiso   1.00
N1415  N     0.64879   0.58467   0.91899   0.00000  Uiso   1.00
N1416  N     0.50000   0.75000   0.71598   0.00000  Uiso   1.00
N1417  N     0.85121   0.91533   0.74768   0.00000  Uiso   1.00
N1418  N     0.75000   0.50000   0.95069   0.00000  Uiso   1.00
N1419  N     0.75000   0.50000   0.71598   0.00000  Uiso   1.00
N1420  N     0.89878   0.66534   0.74768   0.00000  Uiso   1.00
N1421  N     0.60122   0.83466   0.91899   0.00000  Uiso   1.00
N1422  N     0.60121   0.83467   0.74768   0.00000  Uiso   1.00
N1423  N     0.89879   0.66533   0.91899   0.00000  Uiso   1.00
N1424  N     0.60122   0.66534   0.91899   0.00000  Uiso   1.00
O1425  O     0.54509   0.70491   0.87291   0.00000  Uiso   1.00
O1426  O     0.70492   0.54509   0.79375   0.00000  Uiso   1.00
O1427  O     0.70492   0.54509   0.87291   0.00000  Uiso   1.00
O1428  O     0.79509   0.95491   0.79375   0.00000  Uiso   1.00
O1429  O     0.70492   0.95491   0.79375   0.00000  Uiso   1.00
O1430  O     0.79509   0.54509   0.87291   0.00000  Uiso   1.00
O1431  O     0.79509   0.54509   0.79375   0.00000  Uiso   1.00
O1432  O     0.70492   0.95491   0.87291   0.00000  Uiso   1.00
O1433  O     0.95492   0.79509   0.79375   0.00000  Uiso   1.00
O1434  O     0.95492   0.79509   0.87291   0.00000  Uiso   1.00
O1435  O     0.54509   0.70491   0.79375   0.00000  Uiso   1.00
O1436  O     0.95492   0.70491   0.79375   0.00000  Uiso   1.00
O1437  O     0.54509   0.79509   0.87291   0.00000  Uiso   1.00
O1438  O     0.54509   0.79509   0.79375   0.00000  Uiso   1.00
O1439  O     0.95492   0.70491   0.87291   0.00000  Uiso   1.00
O1440  O     0.79509   0.95491   0.87291   0.00000  Uiso   1.00
loop_
_geom_bond_atom_site_label_1
_geom_bond_atom_site_label_2
_geom_bond_distance
_geom_bond_site_symmetry_2
_ccdc_geom_bond_type
C1     C30     1.475   .     S
C1     O105    1.302   .     A
C1     O115    1.302   .     A
C2     C483    1.425   .     S
C2     I78     2.150   .     S
C2     N85     1.378   .     S
C3     I79     2.150   .     S
C3     C962    1.425   1_554 S
C3     N96     1.378   .     S
C4     I80     2.150   .     S
C4     N85     1.378   .     A
C4     C520    1.425   .     S
C5     I81     2.150   .     S
C5     C968    1.425   1_554 S
C5     N339    1.378   .     S
C6     I82     2.150   .     S
C6     N98     1.378   .     A
C6     C487    1.425   .     S
C7     I83     2.150   .     S
C7     N99     1.378   .     A
C7     C966    1.425   1_554 S
C8     I84     2.150   .     S
C8     C485    1.425   .     S
C8     N338    1.378   .     S
C9     C20     1.399   .     A
C9     N100    1.437   .     S
C9     C28     1.413   .     A
C10    C27     1.413   .     A
C10    C21     1.399   .     A
C10    N101    1.437   .     S
C11    C18     1.399   .     A
C11    C27     1.413   .     A
C11    N102    1.437   .     S
C12    C29     1.475   .     S
C12    O114    1.302   .     A
C12    O113    1.302   .     A
C13    C28     1.413   .     A
C13    N103    1.437   .     S
C13    C19     1.399   .     A
C14    C30     1.413   .     A
C14    N104    1.437   .     S
C14    C25     1.399   .     A
C15    C29     1.413   .     A
C15    C26     1.399   .     A
C15    N86     1.437   .     S
C16    N87     1.437   .     S
C16    C29     1.413   .     A
C16    C22     1.399   .     A
C17    N88     1.437   .     S
C17    C30     1.413   .     A
C17    C24     1.399   .     A
C18    C32     1.413   .     A
C18    N89     1.437   .     S
C19    C31     1.413   .     A
C19    N90     1.437   .     S
C20    N91     1.437   .     S
C20    C31     1.413   .     A
C21    C32     1.413   .     A
C21    N92     1.437   .     S
C22    C35     1.413   .     A
C22    N93     1.437   .     S
C23    O119    1.302   .     A
C23    O116    1.302   .     A
C23    C28     1.475   .     S
C24    N94     1.437   .     S
C24    C33     1.413   .     A
C25    N95     1.437   .     S
C25    C33     1.413   .     A
C26    C35     1.413   .     A
C26    N97     1.437   .     S
C27    C34     1.475   .     S
C31    C39     1.475   .     S
C32    C38     1.475   .     S
C33    C37     1.475   .     S
C34    O118    1.302   .     A
C34    O117    1.302   .     A
C35    C36     1.475   .     S
C36    O108    1.302   .     A
C36    O120    1.302   .     A
C37    O107    1.302   .     A
C37    O106    1.302   .     A
C38    O109    1.302   .     A
C38    O112    1.302   .     A
C39    O110    1.302   .     A
C39    O111    1.302   .     A
C40    N96     1.378   .     A
C40    C964    1.425   1_554 S
C40    I77     2.150   .     S
Cu41   O234    1.990   1_455 S
Cu41   O239    1.990   1_455 S
Cu41   Cu42    2.696   .     S
Cu41   N85     2.026   .     S
Cu41   O105    1.990   .     S
Cu41   O117    1.990   .     S
Cu42   N96     2.026   .     S
Cu42   O118    1.990   .     S
Cu42   O115    1.990   .     S
Cu42   O233    1.990   1_455 S
Cu42   O236    1.990   1_455 S
Cu43   O360    1.990   1_545 S
Cu43   Cu44    2.696   .     S
Cu43   O352    1.990   1_545 S
Cu43   N98     2.026   .     S
Cu43   O107    1.990   .     S
Cu43   O110    1.990   .     S
Cu44   O349    1.990   1_545 S
Cu44   O348    1.990   1_545 S
Cu44   N99     2.026   .     S
Cu44   O106    1.990   .     S
Cu44   O111    1.990   .     S
H45    N100    1.045   .     S
H46    N104    1.044   .     S
H47    N86     1.045   .     S
H48    N86     1.044   .     S
H49    N87     1.045   .     S
H50    N87     1.044   .     S
H51    N88     1.045   .     S
H52    N88     1.044   .     S
H53    N89     1.045   .     S
H54    N89     1.044   .     S
H55    N90     1.045   .     S
H56    N100    1.044   .     S
H57    N90     1.044   .     S
H58    N91     1.045   .     S
H59    N91     1.044   .     S
H60    N92     1.045   .     S
H61    N92     1.044   .     S
H62    N93     1.045   .     S
H63    N93     1.044   .     S
H64    N94     1.045   .     S
H65    N94     1.044   .     S
H66    N95     1.045   .     S
H67    N101    1.045   .     S
H68    N95     1.044   .     S
H69    N97     1.045   .     S
H70    N97     1.044   .     S
H71    N101    1.044   .     S
H72    N102    1.045   .     S
H73    N102    1.044   .     S
H74    N103    1.045   .     S
H75    N103    1.044   .     S
H76    N104    1.045   .     S
N98    C248    1.378   1_545 S
N99    C245    1.378   1_545 S
O108   Cu284   1.990   .     S
O109   Cu284   1.990   .     S
O112   Cu283   1.990   .     S
O113   Cu162   1.990   .     S
O114   Cu161   1.990   .     S
O116   Cu162   1.990   .     S
O119   Cu161   1.990   .     S
O120   Cu283   1.990   .     S
C121   C150    1.475   .     S
C121   O225    1.302   .     A
C121   O235    1.302   .     A
C122   C603    1.425   .     S
C122   I198    2.150   .     S
C122   N205    1.378   .     S
C123   I199    2.150   .     S
C123   C1082   1.425   1_554 S
C123   N216    1.378   .     S
C124   I200    2.150   .     S
C124   N205    1.378   .     A
C124   C640    1.425   .     S
C125   I201    2.150   .     S
C125   C1088   1.425   1_554 S
C125   N459    1.378   .     S
C126   I202    2.150   .     S
C126   N218    1.378   .     A
C126   C607    1.425   .     S
C127   I203    2.150   .     S
C127   N219    1.378   .     A
C127   C1086   1.425   1_554 S
C128   I204    2.150   .     S
C128   C605    1.425   .     S
C128   N458    1.378   .     S
C129   C140    1.399   .     A
C129   N220    1.437   .     S
C129   C148    1.413   .     A
C130   C147    1.413   .     A
C130   C141    1.399   .     A
C130   N221    1.437   .     S
C131   C138    1.399   .     A
C131   C147    1.413   .     A
C131   N222    1.437   .     S
C132   C149    1.475   .     S
C132   O234    1.302   .     A
C132   O233    1.302   .     A
C133   C148    1.413   .     A
C133   N223    1.437   .     S
C133   C139    1.399   .     A
C134   C150    1.413   .     A
C134   N224    1.437   .     S
C134   C145    1.399   .     A
C135   C149    1.413   .     A
C135   C146    1.399   .     A
C135   N206    1.437   .     S
C136   N207    1.437   .     S
C136   C149    1.413   .     A
C136   C142    1.399   .     A
C137   N208    1.437   .     S
C137   C150    1.413   .     A
C137   C144    1.399   .     A
C138   C152    1.413   .     A
C138   N209    1.437   .     S
C139   C151    1.413   .     A
C139   N210    1.437   .     S
C140   N211    1.437   .     S
C140   C151    1.413   .     A
C141   C152    1.413   .     A
C141   N212    1.437   .     S
C142   C155    1.413   .     A
C142   N213    1.437   .     S
C143   O239    1.302   .     A
C143   O236    1.302   .     A
C143   C148    1.475   .     S
C144   N214    1.437   .     S
C144   C153    1.413   .     A
C145   N215    1.437   .     S
C145   C153    1.413   .     A
C146   C155    1.413   .     A
C146   N217    1.437   .     S
C147   C154    1.475   .     S
C151   C159    1.475   .     S
C152   C158    1.475   .     S
C153   C157    1.475   .     S
C154   O238    1.302   .     A
C154   O237    1.302   .     A
C155   C156    1.475   .     S
C156   O228    1.302   .     A
C156   O240    1.302   .     A
C157   O227    1.302   .     A
C157   O226    1.302   .     A
C158   O229    1.302   .     A
C158   O232    1.302   .     A
C159   O230    1.302   .     A
C159   O231    1.302   .     A
C160   N216    1.378   .     A
C160   C1084   1.425   1_554 S
C160   I197    2.150   .     S
Cu161  Cu162   2.696   .     S
Cu161  N205    2.026   .     S
Cu161  O225    1.990   .     S
Cu161  O237    1.990   .     S
Cu162  N216    2.026   .     S
Cu162  O238    1.990   .     S
Cu162  O235    1.990   .     S
Cu163  O480    1.990   1_545 S
Cu163  Cu164   2.696   .     S
Cu163  O472    1.990   1_545 S
Cu163  N218    2.026   .     S
Cu163  O227    1.990   .     S
Cu163  O230    1.990   .     S
Cu164  O469    1.990   1_545 S
Cu164  O468    1.990   1_545 S
Cu164  N219    2.026   .     S
Cu164  O226    1.990   .     S
Cu164  O231    1.990   .     S
H165   N220    1.045   .     S
H166   N224    1.044   .     S
H167   N206    1.045   .     S
H168   N206    1.044   .     S
H169   N207    1.045   .     S
H170   N207    1.044   .     S
H171   N208    1.045   .     S
H172   N208    1.044   .     S
H173   N209    1.045   .     S
H174   N209    1.044   .     S
H175   N210    1.045   .     S
H176   N220    1.044   .     S
H177   N210    1.044   .     S
H178   N211    1.045   .     S
H179   N211    1.044   .     S
H180   N212    1.045   .     S
H181   N212    1.044   .     S
H182   N213    1.045   .     S
H183   N213    1.044   .     S
H184   N214    1.045   .     S
H185   N214    1.044   .     S
H186   N215    1.045   .     S
H187   N221    1.045   .     S
H188   N215    1.044   .     S
H189   N217    1.045   .     S
H190   N217    1.044   .     S
H191   N221    1.044   .     S
H192   N222    1.045   .     S
H193   N222    1.044   .     S
H194   N223    1.045   .     S
H195   N223    1.044   .     S
H196   N224    1.045   .     S
N218   C368    1.378   1_545 S
N219   C365    1.378   1_545 S
O228   Cu404   1.990   .     S
O229   Cu404   1.990   .     S
O232   Cu403   1.990   .     S
O233   Cu42    1.990   1_655 S
O234   Cu41    1.990   1_655 S
O236   Cu42    1.990   1_655 S
O239   Cu41    1.990   1_655 S
O240   Cu403   1.990   .     S
C241   C270    1.475   .     S
C241   O345    1.302   .     A
C241   O355    1.302   .     A
C242   C723    1.425   .     S
C242   I318    2.150   .     S
C242   N325    1.378   .     S
C243   I319    2.150   .     S
C243   C1202   1.425   1_554 S
C243   N336    1.378   .     S
C244   I320    2.150   .     S
C244   N325    1.378   .     A
C244   C760    1.425   .     S
C245   I321    2.150   .     S
C245   C1208   1.425   1_554 S
C245   N99     1.378   1_565 S
C246   I322    2.150   .     S
C246   N338    1.378   .     A
C246   C727    1.425   .     S
C247   I323    2.150   .     S
C247   N339    1.378   .     A
C247   C1206   1.425   1_554 S
C248   I324    2.150   .     S
C248   C725    1.425   .     S
C248   N98     1.378   1_565 S
C249   C260    1.399   .     A
C249   N340    1.437   .     S
C249   C268    1.413   .     A
C250   C267    1.413   .     A
C250   C261    1.399   .     A
C250   N341    1.437   .     S
C251   C258    1.399   .     A
C251   C267    1.413   .     A
C251   N342    1.437   .     S
C252   C269    1.475   .     S
C252   O354    1.302   .     A
C252   O353    1.302   .     A
C253   C268    1.413   .     A
C253   N343    1.437   .     S
C253   C259    1.399   .     A
C254   C270    1.413   .     A
C254   N344    1.437   .     S
C254   C265    1.399   .     A
C255   C269    1.413   .     A
C255   C266    1.399   .     A
C255   N326    1.437   .     S
C256   N327    1.437   .     S
C256   C269    1.413   .     A
C256   C262    1.399   .     A
C257   N328    1.437   .     S
C257   C270    1.413   .     A
C257   C264    1.399   .     A
C258   C272    1.413   .     A
C258   N329    1.437   .     S
C259   C271    1.413   .     A
C259   N330    1.437   .     S
C260   N331    1.437   .     S
C260   C271    1.413   .     A
C261   C272    1.413   .     A
C261   N332    1.437   .     S
C262   C275    1.413   .     A
C262   N333    1.437   .     S
C263   O359    1.302   .     A
C263   O356    1.302   .     A
C263   C268    1.475   .     S
C264   N334    1.437   .     S
C264   C273    1.413   .     A
C265   N335    1.437   .     S
C265   C273    1.413   .     A
C266   C275    1.413   .     A
C266   N337    1.437   .     S
C267   C274    1.475   .     S
C271   C279    1.475   .     S
C272   C278    1.475   .     S
C273   C277    1.475   .     S
C274   O358    1.302   .     A
C274   O357    1.302   .     A
C275   C276    1.475   .     S
C276   O348    1.302   .     A
C276   O360    1.302   .     A
C277   O347    1.302   .     A
C277   O346    1.302   .     A
C278   O349    1.302   .     A
C278   O352    1.302   .     A
C279   O350    1.302   .     A
C279   O351    1.302   .     A
C280   N336    1.378   .     A
C280   C1204   1.425   1_554 S
C280   I317    2.150   .     S
Cu281  O474    1.990   1_455 S
Cu281  O479    1.990   1_455 S
Cu281  Cu282   2.696   .     S
Cu281  N325    2.026   .     S
Cu281  O345    1.990   .     S
Cu281  O357    1.990   .     S
Cu282  N336    2.026   .     S
Cu282  O358    1.990   .     S
Cu282  O355    1.990   .     S
Cu282  O473    1.990   1_455 S
Cu282  O476    1.990   1_455 S
Cu283  Cu284   2.696   .     S
Cu283  N338    2.026   .     S
Cu283  O347    1.990   .     S
Cu283  O350    1.990   .     S
Cu284  N339    2.026   .     S
Cu284  O346    1.990   .     S
Cu284  O351    1.990   .     S
H285   N340    1.045   .     S
H286   N344    1.044   .     S
H287   N326    1.045   .     S
H288   N326    1.044   .     S
H289   N327    1.045   .     S
H290   N327    1.044   .     S
H291   N328    1.045   .     S
H292   N328    1.044   .     S
H293   N329    1.045   .     S
H294   N329    1.044   .     S
H295   N330    1.045   .     S
H296   N340    1.044   .     S
H297   N330    1.044   .     S
H298   N331    1.045   .     S
H299   N331    1.044   .     S
H300   N332    1.045   .     S
H301   N332    1.044   .     S
H302   N333    1.045   .     S
H303   N333    1.044   .     S
H304   N334    1.045   .     S
H305   N334    1.044   .     S
H306   N335    1.045   .     S
H307   N341    1.045   .     S
H308   N335    1.044   .     S
H309   N337    1.045   .     S
H310   N337    1.044   .     S
H311   N341    1.044   .     S
H312   N342    1.045   .     S
H313   N342    1.044   .     S
H314   N343    1.045   .     S
H315   N343    1.044   .     S
H316   N344    1.045   .     S
O348   Cu44    1.990   1_565 S
O349   Cu44    1.990   1_565 S
O352   Cu43    1.990   1_565 S
O353   Cu402   1.990   .     S
O354   Cu401   1.990   .     S
O356   Cu402   1.990   .     S
O359   Cu401   1.990   .     S
O360   Cu43    1.990   1_565 S
C361   C390    1.475   .     S
C361   O465    1.302   .     A
C361   O475    1.302   .     A
C362   C843    1.425   .     S
C362   I438    2.150   .     S
C362   N445    1.378   .     S
C363   I439    2.150   .     S
C363   C1322   1.425   1_554 S
C363   N456    1.378   .     S
C364   I440    2.150   .     S
C364   N445    1.378   .     A
C364   C880    1.425   .     S
C365   I441    2.150   .     S
C365   C1328   1.425   1_554 S
C365   N219    1.378   1_565 S
C366   I442    2.150   .     S
C366   N458    1.378   .     A
C366   C847    1.425   .     S
C367   I443    2.150   .     S
C367   N459    1.378   .     A
C367   C1326   1.425   1_554 S
C368   I444    2.150   .     S
C368   C845    1.425   .     S
C368   N218    1.378   1_565 S
C369   C380    1.399   .     A
C369   N460    1.437   .     S
C369   C388    1.413   .     A
C370   C387    1.413   .     A
C370   C381    1.399   .     A
C370   N461    1.437   .     S
C371   C378    1.399   .     A
C371   C387    1.413   .     A
C371   N462    1.437   .     S
C372   C389    1.475   .     S
C372   O474    1.302   .     A
C372   O473    1.302   .     A
C373   C388    1.413   .     A
C373   N463    1.437   .     S
C373   C379    1.399   .     A
C374   C390    1.413   .     A
C374   N464    1.437   .     S
C374   C385    1.399   .     A
C375   C389    1.413   .     A
C375   C386    1.399   .     A
C375   N446    1.437   .     S
C376   N447    1.437   .     S
C376   C389    1.413   .     A
C376   C382    1.399   .     A
C377   N448    1.437   .     S
C377   C390    1.413   .     A
C377   C384    1.399   .     A
C378   C392    1.413   .     A
C378   N449    1.437   .     S
C379   C391    1.413   .     A
C379   N450    1.437   .     S
C380   N451    1.437   .     S
C380   C391    1.413   .     A
C381   C392    1.413   .     A
C381   N452    1.437   .     S
C382   C395    1.413   .     A
C382   N453    1.437   .     S
C383   O479    1.302   .     A
C383   O476    1.302   .     A
C383   C388    1.475   .     S
C384   N454    1.437   .     S
C384   C393    1.413   .     A
C385   N455    1.437   .     S
C385   C393    1.413   .     A
C386   C395    1.413   .     A
C386   N457    1.437   .     S
C387   C394    1.475   .     S
C391   C399    1.475   .     S
C392   C398    1.475   .     S
C393   C397    1.475   .     S
C394   O478    1.302   .     A
C394   O477    1.302   .     A
C395   C396    1.475   .     S
C396   O468    1.302   .     A
C396   O480    1.302   .     A
C397   O467    1.302   .     A
C397   O466    1.302   .     A
C398   O469    1.302   .     A
C398   O472    1.302   .     A
C399   O470    1.302   .     A
C399   O471    1.302   .     A
C400   N456    1.378   .     A
C400   C1324   1.425   1_554 S
C400   I437    2.150   .     S
Cu401  Cu402   2.696   .     S
Cu401  N445    2.026   .     S
Cu401  O465    1.990   .     S
Cu401  O477    1.990   .     S
Cu402  N456    2.026   .     S
Cu402  O478    1.990   .     S
Cu402  O475    1.990   .     S
Cu403  Cu404   2.696   .     S
Cu403  N458    2.026   .     S
Cu403  O467    1.990   .     S
Cu403  O470    1.990   .     S
Cu404  N459    2.026   .     S
Cu404  O466    1.990   .     S
Cu404  O471    1.990   .     S
H405   N460    1.045   .     S
H406   N464    1.044   .     S
H407   N446    1.045   .     S
H408   N446    1.044   .     S
H409   N447    1.045   .     S
H410   N447    1.044   .     S
H411   N448    1.045   .     S
H412   N448    1.044   .     S
H413   N449    1.045   .     S
H414   N449    1.044   .     S
H415   N450    1.045   .     S
H416   N460    1.044   .     S
H417   N450    1.044   .     S
H418   N451    1.045   .     S
H419   N451    1.044   .     S
H420   N452    1.045   .     S
H421   N452    1.044   .     S
H422   N453    1.045   .     S
H423   N453    1.044   .     S
H424   N454    1.045   .     S
H425   N454    1.044   .     S
H426   N455    1.045   .     S
H427   N461    1.045   .     S
H428   N455    1.044   .     S
H429   N457    1.045   .     S
H430   N457    1.044   .     S
H431   N461    1.044   .     S
H432   N462    1.045   .     S
H433   N462    1.044   .     S
H434   N463    1.045   .     S
H435   N463    1.044   .     S
H436   N464    1.045   .     S
O468   Cu164   1.990   1_565 S
O469   Cu164   1.990   1_565 S
O472   Cu163   1.990   1_565 S
O473   Cu282   1.990   1_655 S
O474   Cu281   1.990   1_655 S
O476   Cu282   1.990   1_655 S
O479   Cu281   1.990   1_655 S
O480   Cu163   1.990   1_565 S
C481   C510    1.475   .     S
C481   O585    1.302   .     A
C481   O595    1.302   .     A
C482   C963    1.425   .     S
C482   I558    2.150   .     S
C482   N565    1.378   .     S
C483   I559    2.150   .     S
C483   N576    1.378   .     S
C484   I560    2.150   .     S
C484   N565    1.378   .     A
C484   C1000   1.425   .     S
C485   I561    2.150   .     S
C485   N819    1.378   .     S
C486   I562    2.150   .     S
C486   N578    1.378   .     A
C486   C967    1.425   .     S
C487   I563    2.150   .     S
C487   N579    1.378   .     A
C488   I564    2.150   .     S
C488   C965    1.425   .     S
C488   N818    1.378   .     S
C489   C500    1.399   .     A
C489   N580    1.437   .     S
C489   C508    1.413   .     A
C490   C507    1.413   .     A
C490   C501    1.399   .     A
C490   N581    1.437   .     S
C491   C498    1.399   .     A
C491   C507    1.413   .     A
C491   N582    1.437   .     S
C492   C509    1.475   .     S
C492   O594    1.302   .     A
C492   O593    1.302   .     A
C493   C508    1.413   .     A
C493   N583    1.437   .     S
C493   C499    1.399   .     A
C494   C510    1.413   .     A
C494   N584    1.437   .     S
C494   C505    1.399   .     A
C495   C509    1.413   .     A
C495   C506    1.399   .     A
C495   N566    1.437   .     S
C496   N567    1.437   .     S
C496   C509    1.413   .     A
C496   C502    1.399   .     A
C497   N568    1.437   .     S
C497   C510    1.413   .     A
C497   C504    1.399   .     A
C498   C512    1.413   .     A
C498   N569    1.437   .     S
C499   C511    1.413   .     A
C499   N570    1.437   .     S
C500   N571    1.437   .     S
C500   C511    1.413   .     A
C501   C512    1.413   .     A
C501   N572    1.437   .     S
C502   C515    1.413   .     A
C502   N573    1.437   .     S
C503   O599    1.302   .     A
C503   O596    1.302   .     A
C503   C508    1.475   .     S
C504   N574    1.437   .     S
C504   C513    1.413   .     A
C505   N575    1.437   .     S
C505   C513    1.413   .     A
C506   C515    1.413   .     A
C506   N577    1.437   .     S
C507   C514    1.475   .     S
C511   C519    1.475   .     S
C512   C518    1.475   .     S
C513   C517    1.475   .     S
C514   O598    1.302   .     A
C514   O597    1.302   .     A
C515   C516    1.475   .     S
C516   O588    1.302   .     A
C516   O600    1.302   .     A
C517   O587    1.302   .     A
C517   O586    1.302   .     A
C518   O589    1.302   .     A
C518   O592    1.302   .     A
C519   O590    1.302   .     A
C519   O591    1.302   .     A
C520   N576    1.378   .     A
C520   I557    2.150   .     S
Cu521  O714    1.990   1_455 S
Cu521  O719    1.990   1_455 S
Cu521  Cu522   2.696   .     S
Cu521  N565    2.026   .     S
Cu521  O585    1.990   .     S
Cu521  O597    1.990   .     S
Cu522  N576    2.026   .     S
Cu522  O598    1.990   .     S
Cu522  O595    1.990   .     S
Cu522  O713    1.990   1_455 S
Cu522  O716    1.990   1_455 S
Cu523  O840    1.990   1_545 S
Cu523  Cu524   2.696   .     S
Cu523  O832    1.990   1_545 S
Cu523  N578    2.026   .     S
Cu523  O587    1.990   .     S
Cu523  O590    1.990   .     S
Cu524  O829    1.990   1_545 S
Cu524  O828    1.990   1_545 S
Cu524  N579    2.026   .     S
Cu524  O586    1.990   .     S
Cu524  O591    1.990   .     S
H525   N580    1.045   .     S
H526   N584    1.044   .     S
H527   N566    1.045   .     S
H528   N566    1.044   .     S
H529   N567    1.045   .     S
H530   N567    1.044   .     S
H531   N568    1.045   .     S
H532   N568    1.044   .     S
H533   N569    1.045   .     S
H534   N569    1.044   .     S
H535   N570    1.045   .     S
H536   N580    1.044   .     S
H537   N570    1.044   .     S
H538   N571    1.045   .     S
H539   N571    1.044   .     S
H540   N572    1.045   .     S
H541   N572    1.044   .     S
H542   N573    1.045   .     S
H543   N573    1.044   .     S
H544   N574    1.045   .     S
H545   N574    1.044   .     S
H546   N575    1.045   .     S
H547   N581    1.045   .     S
H548   N575    1.044   .     S
H549   N577    1.045   .     S
H550   N577    1.044   .     S
H551   N581    1.044   .     S
H552   N582    1.045   .     S
H553   N582    1.044   .     S
H554   N583    1.045   .     S
H555   N583    1.044   .     S
H556   N584    1.045   .     S
N578   C728    1.378   1_545 S
N579   C725    1.378   1_545 S
O588   Cu764   1.990   .     S
O589   Cu764   1.990   .     S
O592   Cu763   1.990   .     S
O593   Cu642   1.990   .     S
O594   Cu641   1.990   .     S
O596   Cu642   1.990   .     S
O599   Cu641   1.990   .     S
O600   Cu763   1.990   .     S
C601   C630    1.475   .     S
C601   O705    1.302   .     A
C601   O715    1.302   .     A
C602   C1083   1.425   .     S
C602   I678    2.150   .     S
C602   N685    1.378   .     S
C603   I679    2.150   .     S
C603   N696    1.378   .     S
C604   I680    2.150   .     S
C604   N685    1.378   .     A
C604   C1120   1.425   .     S
C605   I681    2.150   .     S
C605   N939    1.378   .     S
C606   I682    2.150   .     S
C606   N698    1.378   .     A
C606   C1087   1.425   .     S
C607   I683    2.150   .     S
C607   N699    1.378   .     A
C608   I684    2.150   .     S
C608   C1085   1.425   .     S
C608   N938    1.378   .     S
C609   C620    1.399   .     A
C609   N700    1.437   .     S
C609   C628    1.413   .     A
C610   C627    1.413   .     A
C610   C621    1.399   .     A
C610   N701    1.437   .     S
C611   C618    1.399   .     A
C611   C627    1.413   .     A
C611   N702    1.437   .     S
C612   C629    1.475   .     S
C612   O714    1.302   .     A
C612   O713    1.302   .     A
C613   C628    1.413   .     A
C613   N703    1.437   .     S
C613   C619    1.399   .     A
C614   C630    1.413   .     A
C614   N704    1.437   .     S
C614   C625    1.399   .     A
C615   C629    1.413   .     A
C615   C626    1.399   .     A
C615   N686    1.437   .     S
C616   N687    1.437   .     S
C616   C629    1.413   .     A
C616   C622    1.399   .     A
C617   N688    1.437   .     S
C617   C630    1.413   .     A
C617   C624    1.399   .     A
C618   C632    1.413   .     A
C618   N689    1.437   .     S
C619   C631    1.413   .     A
C619   N690    1.437   .     S
C620   N691    1.437   .     S
C620   C631    1.413   .     A
C621   C632    1.413   .     A
C621   N692    1.437   .     S
C622   C635    1.413   .     A
C622   N693    1.437   .     S
C623   O719    1.302   .     A
C623   O716    1.302   .     A
C623   C628    1.475   .     S
C624   N694    1.437   .     S
C624   C633    1.413   .     A
C625   N695    1.437   .     S
C625   C633    1.413   .     A
C626   C635    1.413   .     A
C626   N697    1.437   .     S
C627   C634    1.475   .     S
C631   C639    1.475   .     S
C632   C638    1.475   .     S
C633   C637    1.475   .     S
C634   O718    1.302   .     A
C634   O717    1.302   .     A
C635   C636    1.475   .     S
C636   O708    1.302   .     A
C636   O720    1.302   .     A
C637   O707    1.302   .     A
C637   O706    1.302   .     A
C638   O709    1.302   .     A
C638   O712    1.302   .     A
C639   O710    1.302   .     A
C639   O711    1.302   .     A
C640   N696    1.378   .     A
C640   I677    2.150   .     S
Cu641  Cu642   2.696   .     S
Cu641  N685    2.026   .     S
Cu641  O705    1.990   .     S
Cu641  O717    1.990   .     S
Cu642  N696    2.026   .     S
Cu642  O718    1.990   .     S
Cu642  O715    1.990   .     S
Cu643  O960    1.990   1_545 S
Cu643  Cu644   2.696   .     S
Cu643  O952    1.990   1_545 S
Cu643  N698    2.026   .     S
Cu643  O707    1.990   .     S
Cu643  O710    1.990   .     S
Cu644  O949    1.990   1_545 S
Cu644  O948    1.990   1_545 S
Cu644  N699    2.026   .     S
Cu644  O706    1.990   .     S
Cu644  O711    1.990   .     S
H645   N700    1.045   .     S
H646   N704    1.044   .     S
H647   N686    1.045   .     S
H648   N686    1.044   .     S
H649   N687    1.045   .     S
H650   N687    1.044   .     S
H651   N688    1.045   .     S
H652   N688    1.044   .     S
H653   N689    1.045   .     S
H654   N689    1.044   .     S
H655   N690    1.045   .     S
H656   N700    1.044   .     S
H657   N690    1.044   .     S
H658   N691    1.045   .     S
H659   N691    1.044   .     S
H660   N692    1.045   .     S
H661   N692    1.044   .     S
H662   N693    1.045   .     S
H663   N693    1.044   .     S
H664   N694    1.045   .     S
H665   N694    1.044   .     S
H666   N695    1.045   .     S
H667   N701    1.045   .     S
H668   N695    1.044   .     S
H669   N697    1.045   .     S
H670   N697    1.044   .     S
H671   N701    1.044   .     S
H672   N702    1.045   .     S
H673   N702    1.044   .     S
H674   N703    1.045   .     S
H675   N703    1.044   .     S
H676   N704    1.045   .     S
N698   C848    1.378   1_545 S
N699   C845    1.378   1_545 S
O708   Cu884   1.990   .     S
O709   Cu884   1.990   .     S
O712   Cu883   1.990   .     S
O713   Cu522   1.990   1_655 S
O714   Cu521   1.990   1_655 S
O716   Cu522   1.990   1_655 S
O719   Cu521   1.990   1_655 S
O720   Cu883   1.990   .     S
C721   C750    1.475   .     S
C721   O825    1.302   .     A
C721   O835    1.302   .     A
C722   C1203   1.425   .     S
C722   I798    2.150   .     S
C722   N805    1.378   .     S
C723   I799    2.150   .     S
C723   N816    1.378   .     S
C724   I800    2.150   .     S
C724   N805    1.378   .     A
C724   C1240   1.425   .     S
C725   I801    2.150   .     S
C725   N579    1.378   1_565 S
C726   I802    2.150   .     S
C726   N818    1.378   .     A
C726   C1207   1.425   .     S
C727   I803    2.150   .     S
C727   N819    1.378   .     A
C728   I804    2.150   .     S
C728   C1205   1.425   .     S
C728   N578    1.378   1_565 S
C729   C740    1.399   .     A
C729   N820    1.437   .     S
C729   C748    1.413   .     A
C730   C747    1.413   .     A
C730   C741    1.399   .     A
C730   N821    1.437   .     S
C731   C738    1.399   .     A
C731   C747    1.413   .     A
C731   N822    1.437   .     S
C732   C749    1.475   .     S
C732   O834    1.302   .     A
C732   O833    1.302   .     A
C733   C748    1.413   .     A
C733   N823    1.437   .     S
C733   C739    1.399   .     A
C734   C750    1.413   .     A
C734   N824    1.437   .     S
C734   C745    1.399   .     A
C735   C749    1.413   .     A
C735   C746    1.399   .     A
C735   N806    1.437   .     S
C736   N807    1.437   .     S
C736   C749    1.413   .     A
C736   C742    1.399   .     A
C737   N808    1.437   .     S
C737   C750    1.413   .     A
C737   C744    1.399   .     A
C738   C752    1.413   .     A
C738   N809    1.437   .     S
C739   C751    1.413   .     A
C739   N810    1.437   .     S
C740   N811    1.437   .     S
C740   C751    1.413   .     A
C741   C752    1.413   .     A
C741   N812    1.437   .     S
C742   C755    1.413   .     A
C742   N813    1.437   .     S
C743   O839    1.302   .     A
C743   O836    1.302   .     A
C743   C748    1.475   .     S
C744   N814    1.437   .     S
C744   C753    1.413   .     A
C745   N815    1.437   .     S
C745   C753    1.413   .     A
C746   C755    1.413   .     A
C746   N817    1.437   .     S
C747   C754    1.475   .     S
C751   C759    1.475   .     S
C752   C758    1.475   .     S
C753   C757    1.475   .     S
C754   O838    1.302   .     A
C754   O837    1.302   .     A
C755   C756    1.475   .     S
C756   O828    1.302   .     A
C756   O840    1.302   .     A
C757   O827    1.302   .     A
C757   O826    1.302   .     A
C758   O829    1.302   .     A
C758   O832    1.302   .     A
C759   O830    1.302   .     A
C759   O831    1.302   .     A
C760   N816    1.378   .     A
C760   I797    2.150   .     S
Cu761  O954    1.990   1_455 S
Cu761  O959    1.990   1_455 S
Cu761  Cu762   2.696   .     S
Cu761  N805    2.026   .     S
Cu761  O825    1.990   .     S
Cu761  O837    1.990   .     S
Cu762  N816    2.026   .     S
Cu762  O838    1.990   .     S
Cu762  O835    1.990   .     S
Cu762  O953    1.990   1_455 S
Cu762  O956    1.990   1_455 S
Cu763  Cu764   2.696   .     S
Cu763  N818    2.026   .     S
Cu763  O827    1.990   .     S
Cu763  O830    1.990   .     S
Cu764  N819    2.026   .     S
Cu764  O826    1.990   .     S
Cu764  O831    1.990   .     S
H765   N820    1.045   .     S
H766   N824    1.044   .     S
H767   N806    1.045   .     S
H768   N806    1.044   .     S
H769   N807    1.045   .     S
H770   N807    1.044   .     S
H771   N808    1.045   .     S
H772   N808    1.044   .     S
H773   N809    1.045   .     S
H774   N809    1.044   .     S
H775   N810    1.045   .     S
H776   N820    1.044   .     S
H777   N810    1.044   .     S
H778   N811    1.045   .     S
H779   N811    1.044   .     S
H780   N812    1.045   .     S
H781   N812    1.044   .     S
H782   N813    1.045   .     S
H783   N813    1.044   .     S
H784   N814    1.045   .     S
H785   N814    1.044   .     S
H786   N815    1.045   .     S
H787   N821    1.045   .     S
H788   N815    1.044   .     S
H789   N817    1.045   .     S
H790   N817    1.044   .     S
H791   N821    1.044   .     S
H792   N822    1.045   .     S
H793   N822    1.044   .     S
H794   N823    1.045   .     S
H795   N823    1.044   .     S
H796   N824    1.045   .     S
O828   Cu524   1.990   1_565 S
O829   Cu524   1.990   1_565 S
O832   Cu523   1.990   1_565 S
O833   Cu882   1.990   .     S
O834   Cu881   1.990   .     S
O836   Cu882   1.990   .     S
O839   Cu881   1.990   .     S
O840   Cu523   1.990   1_565 S
C841   C870    1.475   .     S
C841   O945    1.302   .     A
C841   O955    1.302   .     A
C842   C1323   1.425   .     S
C842   I918    2.150   .     S
C842   N925    1.378   .     S
C843   I919    2.150   .     S
C843   N936    1.378   .     S
C844   I920    2.150   .     S
C844   N925    1.378   .     A
C844   C1360   1.425   .     S
C845   I921    2.150   .     S
C845   N699    1.378   1_565 S
C846   I922    2.150   .     S
C846   N938    1.378   .     A
C846   C1327   1.425   .     S
C847   I923    2.150   .     S
C847   N939    1.378   .     A
C848   I924    2.150   .     S
C848   C1325   1.425   .     S
C848   N698    1.378   1_565 S
C849   C860    1.399   .     A
C849   N940    1.437   .     S
C849   C868    1.413   .     A
C850   C867    1.413   .     A
C850   C861    1.399   .     A
C850   N941    1.437   .     S
C851   C858    1.399   .     A
C851   C867    1.413   .     A
C851   N942    1.437   .     S
C852   C869    1.475   .     S
C852   O954    1.302   .     A
C852   O953    1.302   .     A
C853   C868    1.413   .     A
C853   N943    1.437   .     S
C853   C859    1.399   .     A
C854   C870    1.413   .     A
C854   N944    1.437   .     S
C854   C865    1.399   .     A
C855   C869    1.413   .     A
C855   C866    1.399   .     A
C855   N926    1.437   .     S
C856   N927    1.437   .     S
C856   C869    1.413   .     A
C856   C862    1.399   .     A
C857   N928    1.437   .     S
C857   C870    1.413   .     A
C857   C864    1.399   .     A
C858   C872    1.413   .     A
C858   N929    1.437   .     S
C859   C871    1.413   .     A
C859   N930    1.437   .     S
C860   N931    1.437   .     S
C860   C871    1.413   .     A
C861   C872    1.413   .     A
C861   N932    1.437   .     S
C862   C875    1.413   .     A
C862   N933    1.437   .     S
C863   O959    1.302   .     A
C863   O956    1.302   .     A
C863   C868    1.475   .     S
C864   N934    1.437   .     S
C864   C873    1.413   .     A
C865   N935    1.437   .     S
C865   C873    1.413   .     A
C866   C875    1.413   .     A
C866   N937    1.437   .     S
C867   C874    1.475   .     S
C871   C879    1.475   .     S
C872   C878    1.475   .     S
C873   C877    1.475   .     S
C874   O958    1.302   .     A
C874   O957    1.302   .     A
C875   C876    1.475   .     S
C876   O948    1.302   .     A
C876   O960    1.302   .     A
C877   O947    1.302   .     A
C877   O946    1.302   .     A
C878   O949    1.302   .     A
C878   O952    1.302   .     A
C879   O950    1.302   .     A
C879   O951    1.302   .     A
C880   N936    1.378   .     A
C880   I917    2.150   .     S
Cu881  Cu882   2.696   .     S
Cu881  N925    2.026   .     S
Cu881  O945    1.990   .     S
Cu881  O957    1.990   .     S
Cu882  N936    2.026   .     S
Cu882  O958    1.990   .     S
Cu882  O955    1.990   .     S
Cu883  Cu884   2.696   .     S
Cu883  N938    2.026   .     S
Cu883  O947    1.990   .     S
Cu883  O950    1.990   .     S
Cu884  N939    2.026   .     S
Cu884  O946    1.990   .     S
Cu884  O951    1.990   .     S
H885   N940    1.045   .     S
H886   N944    1.044   .     S
H887   N926    1.045   .     S
H888   N926    1.044   .     S
H889   N927    1.045   .     S
H890   N927    1.044   .     S
H891   N928    1.045   .     S
H892   N928    1.044   .     S
H893   N929    1.045   .     S
H894   N929    1.044   .     S
H895   N930    1.045   .     S
H896   N940    1.044   .     S
H897   N930    1.044   .     S
H898   N931    1.045   .     S
H899   N931    1.044   .     S
H900   N932    1.045   .     S
H901   N932    1.044   .     S
H902   N933    1.045   .     S
H903   N933    1.044   .     S
H904   N934    1.045   .     S
H905   N934    1.044   .     S
H906   N935    1.045   .     S
H907   N941    1.045   .     S
H908   N935    1.044   .     S
H909   N937    1.045   .     S
H910   N937    1.044   .     S
H911   N941    1.044   .     S
H912   N942    1.045   .     S
H913   N942    1.044   .     S
H914   N943    1.045   .     S
H915   N943    1.044   .     S
H916   N944    1.045   .     S
O948   Cu644   1.990   1_565 S
O949   Cu644   1.990   1_565 S
O952   Cu643   1.990   1_565 S
O953   Cu762   1.990   1_655 S
O954   Cu761   1.990   1_655 S
O956   Cu762   1.990   1_655 S
O959   Cu761   1.990   1_655 S
O960   Cu643   1.990   1_565 S
C961   C990    1.475   .     S
C961   O1065   1.302   .     A
C961   O1075   1.302   .     A
C962   C3      1.425   1_556 S
C962   I1038   2.150   .     S
C962   N1045   1.378   .     S
C963   I1039   2.150   .     S
C963   N1056   1.378   .     S
C964   I1040   2.150   .     S
C964   N1045   1.378   .     A
C964   C40     1.425   1_556 S
C965   I1041   2.150   .     S
C965   N1299   1.378   .     S
C966   I1042   2.150   .     S
C966   N1058   1.378   .     A
C966   C7      1.425   1_556 S
C967   I1043   2.150   .     S
C967   N1059   1.378   .     A
C968   I1044   2.150   .     S
C968   C5      1.425   1_556 S
C968   N1298   1.378   .     S
C969   C980    1.399   .     A
C969   N1060   1.437   .     S
C969   C988    1.413   .     A
C970   C987    1.413   .     A
C970   C981    1.399   .     A
C970   N1061   1.437   .     S
C971   C978    1.399   .     A
C971   C987    1.413   .     A
C971   N1062   1.437   .     S
C972   C989    1.475   .     S
C972   O1074   1.302   .     A
C972   O1073   1.302   .     A
C973   C988    1.413   .     A
C973   N1063   1.437   .     S
C973   C979    1.399   .     A
C974   C990    1.413   .     A
C974   N1064   1.437   .     S
C974   C985    1.399   .     A
C975   C989    1.413   .     A
C975   C986    1.399   .     A
C975   N1046   1.437   .     S
C976   N1047   1.437   .     S
C976   C989    1.413   .     A
C976   C982    1.399   .     A
C977   N1048   1.437   .     S
C977   C990    1.413   .     A
C977   C984    1.399   .     A
C978   C992    1.413   .     A
C978   N1049   1.437   .     S
C979   C991    1.413   .     A
C979   N1050   1.437   .     S
C980   N1051   1.437   .     S
C980   C991    1.413   .     A
C981   C992    1.413   .     A
C981   N1052   1.437   .     S
C982   C995    1.413   .     A
C982   N1053   1.437   .     S
C983   O1079   1.302   .     A
C983   O1076   1.302   .     A
C983   C988    1.475   .     S
C984   N1054   1.437   .     S
C984   C993    1.413   .     A
C985   N1055   1.437   .     S
C985   C993    1.413   .     A
C986   C995    1.413   .     A
C986   N1057   1.437   .     S
C987   C994    1.475   .     S
C991   C999    1.475   .     S
C992   C998    1.475   .     S
C993   C997    1.475   .     S
C994   O1078   1.302   .     A
C994   O1077   1.302   .     A
C995   C996    1.475   .     S
C996   O1068   1.302   .     A
C996   O1080   1.302   .     A
C997   O1067   1.302   .     A
C997   O1066   1.302   .     A
C998   O1069   1.302   .     A
C998   O1072   1.302   .     A
C999   O1070   1.302   .     A
C999   O1071   1.302   .     A
C1000  N1056   1.378   .     A
C1000  I1037   2.150   .     S
Cu1001 O1194   1.990   1_455 S
Cu1001 O1199   1.990   1_455 S
Cu1001 Cu1002  2.696   .     S
Cu1001 N1045   2.026   .     S
Cu1001 O1065   1.990   .     S
Cu1001 O1077   1.990   .     S
Cu1002 N1056   2.026   .     S
Cu1002 O1078   1.990   .     S
Cu1002 O1075   1.990   .     S
Cu1002 O1193   1.990   1_455 S
Cu1002 O1196   1.990   1_455 S
Cu1003 O1320   1.990   1_545 S
Cu1003 Cu1004  2.696   .     S
Cu1003 O1312   1.990   1_545 S
Cu1003 N1058   2.026   .     S
Cu1003 O1067   1.990   .     S
Cu1003 O1070   1.990   .     S
Cu1004 O1309   1.990   1_545 S
Cu1004 O1308   1.990   1_545 S
Cu1004 N1059   2.026   .     S
Cu1004 O1066   1.990   .     S
Cu1004 O1071   1.990   .     S
H1005  N1060   1.045   .     S
H1006  N1064   1.044   .     S
H1007  N1046   1.045   .     S
H1008  N1046   1.044   .     S
H1009  N1047   1.045   .     S
H1010  N1047   1.044   .     S
H1011  N1048   1.045   .     S
H1012  N1048   1.044   .     S
H1013  N1049   1.045   .     S
H1014  N1049   1.044   .     S
H1015  N1050   1.045   .     S
H1016  N1060   1.044   .     S
H1017  N1050   1.044   .     S
H1018  N1051   1.045   .     S
H1019  N1051   1.044   .     S
H1020  N1052   1.045   .     S
H1021  N1052   1.044   .     S
H1022  N1053   1.045   .     S
H1023  N1053   1.044   .     S
H1024  N1054   1.045   .     S
H1025  N1054   1.044   .     S
H1026  N1055   1.045   .     S
H1027  N1061   1.045   .     S
H1028  N1055   1.044   .     S
H1029  N1057   1.045   .     S
H1030  N1057   1.044   .     S
H1031  N1061   1.044   .     S
H1032  N1062   1.045   .     S
H1033  N1062   1.044   .     S
H1034  N1063   1.045   .     S
H1035  N1063   1.044   .     S
H1036  N1064   1.045   .     S
N1058  C1208   1.378   1_545 S
N1059  C1205   1.378   1_545 S
O1068  Cu1244  1.990   .     S
O1069  Cu1244  1.990   .     S
O1072  Cu1243  1.990   .     S
O1073  Cu1122  1.990   .     S
O1074  Cu1121  1.990   .     S
O1076  Cu1122  1.990   .     S
O1079  Cu1121  1.990   .     S
O1080  Cu1243  1.990   .     S
C1081  C1110   1.475   .     S
C1081  O1185   1.302   .     A
C1081  O1195   1.302   .     A
C1082  C123    1.425   1_556 S
C1082  I1158   2.150   .     S
C1082  N1165   1.378   .     S
C1083  I1159   2.150   .     S
C1083  N1176   1.378   .     S
C1084  I1160   2.150   .     S
C1084  N1165   1.378   .     A
C1084  C160    1.425   1_556 S
C1085  I1161   2.150   .     S
C1085  N1419   1.378   .     S
C1086  I1162   2.150   .     S
C1086  N1178   1.378   .     A
C1086  C127    1.425   1_556 S
C1087  I1163   2.150   .     S
C1087  N1179   1.378   .     A
C1088  I1164   2.150   .     S
C1088  C125    1.425   1_556 S
C1088  N1418   1.378   .     S
C1089  C1100   1.399   .     A
C1089  N1180   1.437   .     S
C1089  C1108   1.413   .     A
C1090  C1107   1.413   .     A
C1090  C1101   1.399   .     A
C1090  N1181   1.437   .     S
C1091  C1098   1.399   .     A
C1091  C1107   1.413   .     A
C1091  N1182   1.437   .     S
C1092  C1109   1.475   .     S
C1092  O1194   1.302   .     A
C1092  O1193   1.302   .     A
C1093  C1108   1.413   .     A
C1093  N1183   1.437   .     S
C1093  C1099   1.399   .     A
C1094  C1110   1.413   .     A
C1094  N1184   1.437   .     S
C1094  C1105   1.399   .     A
C1095  C1109   1.413   .     A
C1095  C1106   1.399   .     A
C1095  N1166   1.437   .     S
C1096  N1167   1.437   .     S
C1096  C1109   1.413   .     A
C1096  C1102   1.399   .     A
C1097  N1168   1.437   .     S
C1097  C1110   1.413   .     A
C1097  C1104   1.399   .     A
C1098  C1112   1.413   .     A
C1098  N1169   1.437   .     S
C1099  C1111   1.413   .     A
C1099  N1170   1.437   .     S
C1100  N1171   1.437   .     S
C1100  C1111   1.413   .     A
C1101  C1112   1.413   .     A
C1101  N1172   1.437   .     S
C1102  C1115   1.413   .     A
C1102  N1173   1.437   .     S
C1103  O1199   1.302   .     A
C1103  O1196   1.302   .     A
C1103  C1108   1.475   .     S
C1104  N1174   1.437   .     S
C1104  C1113   1.413   .     A
C1105  N1175   1.437   .     S
C1105  C1113   1.413   .     A
C1106  C1115   1.413   .     A
C1106  N1177   1.437   .     S
C1107  C1114   1.475   .     S
C1111  C1119   1.475   .     S
C1112  C1118   1.475   .     S
C1113  C1117   1.475   .     S
C1114  O1198   1.302   .     A
C1114  O1197   1.302   .     A
C1115  C1116   1.475   .     S
C1116  O1188   1.302   .     A
C1116  O1200   1.302   .     A
C1117  O1187   1.302   .     A
C1117  O1186   1.302   .     A
C1118  O1189   1.302   .     A
C1118  O1192   1.302   .     A
C1119  O1190   1.302   .     A
C1119  O1191   1.302   .     A
C1120  N1176   1.378   .     A
C1120  I1157   2.150   .     S
Cu1121 Cu1122  2.696   .     S
Cu1121 N1165   2.026   .     S
Cu1121 O1185   1.990   .     S
Cu1121 O1197   1.990   .     S
Cu1122 N1176   2.026   .     S
Cu1122 O1198   1.990   .     S
Cu1122 O1195   1.990   .     S
Cu1123 O1440   1.990   1_545 S
Cu1123 Cu1124  2.696   .     S
Cu1123 O1432   1.990   1_545 S
Cu1123 N1178   2.026   .     S
Cu1123 O1187   1.990   .     S
Cu1123 O1190   1.990   .     S
Cu1124 O1429   1.990   1_545 S
Cu1124 O1428   1.990   1_545 S
Cu1124 N1179   2.026   .     S
Cu1124 O1186   1.990   .     S
Cu1124 O1191   1.990   .     S
H1125  N1180   1.045   .     S
H1126  N1184   1.044   .     S
H1127  N1166   1.045   .     S
H1128  N1166   1.044   .     S
H1129  N1167   1.045   .     S
H1130  N1167   1.044   .     S
H1131  N1168   1.045   .     S
H1132  N1168   1.044   .     S
H1133  N1169   1.045   .     S
H1134  N1169   1.044   .     S
H1135  N1170   1.045   .     S
H1136  N1180   1.044   .     S
H1137  N1170   1.044   .     S
H1138  N1171   1.045   .     S
H1139  N1171   1.044   .     S
H1140  N1172   1.045   .     S
H1141  N1172   1.044   .     S
H1142  N1173   1.045   .     S
H1143  N1173   1.044   .     S
H1144  N1174   1.045   .     S
H1145  N1174   1.044   .     S
H1146  N1175   1.045   .     S
H1147  N1181   1.045   .     S
H1148  N1175   1.044   .     S
H1149  N1177   1.045   .     S
H1150  N1177   1.044   .     S
H1151  N1181   1.044   .     S
H1152  N1182   1.045   .     S
H1153  N1182   1.044   .     S
H1154  N1183   1.045   .     S
H1155  N1183   1.044   .     S
H1156  N1184   1.045   .     S
N1178  C1328   1.378   1_545 S
N1179  C1325   1.378   1_545 S
O1188  Cu1364  1.990   .     S
O1189  Cu1364  1.990   .     S
O1192  Cu1363  1.990   .     S
O1193  Cu1002  1.990   1_655 S
O1194  Cu1001  1.990   1_655 S
O1196  Cu1002  1.990   1_655 S
O1199  Cu1001  1.990   1_655 S
O1200  Cu1363  1.990   .     S
C1201  C1230   1.475   .     S
C1201  O1305   1.302   .     A
C1201  O1315   1.302   .     A
C1202  C243    1.425   1_556 S
C1202  I1278   2.150   .     S
C1202  N1285   1.378   .     S
C1203  I1279   2.150   .     S
C1203  N1296   1.378   .     S
C1204  I1280   2.150   .     S
C1204  N1285   1.378   .     A
C1204  C280    1.425   1_556 S
C1205  I1281   2.150   .     S
C1205  N1059   1.378   1_565 S
C1206  I1282   2.150   .     S
C1206  N1298   1.378   .     A
C1206  C247    1.425   1_556 S
C1207  I1283   2.150   .     S
C1207  N1299   1.378   .     A
C1208  I1284   2.150   .     S
C1208  C245    1.425   1_556 S
C1208  N1058   1.378   1_565 S
C1209  C1220   1.399   .     A
C1209  N1300   1.437   .     S
C1209  C1228   1.413   .     A
C1210  C1227   1.413   .     A
C1210  C1221   1.399   .     A
C1210  N1301   1.437   .     S
C1211  C1218   1.399   .     A
C1211  C1227   1.413   .     A
C1211  N1302   1.437   .     S
C1212  C1229   1.475   .     S
C1212  O1314   1.302   .     A
C1212  O1313   1.302   .     A
C1213  C1228   1.413   .     A
C1213  N1303   1.437   .     S
C1213  C1219   1.399   .     A
C1214  C1230   1.413   .     A
C1214  N1304   1.437   .     S
C1214  C1225   1.399   .     A
C1215  C1229   1.413   .     A
C1215  C1226   1.399   .     A
C1215  N1286   1.437   .     S
C1216  N1287   1.437   .     S
C1216  C1229   1.413   .     A
C1216  C1222   1.399   .     A
C1217  N1288   1.437   .     S
C1217  C1230   1.413   .     A
C1217  C1224   1.399   .     A
C1218  C1232   1.413   .     A
C1218  N1289   1.437   .     S
C1219  C1231   1.413   .     A
C1219  N1290   1.437   .     S
C1220  N1291   1.437   .     S
C1220  C1231   1.413   .     A
C1221  C1232   1.413   .     A
C1221  N1292   1.437   .     S
C1222  C1235   1.413   .     A
C1222  N1293   1.437   .     S
C1223  O1319   1.302   .     A
C1223  O1316   1.302   .     A
C1223  C1228   1.475   .     S
C1224  N1294   1.437   .     S
C1224  C1233   1.413   .     A
C1225  N1295   1.437   .     S
C1225  C1233   1.413   .     A
C1226  C1235   1.413   .     A
C1226  N1297   1.437   .     S
C1227  C1234   1.475   .     S
C1231  C1239   1.475   .     S
C1232  C1238   1.475   .     S
C1233  C1237   1.475   .     S
C1234  O1318   1.302   .     A
C1234  O1317   1.302   .     A
C1235  C1236   1.475   .     S
C1236  O1308   1.302   .     A
C1236  O1320   1.302   .     A
C1237  O1307   1.302   .     A
C1237  O1306   1.302   .     A
C1238  O1309   1.302   .     A
C1238  O1312   1.302   .     A
C1239  O1310   1.302   .     A
C1239  O1311   1.302   .     A
C1240  N1296   1.378   .     A
C1240  I1277   2.150   .     S
Cu1241 O1434   1.990   1_455 S
Cu1241 O1439   1.990   1_455 S
Cu1241 Cu1242  2.696   .     S
Cu1241 N1285   2.026   .     S
Cu1241 O1305   1.990   .     S
Cu1241 O1317   1.990   .     S
Cu1242 N1296   2.026   .     S
Cu1242 O1318   1.990   .     S
Cu1242 O1315   1.990   .     S
Cu1242 O1433   1.990   1_455 S
Cu1242 O1436   1.990   1_455 S
Cu1243 Cu1244  2.696   .     S
Cu1243 N1298   2.026   .     S
Cu1243 O1307   1.990   .     S
Cu1243 O1310   1.990   .     S
Cu1244 N1299   2.026   .     S
Cu1244 O1306   1.990   .     S
Cu1244 O1311   1.990   .     S
H1245  N1300   1.045   .     S
H1246  N1304   1.044   .     S
H1247  N1286   1.045   .     S
H1248  N1286   1.044   .     S
H1249  N1287   1.045   .     S
H1250  N1287   1.044   .     S
H1251  N1288   1.045   .     S
H1252  N1288   1.044   .     S
H1253  N1289   1.045   .     S
H1254  N1289   1.044   .     S
H1255  N1290   1.045   .     S
H1256  N1300   1.044   .     S
H1257  N1290   1.044   .     S
H1258  N1291   1.045   .     S
H1259  N1291   1.044   .     S
H1260  N1292   1.045   .     S
H1261  N1292   1.044   .     S
H1262  N1293   1.045   .     S
H1263  N1293   1.044   .     S
H1264  N1294   1.045   .     S
H1265  N1294   1.044   .     S
H1266  N1295   1.045   .     S
H1267  N1301   1.045   .     S
H1268  N1295   1.044   .     S
H1269  N1297   1.045   .     S
H1270  N1297   1.044   .     S
H1271  N1301   1.044   .     S
H1272  N1302   1.045   .     S
H1273  N1302   1.044   .     S
H1274  N1303   1.045   .     S
H1275  N1303   1.044   .     S
H1276  N1304   1.045   .     S
O1308  Cu1004  1.990   1_565 S
O1309  Cu1004  1.990   1_565 S
O1312  Cu1003  1.990   1_565 S
O1313  Cu1362  1.990   .     S
O1314  Cu1361  1.990   .     S
O1316  Cu1362  1.990   .     S
O1319  Cu1361  1.990   .     S
O1320  Cu1003  1.990   1_565 S
C1321  C1350   1.475   .     S
C1321  O1425   1.302   .     A
C1321  O1435   1.302   .     A
C1322  C363    1.425   1_556 S
C1322  I1398   2.150   .     S
C1322  N1405   1.378   .     S
C1323  I1399   2.150   .     S
C1323  N1416   1.378   .     S
C1324  I1400   2.150   .     S
C1324  N1405   1.378   .     A
C1324  C400    1.425   1_556 S
C1325  I1401   2.150   .     S
C1325  N1179   1.378   1_565 S
C1326  I1402   2.150   .     S
C1326  N1418   1.378   .     A
C1326  C367    1.425   1_556 S
C1327  I1403   2.150   .     S
C1327  N1419   1.378   .     A
C1328  I1404   2.150   .     S
C1328  C365    1.425   1_556 S
C1328  N1178   1.378   1_565 S
C1329  C1340   1.399   .     A
C1329  N1420   1.437   .     S
C1329  C1348   1.413   .     A
C1330  C1347   1.413   .     A
C1330  C1341   1.399   .     A
C1330  N1421   1.437   .     S
C1331  C1338   1.399   .     A
C1331  C1347   1.413   .     A
C1331  N1422   1.437   .     S
C1332  C1349   1.475   .     S
C1332  O1434   1.302   .     A
C1332  O1433   1.302   .     A
C1333  C1348   1.413   .     A
C1333  N1423   1.437   .     S
C1333  C1339   1.399   .     A
C1334  C1350   1.413   .     A
C1334  N1424   1.437   .     S
C1334  C1345   1.399   .     A
C1335  C1349   1.413   .     A
C1335  C1346   1.399   .     A
C1335  N1406   1.437   .     S
C1336  N1407   1.437   .     S
C1336  C1349   1.413   .     A
C1336  C1342   1.399   .     A
C1337  N1408   1.437   .     S
C1337  C1350   1.413   .     A
C1337  C1344   1.399   .     A
C1338  C1352   1.413   .     A
C1338  N1409   1.437   .     S
C1339  C1351   1.413   .     A
C1339  N1410   1.437   .     S
C1340  N1411   1.437   .     S
C1340  C1351   1.413   .     A
C1341  C1352   1.413   .     A
C1341  N1412   1.437   .     S
C1342  C1355   1.413   .     A
C1342  N1413   1.437   .     S
C1343  O1439   1.302   .     A
C1343  O1436   1.302   .     A
C1343  C1348   1.475   .     S
C1344  N1414   1.437   .     S
C1344  C1353   1.413   .     A
C1345  N1415   1.437   .     S
C1345  C1353   1.413   .     A
C1346  C1355   1.413   .     A
C1346  N1417   1.437   .     S
C1347  C1354   1.475   .     S
C1351  C1359   1.475   .     S
C1352  C1358   1.475   .     S
C1353  C1357   1.475   .     S
C1354  O1438   1.302   .     A
C1354  O1437   1.302   .     A
C1355  C1356   1.475   .     S
C1356  O1428   1.302   .     A
C1356  O1440   1.302   .     A
C1357  O1427   1.302   .     A
C1357  O1426   1.302   .     A
C1358  O1429   1.302   .     A
C1358  O1432   1.302   .     A
C1359  O1430   1.302   .     A
C1359  O1431   1.302   .     A
C1360  N1416   1.378   .     A
C1360  I1397   2.150   .     S
Cu1361 Cu1362  2.696   .     S
Cu1361 N1405   2.026   .     S
Cu1361 O1425   1.990   .     S
Cu1361 O1437   1.990   .     S
Cu1362 N1416   2.026   .     S
Cu1362 O1438   1.990   .     S
Cu1362 O1435   1.990   .     S
Cu1363 Cu1364  2.696   .     S
Cu1363 N1418   2.026   .     S
Cu1363 O1427   1.990   .     S
Cu1363 O1430   1.990   .     S
Cu1364 N1419   2.026   .     S
Cu1364 O1426   1.990   .     S
Cu1364 O1431   1.990   .     S
H1365  N1420   1.045   .     S
H1366  N1424   1.044   .     S
H1367  N1406   1.045   .     S
H1368  N1406   1.044   .     S
H1369  N1407   1.045   .     S
H1370  N1407   1.044   .     S
H1371  N1408   1.045   .     S
H1372  N1408   1.044   .     S
H1373  N1409   1.045   .     S
H1374  N1409   1.044   .     S
H1375  N1410   1.045   .     S
H1376  N1420   1.044   .     S
H1377  N1410   1.044   .     S
H1378  N1411   1.045   .     S
H1379  N1411   1.044   .     S
H1380  N1412   1.045   .     S
H1381  N1412   1.044   .     S
H1382  N1413   1.045   .     S
H1383  N1413   1.044   .     S
H1384  N1414   1.045   .     S
H1385  N1414   1.044   .     S
H1386  N1415   1.045   .     S
H1387  N1421   1.045   .     S
H1388  N1415   1.044   .     S
H1389  N1417   1.045   .     S
H1390  N1417   1.044   .     S
H1391  N1421   1.044   .     S
H1392  N1422   1.045   .     S
H1393  N1422   1.044   .     S
H1394  N1423   1.045   .     S
H1395  N1423   1.044   .     S
H1396  N1424   1.045   .     S
O1428  Cu1124  1.990   1_565 S
O1429  Cu1124  1.990   1_565 S
O1432  Cu1123  1.990   1_565 S
O1433  Cu1242  1.990   1_655 S
O1434  Cu1241  1.990   1_655 S
O1436  Cu1242  1.990   1_655 S
O1439  Cu1241  1.990   1_655 S
O1440  Cu1123  1.990   1_565 S
