data_str_m2_o10_o18_pcu_sym.78
_audit_creation_date              2020-01-03
_audit_creation_method            'Materials Studio'
_symmetry_space_group_name_H-M    'P1'
_symmetry_Int_Tables_number       1
_symmetry_cell_setting            triclinic
loop_
_symmetry_equiv_pos_as_xyz
  x,y,z
_cell_length_a                    22.3230
_cell_length_b                    26.2636
_cell_length_c                    31.9230
_cell_angle_alpha                 95.2922
_cell_angle_beta                  75.6946
_cell_angle_gamma                 103.0183
loop_
_atom_site_label
_atom_site_type_symbol
_atom_site_fract_x
_atom_site_fract_y
_atom_site_fract_z
_atom_site_U_iso_or_equiv
_atom_site_adp_type
_atom_site_occupancy
C1     C     0.18082   0.26656   0.25260   0.00000  Uiso   1.00
C2     C     0.20496   0.16926   0.16676   0.00000  Uiso   1.00
C3     C     0.10541   0.16117   0.38126   0.00000  Uiso   1.00
C4     C     0.22814   0.17261   0.11882   0.00000  Uiso   1.00
C5     C     0.02639   0.12185   0.44312   0.00000  Uiso   1.00
C6     C     0.30740   0.21228   0.05722   0.00000  Uiso   1.00
C7     C     0.04233   0.13658   0.40028   0.00000  Uiso   1.00
C8     C     0.29127   0.19731   0.09998   0.00000  Uiso   1.00
C9     C     0.14830   0.17892   0.40865   0.00000  Uiso   1.00
C10    C     0.18548   0.15499   0.09128   0.00000  Uiso   1.00
C11    C     0.13018   0.16598   0.45296   0.00000  Uiso   1.00
C12    C     0.15251   0.06678   0.24740   0.00000  Uiso   1.00
C13    C     0.20397   0.16794   0.04697   0.00000  Uiso   1.00
C14    C     0.07277   0.12947   0.46712   0.00000  Uiso   1.00
C15    C     0.26121   0.20465   0.03307   0.00000  Uiso   1.00
C16    C     0.17074   0.18245   0.48221   0.00000  Uiso   1.00
C17    C     0.16416   0.15090   0.01732   0.00000  Uiso   1.00
C18    C     0.12019   0.13019   0.10946   0.00000  Uiso   1.00
C19    C     0.21368   0.20322   0.39017   0.00000  Uiso   1.00
C20    C     0.00579   0.21397   0.12461   0.00000  Uiso   1.00
C21    C     0.32772   0.11962   0.37577   0.00000  Uiso   1.00
C22    C     0.11769   0.10361   0.02145   0.00000  Uiso   1.00
C23    C     0.21631   0.22991   0.47818   0.00000  Uiso   1.00
C24    C     0.06681   0.09776   0.00211   0.00000  Uiso   1.00
C25    C     0.26738   0.23629   0.49800   0.00000  Uiso   1.00
C26    C     0.18530   0.32227   0.25847   0.00000  Uiso   1.00
C27    C     0.14803   0.01107   0.24153   0.00000  Uiso   1.00
C28    C     0.12841   0.16418   0.33325   0.00000  Uiso   1.00
Cu29   Cu    0.10737   0.16108   0.24516   0.00000  Uiso   1.00
Cu30   Cu    0.22596   0.17225   0.25483   0.00000  Uiso   1.00
H31    H     0.31178   0.10125   0.45617   0.00000  Uiso   1.00
H32    H     0.02196   0.09117   0.20460   0.00000  Uiso   1.00
H33    H     0.02200   0.23302   0.04435   0.00000  Uiso   1.00
H34    H     0.32758   0.04482   0.49185   0.00000  Uiso   1.00
H35    H     0.00661   0.28914   0.00812   0.00000  Uiso   1.00
H36    H     0.16740   0.06460   0.04291   0.00000  Uiso   1.00
H37    H     0.23864   0.30294   0.46141   0.00000  Uiso   1.00
H38    H     0.24428   0.32837   0.29598   0.00000  Uiso   1.00
H39    H     0.08906   0.00497   0.20402   0.00000  Uiso   1.00
H40    H     0.31151   0.24238   0.29511   0.00000  Uiso   1.00
N41    N     0.31506   0.18068   0.26212   0.00000  Uiso   1.00
N42    N     0.01827   0.15265   0.23788   0.00000  Uiso   1.00
N43    N     0.06806   0.11030   0.12349   0.00000  Uiso   1.00
N44    N     0.26590   0.22275   0.37597   0.00000  Uiso   1.00
N45    N     0.04418   0.22764   0.14421   0.00000  Uiso   1.00
N46    N     0.28927   0.10570   0.35624   0.00000  Uiso   1.00
O47    O     0.12815   0.23809   0.24686   0.00000  Uiso   1.00
O48    O     0.31914   0.27608   0.48420   0.00000  Uiso   1.00
O49    O     0.12279   0.06068   0.04131   0.00000  Uiso   1.00
O50    O     0.20704   0.27075   0.45766   0.00000  Uiso   1.00
O51    O     0.22487   0.01839   0.28325   0.00000  Uiso   1.00
O52    O     0.10847   0.31495   0.21675   0.00000  Uiso   1.00
O53    O     0.01035   0.22104   0.28377   0.00000  Uiso   1.00
O54    O     0.32304   0.11240   0.21610   0.00000  Uiso   1.00
O55    O     0.20518   0.09524   0.25314   0.00000  Uiso   1.00
O56    O     0.22829   0.24753   0.25502   0.00000  Uiso   1.00
O57    O     0.10504   0.08580   0.24497   0.00000  Uiso   1.00
O58    O     0.08851   0.15930   0.30854   0.00000  Uiso   1.00
O59    O     0.24482   0.17403   0.19145   0.00000  Uiso   1.00
O60    O     0.18866   0.16874   0.31671   0.00000  Uiso   1.00
O61    O     0.14468   0.16460   0.18329   0.00000  Uiso   1.00
O62    O     0.01642   0.05666   0.01527   0.00000  Uiso   1.00
C63    C     0.51415   0.26656   0.25260   0.00000  Uiso   1.00
C64    C     0.53829   0.16926   0.16676   0.00000  Uiso   1.00
C65    C     0.43874   0.16117   0.38126   0.00000  Uiso   1.00
C66    C     0.56147   0.17261   0.11882   0.00000  Uiso   1.00
C67    C     0.35972   0.12185   0.44312   0.00000  Uiso   1.00
C68    C     0.64074   0.21228   0.05722   0.00000  Uiso   1.00
C69    C     0.37566   0.13658   0.40028   0.00000  Uiso   1.00
C70    C     0.62460   0.19731   0.09998   0.00000  Uiso   1.00
C71    C     0.48163   0.17892   0.40865   0.00000  Uiso   1.00
C72    C     0.51882   0.15499   0.09128   0.00000  Uiso   1.00
C73    C     0.46352   0.16598   0.45296   0.00000  Uiso   1.00
C74    C     0.48585   0.06678   0.24740   0.00000  Uiso   1.00
C75    C     0.53730   0.16794   0.04697   0.00000  Uiso   1.00
C76    C     0.40610   0.12947   0.46712   0.00000  Uiso   1.00
C77    C     0.59455   0.20465   0.03307   0.00000  Uiso   1.00
C78    C     0.50407   0.18245   0.48221   0.00000  Uiso   1.00
C79    C     0.49749   0.15090   0.01732   0.00000  Uiso   1.00
C80    C     0.45353   0.13019   0.10946   0.00000  Uiso   1.00
C81    C     0.54702   0.20322   0.39017   0.00000  Uiso   1.00
C82    C     0.33912   0.21397   0.12461   0.00000  Uiso   1.00
C83    C     0.66106   0.11962   0.37577   0.00000  Uiso   1.00
C84    C     0.45103   0.10361   0.02145   0.00000  Uiso   1.00
C85    C     0.54965   0.22991   0.47818   0.00000  Uiso   1.00
C86    C     0.40014   0.09776   0.00211   0.00000  Uiso   1.00
C87    C     0.60072   0.23629   0.49800   0.00000  Uiso   1.00
C88    C     0.51863   0.32227   0.25847   0.00000  Uiso   1.00
C89    C     0.48137   0.01107   0.24153   0.00000  Uiso   1.00
C90    C     0.46174   0.16418   0.33325   0.00000  Uiso   1.00
Cu91   Cu    0.44071   0.16108   0.24516   0.00000  Uiso   1.00
Cu92   Cu    0.55929   0.17225   0.25483   0.00000  Uiso   1.00
H93    H     0.64512   0.10125   0.45617   0.00000  Uiso   1.00
H94    H     0.35530   0.09117   0.20460   0.00000  Uiso   1.00
H95    H     0.35534   0.23302   0.04435   0.00000  Uiso   1.00
H96    H     0.66091   0.04482   0.49185   0.00000  Uiso   1.00
H97    H     0.33994   0.28914   0.00812   0.00000  Uiso   1.00
H98    H     0.50074   0.06460   0.04291   0.00000  Uiso   1.00
H99    H     0.57197   0.30294   0.46141   0.00000  Uiso   1.00
H100   H     0.57761   0.32837   0.29598   0.00000  Uiso   1.00
H101   H     0.42239   0.00497   0.20402   0.00000  Uiso   1.00
H102   H     0.64484   0.24238   0.29511   0.00000  Uiso   1.00
N103   N     0.64839   0.18068   0.26212   0.00000  Uiso   1.00
N104   N     0.35161   0.15265   0.23788   0.00000  Uiso   1.00
N105   N     0.40139   0.11030   0.12349   0.00000  Uiso   1.00
N106   N     0.59923   0.22275   0.37597   0.00000  Uiso   1.00
N107   N     0.37751   0.22764   0.14421   0.00000  Uiso   1.00
N108   N     0.62261   0.10570   0.35624   0.00000  Uiso   1.00
O109   O     0.46148   0.23809   0.24686   0.00000  Uiso   1.00
O110   O     0.65247   0.27608   0.48420   0.00000  Uiso   1.00
O111   O     0.45612   0.06068   0.04131   0.00000  Uiso   1.00
O112   O     0.54037   0.27075   0.45766   0.00000  Uiso   1.00
O113   O     0.55820   0.01839   0.28325   0.00000  Uiso   1.00
O114   O     0.44180   0.31495   0.21675   0.00000  Uiso   1.00
O115   O     0.34368   0.22104   0.28377   0.00000  Uiso   1.00
O116   O     0.65637   0.11240   0.21610   0.00000  Uiso   1.00
O117   O     0.53852   0.09524   0.25314   0.00000  Uiso   1.00
O118   O     0.56163   0.24753   0.25502   0.00000  Uiso   1.00
O119   O     0.43837   0.08580   0.24497   0.00000  Uiso   1.00
O120   O     0.42185   0.15930   0.30854   0.00000  Uiso   1.00
O121   O     0.57815   0.17403   0.19145   0.00000  Uiso   1.00
O122   O     0.52199   0.16874   0.31671   0.00000  Uiso   1.00
O123   O     0.47801   0.16460   0.18329   0.00000  Uiso   1.00
O124   O     0.34975   0.05666   0.01527   0.00000  Uiso   1.00
C125   C     0.84749   0.26656   0.25260   0.00000  Uiso   1.00
C126   C     0.87162   0.16926   0.16676   0.00000  Uiso   1.00
C127   C     0.77207   0.16117   0.38126   0.00000  Uiso   1.00
C128   C     0.89481   0.17261   0.11882   0.00000  Uiso   1.00
C129   C     0.69306   0.12185   0.44312   0.00000  Uiso   1.00
C130   C     0.97407   0.21228   0.05722   0.00000  Uiso   1.00
C131   C     0.70900   0.13658   0.40028   0.00000  Uiso   1.00
C132   C     0.95794   0.19731   0.09998   0.00000  Uiso   1.00
C133   C     0.81497   0.17892   0.40865   0.00000  Uiso   1.00
C134   C     0.85215   0.15499   0.09128   0.00000  Uiso   1.00
C135   C     0.79685   0.16598   0.45296   0.00000  Uiso   1.00
C136   C     0.81918   0.06678   0.24740   0.00000  Uiso   1.00
C137   C     0.87063   0.16794   0.04697   0.00000  Uiso   1.00
C138   C     0.73943   0.12947   0.46712   0.00000  Uiso   1.00
C139   C     0.92788   0.20465   0.03307   0.00000  Uiso   1.00
C140   C     0.83741   0.18245   0.48221   0.00000  Uiso   1.00
C141   C     0.83083   0.15090   0.01732   0.00000  Uiso   1.00
C142   C     0.78686   0.13019   0.10946   0.00000  Uiso   1.00
C143   C     0.88035   0.20322   0.39017   0.00000  Uiso   1.00
C144   C     0.67246   0.21397   0.12461   0.00000  Uiso   1.00
C145   C     0.99439   0.11962   0.37577   0.00000  Uiso   1.00
C146   C     0.78436   0.10361   0.02145   0.00000  Uiso   1.00
C147   C     0.88298   0.22991   0.47818   0.00000  Uiso   1.00
C148   C     0.73347   0.09776   0.00211   0.00000  Uiso   1.00
C149   C     0.93405   0.23629   0.49800   0.00000  Uiso   1.00
C150   C     0.85197   0.32227   0.25847   0.00000  Uiso   1.00
C151   C     0.81470   0.01107   0.24153   0.00000  Uiso   1.00
C152   C     0.79508   0.16418   0.33325   0.00000  Uiso   1.00
Cu153  Cu    0.77404   0.16108   0.24516   0.00000  Uiso   1.00
Cu154  Cu    0.89263   0.17225   0.25483   0.00000  Uiso   1.00
H155   H     0.97845   0.10125   0.45617   0.00000  Uiso   1.00
H156   H     0.68863   0.09117   0.20460   0.00000  Uiso   1.00
H157   H     0.68867   0.23302   0.04435   0.00000  Uiso   1.00
H158   H     0.99424   0.04482   0.49185   0.00000  Uiso   1.00
H159   H     0.67328   0.28914   0.00812   0.00000  Uiso   1.00
H160   H     0.83407   0.06460   0.04291   0.00000  Uiso   1.00
H161   H     0.90530   0.30294   0.46141   0.00000  Uiso   1.00
H162   H     0.91095   0.32837   0.29598   0.00000  Uiso   1.00
H163   H     0.75572   0.00497   0.20402   0.00000  Uiso   1.00
H164   H     0.97817   0.24238   0.29511   0.00000  Uiso   1.00
N165   N     0.98173   0.18068   0.26212   0.00000  Uiso   1.00
N166   N     0.68494   0.15265   0.23788   0.00000  Uiso   1.00
N167   N     0.73472   0.11030   0.12349   0.00000  Uiso   1.00
N168   N     0.93256   0.22275   0.37597   0.00000  Uiso   1.00
N169   N     0.71084   0.22764   0.14421   0.00000  Uiso   1.00
N170   N     0.95594   0.10570   0.35624   0.00000  Uiso   1.00
O171   O     0.79482   0.23809   0.24686   0.00000  Uiso   1.00
O172   O     0.98580   0.27608   0.48420   0.00000  Uiso   1.00
O173   O     0.78945   0.06068   0.04131   0.00000  Uiso   1.00
O174   O     0.87370   0.27075   0.45766   0.00000  Uiso   1.00
O175   O     0.89153   0.01839   0.28325   0.00000  Uiso   1.00
O176   O     0.77514   0.31495   0.21675   0.00000  Uiso   1.00
O177   O     0.67702   0.22104   0.28377   0.00000  Uiso   1.00
O178   O     0.98971   0.11240   0.21610   0.00000  Uiso   1.00
O179   O     0.87185   0.09524   0.25314   0.00000  Uiso   1.00
O180   O     0.89496   0.24753   0.25502   0.00000  Uiso   1.00
O181   O     0.77171   0.08580   0.24497   0.00000  Uiso   1.00
O182   O     0.75518   0.15930   0.30854   0.00000  Uiso   1.00
O183   O     0.91149   0.17403   0.19145   0.00000  Uiso   1.00
O184   O     0.85532   0.16874   0.31671   0.00000  Uiso   1.00
O185   O     0.81134   0.16460   0.18329   0.00000  Uiso   1.00
O186   O     0.68309   0.05666   0.01527   0.00000  Uiso   1.00
C187   C     0.18082   0.59989   0.25260   0.00000  Uiso   1.00
C188   C     0.20496   0.50260   0.16676   0.00000  Uiso   1.00
C189   C     0.10541   0.49451   0.38126   0.00000  Uiso   1.00
C190   C     0.22814   0.50595   0.11882   0.00000  Uiso   1.00
C191   C     0.02639   0.45519   0.44312   0.00000  Uiso   1.00
C192   C     0.30740   0.54561   0.05722   0.00000  Uiso   1.00
C193   C     0.04233   0.46991   0.40028   0.00000  Uiso   1.00
C194   C     0.29127   0.53064   0.09998   0.00000  Uiso   1.00
C195   C     0.14830   0.51225   0.40865   0.00000  Uiso   1.00
C196   C     0.18548   0.48832   0.09128   0.00000  Uiso   1.00
C197   C     0.13018   0.49931   0.45296   0.00000  Uiso   1.00
C198   C     0.15251   0.40011   0.24740   0.00000  Uiso   1.00
C199   C     0.20397   0.50127   0.04697   0.00000  Uiso   1.00
C200   C     0.07277   0.46281   0.46712   0.00000  Uiso   1.00
C201   C     0.26121   0.53798   0.03307   0.00000  Uiso   1.00
C202   C     0.17074   0.51578   0.48221   0.00000  Uiso   1.00
C203   C     0.16416   0.48423   0.01732   0.00000  Uiso   1.00
C204   C     0.12019   0.46352   0.10946   0.00000  Uiso   1.00
C205   C     0.21368   0.53656   0.39017   0.00000  Uiso   1.00
C206   C     0.00579   0.54730   0.12461   0.00000  Uiso   1.00
C207   C     0.32772   0.45296   0.37577   0.00000  Uiso   1.00
C208   C     0.11769   0.43695   0.02145   0.00000  Uiso   1.00
C209   C     0.21631   0.56324   0.47818   0.00000  Uiso   1.00
C210   C     0.06681   0.43109   0.00211   0.00000  Uiso   1.00
C211   C     0.26738   0.56962   0.49800   0.00000  Uiso   1.00
C212   C     0.18530   0.65560   0.25847   0.00000  Uiso   1.00
C213   C     0.14803   0.34440   0.24153   0.00000  Uiso   1.00
C214   C     0.12841   0.49752   0.33325   0.00000  Uiso   1.00
Cu215  Cu    0.10737   0.49441   0.24516   0.00000  Uiso   1.00
Cu216  Cu    0.22596   0.50559   0.25483   0.00000  Uiso   1.00
H217   H     0.31178   0.43458   0.45617   0.00000  Uiso   1.00
H218   H     0.02196   0.42450   0.20460   0.00000  Uiso   1.00
H219   H     0.02200   0.56635   0.04435   0.00000  Uiso   1.00
H220   H     0.32758   0.37815   0.49185   0.00000  Uiso   1.00
H221   H     0.00661   0.62248   0.00812   0.00000  Uiso   1.00
H222   H     0.16740   0.39794   0.04291   0.00000  Uiso   1.00
H223   H     0.23864   0.63627   0.46141   0.00000  Uiso   1.00
H224   H     0.24428   0.66170   0.29598   0.00000  Uiso   1.00
H225   H     0.08906   0.33830   0.20402   0.00000  Uiso   1.00
H226   H     0.31151   0.57572   0.29511   0.00000  Uiso   1.00
N227   N     0.31506   0.51401   0.26212   0.00000  Uiso   1.00
N228   N     0.01827   0.48599   0.23788   0.00000  Uiso   1.00
N229   N     0.06806   0.44364   0.12349   0.00000  Uiso   1.00
N230   N     0.26590   0.55608   0.37597   0.00000  Uiso   1.00
N231   N     0.04418   0.56097   0.14421   0.00000  Uiso   1.00
N232   N     0.28927   0.43904   0.35624   0.00000  Uiso   1.00
O233   O     0.12815   0.57142   0.24686   0.00000  Uiso   1.00
O234   O     0.31914   0.60941   0.48420   0.00000  Uiso   1.00
O235   O     0.12279   0.39402   0.04131   0.00000  Uiso   1.00
O236   O     0.20704   0.60408   0.45766   0.00000  Uiso   1.00
O237   O     0.22487   0.35172   0.28325   0.00000  Uiso   1.00
O238   O     0.10847   0.64828   0.21675   0.00000  Uiso   1.00
O239   O     0.01035   0.55437   0.28377   0.00000  Uiso   1.00
O240   O     0.32304   0.44573   0.21610   0.00000  Uiso   1.00
O241   O     0.20518   0.42858   0.25314   0.00000  Uiso   1.00
O242   O     0.22829   0.58086   0.25502   0.00000  Uiso   1.00
O243   O     0.10504   0.41914   0.24497   0.00000  Uiso   1.00
O244   O     0.08851   0.49263   0.30854   0.00000  Uiso   1.00
O245   O     0.24482   0.50737   0.19145   0.00000  Uiso   1.00
O246   O     0.18866   0.50207   0.31671   0.00000  Uiso   1.00
O247   O     0.14468   0.49793   0.18329   0.00000  Uiso   1.00
O248   O     0.01642   0.39000   0.01527   0.00000  Uiso   1.00
C249   C     0.51415   0.59989   0.25260   0.00000  Uiso   1.00
C250   C     0.53829   0.50260   0.16676   0.00000  Uiso   1.00
C251   C     0.43874   0.49451   0.38126   0.00000  Uiso   1.00
C252   C     0.56147   0.50595   0.11882   0.00000  Uiso   1.00
C253   C     0.35972   0.45519   0.44312   0.00000  Uiso   1.00
C254   C     0.64074   0.54561   0.05722   0.00000  Uiso   1.00
C255   C     0.37566   0.46991   0.40028   0.00000  Uiso   1.00
C256   C     0.62460   0.53064   0.09998   0.00000  Uiso   1.00
C257   C     0.48163   0.51225   0.40865   0.00000  Uiso   1.00
C258   C     0.51882   0.48832   0.09128   0.00000  Uiso   1.00
C259   C     0.46352   0.49931   0.45296   0.00000  Uiso   1.00
C260   C     0.48585   0.40011   0.24740   0.00000  Uiso   1.00
C261   C     0.53730   0.50127   0.04697   0.00000  Uiso   1.00
C262   C     0.40610   0.46281   0.46712   0.00000  Uiso   1.00
C263   C     0.59455   0.53798   0.03307   0.00000  Uiso   1.00
C264   C     0.50407   0.51578   0.48221   0.00000  Uiso   1.00
C265   C     0.49749   0.48423   0.01732   0.00000  Uiso   1.00
C266   C     0.45353   0.46352   0.10946   0.00000  Uiso   1.00
C267   C     0.54702   0.53656   0.39017   0.00000  Uiso   1.00
C268   C     0.33912   0.54730   0.12461   0.00000  Uiso   1.00
C269   C     0.66106   0.45296   0.37577   0.00000  Uiso   1.00
C270   C     0.45103   0.43695   0.02145   0.00000  Uiso   1.00
C271   C     0.54965   0.56324   0.47818   0.00000  Uiso   1.00
C272   C     0.40014   0.43109   0.00211   0.00000  Uiso   1.00
C273   C     0.60072   0.56962   0.49800   0.00000  Uiso   1.00
C274   C     0.51863   0.65560   0.25847   0.00000  Uiso   1.00
C275   C     0.48137   0.34440   0.24153   0.00000  Uiso   1.00
C276   C     0.46174   0.49752   0.33325   0.00000  Uiso   1.00
Cu277  Cu    0.44071   0.49441   0.24516   0.00000  Uiso   1.00
Cu278  Cu    0.55929   0.50559   0.25483   0.00000  Uiso   1.00
H279   H     0.64512   0.43458   0.45617   0.00000  Uiso   1.00
H280   H     0.35530   0.42450   0.20460   0.00000  Uiso   1.00
H281   H     0.35534   0.56635   0.04435   0.00000  Uiso   1.00
H282   H     0.66091   0.37815   0.49185   0.00000  Uiso   1.00
H283   H     0.33994   0.62248   0.00812   0.00000  Uiso   1.00
H284   H     0.50074   0.39794   0.04291   0.00000  Uiso   1.00
H285   H     0.57197   0.63627   0.46141   0.00000  Uiso   1.00
H286   H     0.57761   0.66170   0.29598   0.00000  Uiso   1.00
H287   H     0.42239   0.33830   0.20402   0.00000  Uiso   1.00
H288   H     0.64484   0.57572   0.29511   0.00000  Uiso   1.00
N289   N     0.64839   0.51401   0.26212   0.00000  Uiso   1.00
N290   N     0.35161   0.48599   0.23788   0.00000  Uiso   1.00
N291   N     0.40139   0.44364   0.12349   0.00000  Uiso   1.00
N292   N     0.59923   0.55608   0.37597   0.00000  Uiso   1.00
N293   N     0.37751   0.56097   0.14421   0.00000  Uiso   1.00
N294   N     0.62261   0.43904   0.35624   0.00000  Uiso   1.00
O295   O     0.46148   0.57142   0.24686   0.00000  Uiso   1.00
O296   O     0.65247   0.60941   0.48420   0.00000  Uiso   1.00
O297   O     0.45612   0.39402   0.04131   0.00000  Uiso   1.00
O298   O     0.54037   0.60408   0.45766   0.00000  Uiso   1.00
O299   O     0.55820   0.35172   0.28325   0.00000  Uiso   1.00
O300   O     0.44180   0.64828   0.21675   0.00000  Uiso   1.00
O301   O     0.34368   0.55437   0.28377   0.00000  Uiso   1.00
O302   O     0.65637   0.44573   0.21610   0.00000  Uiso   1.00
O303   O     0.53852   0.42858   0.25314   0.00000  Uiso   1.00
O304   O     0.56163   0.58086   0.25502   0.00000  Uiso   1.00
O305   O     0.43837   0.41914   0.24497   0.00000  Uiso   1.00
O306   O     0.42185   0.49263   0.30854   0.00000  Uiso   1.00
O307   O     0.57815   0.50737   0.19145   0.00000  Uiso   1.00
O308   O     0.52199   0.50207   0.31671   0.00000  Uiso   1.00
O309   O     0.47801   0.49793   0.18329   0.00000  Uiso   1.00
O310   O     0.34975   0.39000   0.01527   0.00000  Uiso   1.00
C311   C     0.84749   0.59989   0.25260   0.00000  Uiso   1.00
C312   C     0.87162   0.50260   0.16676   0.00000  Uiso   1.00
C313   C     0.77207   0.49451   0.38126   0.00000  Uiso   1.00
C314   C     0.89481   0.50595   0.11882   0.00000  Uiso   1.00
C315   C     0.69306   0.45519   0.44312   0.00000  Uiso   1.00
C316   C     0.97407   0.54561   0.05722   0.00000  Uiso   1.00
C317   C     0.70900   0.46991   0.40028   0.00000  Uiso   1.00
C318   C     0.95794   0.53064   0.09998   0.00000  Uiso   1.00
C319   C     0.81497   0.51225   0.40865   0.00000  Uiso   1.00
C320   C     0.85215   0.48832   0.09128   0.00000  Uiso   1.00
C321   C     0.79685   0.49931   0.45296   0.00000  Uiso   1.00
C322   C     0.81918   0.40011   0.24740   0.00000  Uiso   1.00
C323   C     0.87063   0.50127   0.04697   0.00000  Uiso   1.00
C324   C     0.73943   0.46281   0.46712   0.00000  Uiso   1.00
C325   C     0.92788   0.53798   0.03307   0.00000  Uiso   1.00
C326   C     0.83741   0.51578   0.48221   0.00000  Uiso   1.00
C327   C     0.83083   0.48423   0.01732   0.00000  Uiso   1.00
C328   C     0.78686   0.46352   0.10946   0.00000  Uiso   1.00
C329   C     0.88035   0.53656   0.39017   0.00000  Uiso   1.00
C330   C     0.67246   0.54730   0.12461   0.00000  Uiso   1.00
C331   C     0.99439   0.45296   0.37577   0.00000  Uiso   1.00
C332   C     0.78436   0.43695   0.02145   0.00000  Uiso   1.00
C333   C     0.88298   0.56324   0.47818   0.00000  Uiso   1.00
C334   C     0.73347   0.43109   0.00211   0.00000  Uiso   1.00
C335   C     0.93405   0.56962   0.49800   0.00000  Uiso   1.00
C336   C     0.85197   0.65560   0.25847   0.00000  Uiso   1.00
C337   C     0.81470   0.34440   0.24153   0.00000  Uiso   1.00
C338   C     0.79508   0.49752   0.33325   0.00000  Uiso   1.00
Cu339  Cu    0.77404   0.49441   0.24516   0.00000  Uiso   1.00
Cu340  Cu    0.89263   0.50559   0.25483   0.00000  Uiso   1.00
H341   H     0.97845   0.43458   0.45617   0.00000  Uiso   1.00
H342   H     0.68863   0.42450   0.20460   0.00000  Uiso   1.00
H343   H     0.68867   0.56635   0.04435   0.00000  Uiso   1.00
H344   H     0.99424   0.37815   0.49185   0.00000  Uiso   1.00
H345   H     0.67328   0.62248   0.00812   0.00000  Uiso   1.00
H346   H     0.83407   0.39794   0.04291   0.00000  Uiso   1.00
H347   H     0.90530   0.63627   0.46141   0.00000  Uiso   1.00
H348   H     0.91095   0.66170   0.29598   0.00000  Uiso   1.00
H349   H     0.75572   0.33830   0.20402   0.00000  Uiso   1.00
H350   H     0.97817   0.57572   0.29511   0.00000  Uiso   1.00
N351   N     0.98173   0.51401   0.26212   0.00000  Uiso   1.00
N352   N     0.68494   0.48599   0.23788   0.00000  Uiso   1.00
N353   N     0.73472   0.44364   0.12349   0.00000  Uiso   1.00
N354   N     0.93256   0.55608   0.37597   0.00000  Uiso   1.00
N355   N     0.71084   0.56097   0.14421   0.00000  Uiso   1.00
N356   N     0.95594   0.43904   0.35624   0.00000  Uiso   1.00
O357   O     0.79482   0.57142   0.24686   0.00000  Uiso   1.00
O358   O     0.98580   0.60941   0.48420   0.00000  Uiso   1.00
O359   O     0.78945   0.39402   0.04131   0.00000  Uiso   1.00
O360   O     0.87370   0.60408   0.45766   0.00000  Uiso   1.00
O361   O     0.89153   0.35172   0.28325   0.00000  Uiso   1.00
O362   O     0.77514   0.64828   0.21675   0.00000  Uiso   1.00
O363   O     0.67702   0.55437   0.28377   0.00000  Uiso   1.00
O364   O     0.98971   0.44573   0.21610   0.00000  Uiso   1.00
O365   O     0.87185   0.42858   0.25314   0.00000  Uiso   1.00
O366   O     0.89496   0.58086   0.25502   0.00000  Uiso   1.00
O367   O     0.77171   0.41914   0.24497   0.00000  Uiso   1.00
O368   O     0.75518   0.49263   0.30854   0.00000  Uiso   1.00
O369   O     0.91149   0.50737   0.19145   0.00000  Uiso   1.00
O370   O     0.85532   0.50207   0.31671   0.00000  Uiso   1.00
O371   O     0.81134   0.49793   0.18329   0.00000  Uiso   1.00
O372   O     0.68309   0.39000   0.01527   0.00000  Uiso   1.00
C373   C     0.18082   0.93322   0.25260   0.00000  Uiso   1.00
C374   C     0.20496   0.83593   0.16676   0.00000  Uiso   1.00
C375   C     0.10541   0.82784   0.38126   0.00000  Uiso   1.00
C376   C     0.22814   0.83928   0.11882   0.00000  Uiso   1.00
C377   C     0.02639   0.78852   0.44312   0.00000  Uiso   1.00
C378   C     0.30740   0.87895   0.05722   0.00000  Uiso   1.00
C379   C     0.04233   0.80324   0.40028   0.00000  Uiso   1.00
C380   C     0.29127   0.86397   0.09998   0.00000  Uiso   1.00
C381   C     0.14830   0.84558   0.40865   0.00000  Uiso   1.00
C382   C     0.18548   0.82166   0.09128   0.00000  Uiso   1.00
C383   C     0.13018   0.83264   0.45296   0.00000  Uiso   1.00
C384   C     0.15251   0.73344   0.24740   0.00000  Uiso   1.00
C385   C     0.20397   0.83460   0.04697   0.00000  Uiso   1.00
C386   C     0.07277   0.79614   0.46712   0.00000  Uiso   1.00
C387   C     0.26121   0.87131   0.03307   0.00000  Uiso   1.00
C388   C     0.17074   0.84912   0.48221   0.00000  Uiso   1.00
C389   C     0.16416   0.81756   0.01732   0.00000  Uiso   1.00
C390   C     0.12019   0.79686   0.10946   0.00000  Uiso   1.00
C391   C     0.21368   0.86989   0.39017   0.00000  Uiso   1.00
C392   C     0.00579   0.88064   0.12461   0.00000  Uiso   1.00
C393   C     0.32772   0.78629   0.37577   0.00000  Uiso   1.00
C394   C     0.11769   0.77028   0.02145   0.00000  Uiso   1.00
C395   C     0.21631   0.89657   0.47818   0.00000  Uiso   1.00
C396   C     0.06681   0.76442   0.00211   0.00000  Uiso   1.00
C397   C     0.26738   0.90296   0.49800   0.00000  Uiso   1.00
C398   C     0.18530   0.98893   0.25847   0.00000  Uiso   1.00
C399   C     0.14803   0.67773   0.24153   0.00000  Uiso   1.00
C400   C     0.12841   0.83085   0.33325   0.00000  Uiso   1.00
Cu401  Cu    0.10737   0.82775   0.24516   0.00000  Uiso   1.00
Cu402  Cu    0.22596   0.83892   0.25483   0.00000  Uiso   1.00
H403   H     0.31178   0.76791   0.45617   0.00000  Uiso   1.00
H404   H     0.02196   0.75783   0.20460   0.00000  Uiso   1.00
H405   H     0.02200   0.89968   0.04435   0.00000  Uiso   1.00
H406   H     0.32758   0.71148   0.49185   0.00000  Uiso   1.00
H407   H     0.00661   0.95581   0.00812   0.00000  Uiso   1.00
H408   H     0.16740   0.73127   0.04291   0.00000  Uiso   1.00
H409   H     0.23864   0.96960   0.46141   0.00000  Uiso   1.00
H410   H     0.24428   0.99503   0.29598   0.00000  Uiso   1.00
H411   H     0.08906   0.67163   0.20402   0.00000  Uiso   1.00
H412   H     0.31151   0.90905   0.29511   0.00000  Uiso   1.00
N413   N     0.31506   0.84735   0.26212   0.00000  Uiso   1.00
N414   N     0.01827   0.81932   0.23788   0.00000  Uiso   1.00
N415   N     0.06806   0.77697   0.12349   0.00000  Uiso   1.00
N416   N     0.26590   0.88942   0.37597   0.00000  Uiso   1.00
N417   N     0.04418   0.89430   0.14421   0.00000  Uiso   1.00
N418   N     0.28927   0.77237   0.35624   0.00000  Uiso   1.00
O419   O     0.12815   0.90476   0.24686   0.00000  Uiso   1.00
O420   O     0.31914   0.94275   0.48420   0.00000  Uiso   1.00
O421   O     0.12279   0.72735   0.04131   0.00000  Uiso   1.00
O422   O     0.20704   0.93742   0.45766   0.00000  Uiso   1.00
O423   O     0.22487   0.68505   0.28325   0.00000  Uiso   1.00
O424   O     0.10847   0.98162   0.21675   0.00000  Uiso   1.00
O425   O     0.01035   0.88771   0.28377   0.00000  Uiso   1.00
O426   O     0.32304   0.77906   0.21610   0.00000  Uiso   1.00
O427   O     0.20518   0.76191   0.25314   0.00000  Uiso   1.00
O428   O     0.22829   0.91420   0.25502   0.00000  Uiso   1.00
O429   O     0.10504   0.75247   0.24497   0.00000  Uiso   1.00
O430   O     0.08851   0.82597   0.30854   0.00000  Uiso   1.00
O431   O     0.24482   0.84070   0.19145   0.00000  Uiso   1.00
O432   O     0.18866   0.83540   0.31671   0.00000  Uiso   1.00
O433   O     0.14468   0.83126   0.18329   0.00000  Uiso   1.00
O434   O     0.01642   0.72333   0.01527   0.00000  Uiso   1.00
C435   C     0.51415   0.93322   0.25260   0.00000  Uiso   1.00
C436   C     0.53829   0.83593   0.16676   0.00000  Uiso   1.00
C437   C     0.43874   0.82784   0.38126   0.00000  Uiso   1.00
C438   C     0.56147   0.83928   0.11882   0.00000  Uiso   1.00
C439   C     0.35972   0.78852   0.44312   0.00000  Uiso   1.00
C440   C     0.64074   0.87895   0.05722   0.00000  Uiso   1.00
C441   C     0.37566   0.80324   0.40028   0.00000  Uiso   1.00
C442   C     0.62460   0.86397   0.09998   0.00000  Uiso   1.00
C443   C     0.48163   0.84558   0.40865   0.00000  Uiso   1.00
C444   C     0.51882   0.82166   0.09128   0.00000  Uiso   1.00
C445   C     0.46352   0.83264   0.45296   0.00000  Uiso   1.00
C446   C     0.48585   0.73344   0.24740   0.00000  Uiso   1.00
C447   C     0.53730   0.83460   0.04697   0.00000  Uiso   1.00
C448   C     0.40610   0.79614   0.46712   0.00000  Uiso   1.00
C449   C     0.59455   0.87131   0.03307   0.00000  Uiso   1.00
C450   C     0.50407   0.84912   0.48221   0.00000  Uiso   1.00
C451   C     0.49749   0.81756   0.01732   0.00000  Uiso   1.00
C452   C     0.45353   0.79686   0.10946   0.00000  Uiso   1.00
C453   C     0.54702   0.86989   0.39017   0.00000  Uiso   1.00
C454   C     0.33912   0.88064   0.12461   0.00000  Uiso   1.00
C455   C     0.66106   0.78629   0.37577   0.00000  Uiso   1.00
C456   C     0.45103   0.77028   0.02145   0.00000  Uiso   1.00
C457   C     0.54965   0.89657   0.47818   0.00000  Uiso   1.00
C458   C     0.40014   0.76442   0.00211   0.00000  Uiso   1.00
C459   C     0.60072   0.90296   0.49800   0.00000  Uiso   1.00
C460   C     0.51863   0.98893   0.25847   0.00000  Uiso   1.00
C461   C     0.48137   0.67773   0.24153   0.00000  Uiso   1.00
C462   C     0.46174   0.83085   0.33325   0.00000  Uiso   1.00
Cu463  Cu    0.44071   0.82775   0.24516   0.00000  Uiso   1.00
Cu464  Cu    0.55929   0.83892   0.25483   0.00000  Uiso   1.00
H465   H     0.64512   0.76791   0.45617   0.00000  Uiso   1.00
H466   H     0.35530   0.75783   0.20460   0.00000  Uiso   1.00
H467   H     0.35534   0.89968   0.04435   0.00000  Uiso   1.00
H468   H     0.66091   0.71148   0.49185   0.00000  Uiso   1.00
H469   H     0.33994   0.95581   0.00812   0.00000  Uiso   1.00
H470   H     0.50074   0.73127   0.04291   0.00000  Uiso   1.00
H471   H     0.57197   0.96960   0.46141   0.00000  Uiso   1.00
H472   H     0.57761   0.99503   0.29598   0.00000  Uiso   1.00
H473   H     0.42239   0.67163   0.20402   0.00000  Uiso   1.00
H474   H     0.64484   0.90905   0.29511   0.00000  Uiso   1.00
N475   N     0.64839   0.84735   0.26212   0.00000  Uiso   1.00
N476   N     0.35161   0.81932   0.23788   0.00000  Uiso   1.00
N477   N     0.40139   0.77697   0.12349   0.00000  Uiso   1.00
N478   N     0.59923   0.88942   0.37597   0.00000  Uiso   1.00
N479   N     0.37751   0.89430   0.14421   0.00000  Uiso   1.00
N480   N     0.62261   0.77237   0.35624   0.00000  Uiso   1.00
O481   O     0.46148   0.90476   0.24686   0.00000  Uiso   1.00
O482   O     0.65247   0.94275   0.48420   0.00000  Uiso   1.00
O483   O     0.45612   0.72735   0.04131   0.00000  Uiso   1.00
O484   O     0.54037   0.93742   0.45766   0.00000  Uiso   1.00
O485   O     0.55820   0.68505   0.28325   0.00000  Uiso   1.00
O486   O     0.44180   0.98162   0.21675   0.00000  Uiso   1.00
O487   O     0.34368   0.88771   0.28377   0.00000  Uiso   1.00
O488   O     0.65637   0.77906   0.21610   0.00000  Uiso   1.00
O489   O     0.53852   0.76191   0.25314   0.00000  Uiso   1.00
O490   O     0.56163   0.91420   0.25502   0.00000  Uiso   1.00
O491   O     0.43837   0.75247   0.24497   0.00000  Uiso   1.00
O492   O     0.42185   0.82597   0.30854   0.00000  Uiso   1.00
O493   O     0.57815   0.84070   0.19145   0.00000  Uiso   1.00
O494   O     0.52199   0.83540   0.31671   0.00000  Uiso   1.00
O495   O     0.47801   0.83126   0.18329   0.00000  Uiso   1.00
O496   O     0.34975   0.72333   0.01527   0.00000  Uiso   1.00
C497   C     0.84749   0.93322   0.25260   0.00000  Uiso   1.00
C498   C     0.87162   0.83593   0.16676   0.00000  Uiso   1.00
C499   C     0.77207   0.82784   0.38126   0.00000  Uiso   1.00
C500   C     0.89481   0.83928   0.11882   0.00000  Uiso   1.00
C501   C     0.69306   0.78852   0.44312   0.00000  Uiso   1.00
C502   C     0.97407   0.87895   0.05722   0.00000  Uiso   1.00
C503   C     0.70900   0.80324   0.40028   0.00000  Uiso   1.00
C504   C     0.95794   0.86397   0.09998   0.00000  Uiso   1.00
C505   C     0.81497   0.84558   0.40865   0.00000  Uiso   1.00
C506   C     0.85215   0.82166   0.09128   0.00000  Uiso   1.00
C507   C     0.79685   0.83264   0.45296   0.00000  Uiso   1.00
C508   C     0.81918   0.73344   0.24740   0.00000  Uiso   1.00
C509   C     0.87063   0.83460   0.04697   0.00000  Uiso   1.00
C510   C     0.73943   0.79614   0.46712   0.00000  Uiso   1.00
C511   C     0.92788   0.87131   0.03307   0.00000  Uiso   1.00
C512   C     0.83741   0.84912   0.48221   0.00000  Uiso   1.00
C513   C     0.83083   0.81756   0.01732   0.00000  Uiso   1.00
C514   C     0.78686   0.79686   0.10946   0.00000  Uiso   1.00
C515   C     0.88035   0.86989   0.39017   0.00000  Uiso   1.00
C516   C     0.67246   0.88064   0.12461   0.00000  Uiso   1.00
C517   C     0.99439   0.78629   0.37577   0.00000  Uiso   1.00
C518   C     0.78436   0.77028   0.02145   0.00000  Uiso   1.00
C519   C     0.88298   0.89657   0.47818   0.00000  Uiso   1.00
C520   C     0.73347   0.76442   0.00211   0.00000  Uiso   1.00
C521   C     0.93405   0.90296   0.49800   0.00000  Uiso   1.00
C522   C     0.85197   0.98893   0.25847   0.00000  Uiso   1.00
C523   C     0.81470   0.67773   0.24153   0.00000  Uiso   1.00
C524   C     0.79508   0.83085   0.33325   0.00000  Uiso   1.00
Cu525  Cu    0.77404   0.82775   0.24516   0.00000  Uiso   1.00
Cu526  Cu    0.89263   0.83892   0.25483   0.00000  Uiso   1.00
H527   H     0.97845   0.76791   0.45617   0.00000  Uiso   1.00
H528   H     0.68863   0.75783   0.20460   0.00000  Uiso   1.00
H529   H     0.68867   0.89968   0.04435   0.00000  Uiso   1.00
H530   H     0.99424   0.71148   0.49185   0.00000  Uiso   1.00
H531   H     0.67328   0.95581   0.00812   0.00000  Uiso   1.00
H532   H     0.83407   0.73127   0.04291   0.00000  Uiso   1.00
H533   H     0.90530   0.96960   0.46141   0.00000  Uiso   1.00
H534   H     0.91095   0.99503   0.29598   0.00000  Uiso   1.00
H535   H     0.75572   0.67163   0.20402   0.00000  Uiso   1.00
H536   H     0.97817   0.90905   0.29511   0.00000  Uiso   1.00
N537   N     0.98173   0.84735   0.26212   0.00000  Uiso   1.00
N538   N     0.68494   0.81932   0.23788   0.00000  Uiso   1.00
N539   N     0.73472   0.77697   0.12349   0.00000  Uiso   1.00
N540   N     0.93256   0.88942   0.37597   0.00000  Uiso   1.00
N541   N     0.71084   0.89430   0.14421   0.00000  Uiso   1.00
N542   N     0.95594   0.77237   0.35624   0.00000  Uiso   1.00
O543   O     0.79482   0.90476   0.24686   0.00000  Uiso   1.00
O544   O     0.98580   0.94275   0.48420   0.00000  Uiso   1.00
O545   O     0.78945   0.72735   0.04131   0.00000  Uiso   1.00
O546   O     0.87370   0.93742   0.45766   0.00000  Uiso   1.00
O547   O     0.89153   0.68505   0.28325   0.00000  Uiso   1.00
O548   O     0.77514   0.98162   0.21675   0.00000  Uiso   1.00
O549   O     0.67702   0.88771   0.28377   0.00000  Uiso   1.00
O550   O     0.98971   0.77906   0.21610   0.00000  Uiso   1.00
O551   O     0.87185   0.76191   0.25314   0.00000  Uiso   1.00
O552   O     0.89496   0.91420   0.25502   0.00000  Uiso   1.00
O553   O     0.77171   0.75247   0.24497   0.00000  Uiso   1.00
O554   O     0.75518   0.82597   0.30854   0.00000  Uiso   1.00
O555   O     0.91149   0.84070   0.19145   0.00000  Uiso   1.00
O556   O     0.85532   0.83540   0.31671   0.00000  Uiso   1.00
O557   O     0.81134   0.83126   0.18329   0.00000  Uiso   1.00
O558   O     0.68309   0.72333   0.01527   0.00000  Uiso   1.00
C559   C     0.18082   0.26656   0.75260   0.00000  Uiso   1.00
C560   C     0.20496   0.16926   0.66676   0.00000  Uiso   1.00
C561   C     0.10541   0.16117   0.88126   0.00000  Uiso   1.00
C562   C     0.22814   0.17261   0.61882   0.00000  Uiso   1.00
C563   C     0.02639   0.12185   0.94312   0.00000  Uiso   1.00
C564   C     0.30740   0.21228   0.55722   0.00000  Uiso   1.00
C565   C     0.04233   0.13658   0.90028   0.00000  Uiso   1.00
C566   C     0.29127   0.19731   0.59998   0.00000  Uiso   1.00
C567   C     0.14830   0.17892   0.90865   0.00000  Uiso   1.00
C568   C     0.18548   0.15499   0.59128   0.00000  Uiso   1.00
C569   C     0.13018   0.16598   0.95296   0.00000  Uiso   1.00
C570   C     0.15251   0.06678   0.74740   0.00000  Uiso   1.00
C571   C     0.20397   0.16794   0.54697   0.00000  Uiso   1.00
C572   C     0.07277   0.12947   0.96712   0.00000  Uiso   1.00
C573   C     0.26121   0.20465   0.53307   0.00000  Uiso   1.00
C574   C     0.17074   0.18245   0.98221   0.00000  Uiso   1.00
C575   C     0.16416   0.15090   0.51732   0.00000  Uiso   1.00
C576   C     0.12019   0.13019   0.60946   0.00000  Uiso   1.00
C577   C     0.21368   0.20322   0.89017   0.00000  Uiso   1.00
C578   C     0.00579   0.21397   0.62461   0.00000  Uiso   1.00
C579   C     0.32772   0.11962   0.87577   0.00000  Uiso   1.00
C580   C     0.11769   0.10361   0.52145   0.00000  Uiso   1.00
C581   C     0.21631   0.22991   0.97818   0.00000  Uiso   1.00
C582   C     0.06681   0.09776   0.50211   0.00000  Uiso   1.00
C583   C     0.26738   0.23629   0.99800   0.00000  Uiso   1.00
C584   C     0.18530   0.32227   0.75847   0.00000  Uiso   1.00
C585   C     0.14803   0.01107   0.74153   0.00000  Uiso   1.00
C586   C     0.12841   0.16418   0.83325   0.00000  Uiso   1.00
Cu587  Cu    0.10737   0.16108   0.74516   0.00000  Uiso   1.00
Cu588  Cu    0.22596   0.17225   0.75483   0.00000  Uiso   1.00
H589   H     0.31178   0.10125   0.95617   0.00000  Uiso   1.00
H590   H     0.02196   0.09117   0.70460   0.00000  Uiso   1.00
H591   H     0.02200   0.23302   0.54435   0.00000  Uiso   1.00
H592   H     0.32758   0.04482   0.99185   0.00000  Uiso   1.00
H593   H     0.00661   0.28914   0.50812   0.00000  Uiso   1.00
H594   H     0.16740   0.06460   0.54291   0.00000  Uiso   1.00
H595   H     0.23864   0.30294   0.96141   0.00000  Uiso   1.00
H596   H     0.24428   0.32837   0.79598   0.00000  Uiso   1.00
H597   H     0.08906   0.00497   0.70402   0.00000  Uiso   1.00
H598   H     0.31151   0.24238   0.79511   0.00000  Uiso   1.00
N599   N     0.31506   0.18068   0.76212   0.00000  Uiso   1.00
N600   N     0.01827   0.15265   0.73788   0.00000  Uiso   1.00
N601   N     0.06806   0.11030   0.62349   0.00000  Uiso   1.00
N602   N     0.26590   0.22275   0.87597   0.00000  Uiso   1.00
N603   N     0.04418   0.22764   0.64421   0.00000  Uiso   1.00
N604   N     0.28927   0.10570   0.85624   0.00000  Uiso   1.00
O605   O     0.12815   0.23809   0.74686   0.00000  Uiso   1.00
O606   O     0.31914   0.27608   0.98420   0.00000  Uiso   1.00
O607   O     0.12279   0.06068   0.54131   0.00000  Uiso   1.00
O608   O     0.20704   0.27075   0.95766   0.00000  Uiso   1.00
O609   O     0.22487   0.01839   0.78325   0.00000  Uiso   1.00
O610   O     0.10847   0.31495   0.71675   0.00000  Uiso   1.00
O611   O     0.01035   0.22104   0.78377   0.00000  Uiso   1.00
O612   O     0.32304   0.11240   0.71610   0.00000  Uiso   1.00
O613   O     0.20518   0.09524   0.75314   0.00000  Uiso   1.00
O614   O     0.22829   0.24753   0.75502   0.00000  Uiso   1.00
O615   O     0.10504   0.08580   0.74497   0.00000  Uiso   1.00
O616   O     0.08851   0.15930   0.80854   0.00000  Uiso   1.00
O617   O     0.24482   0.17403   0.69145   0.00000  Uiso   1.00
O618   O     0.18866   0.16874   0.81671   0.00000  Uiso   1.00
O619   O     0.14468   0.16460   0.68329   0.00000  Uiso   1.00
O620   O     0.01642   0.05666   0.51527   0.00000  Uiso   1.00
C621   C     0.51415   0.26656   0.75260   0.00000  Uiso   1.00
C622   C     0.53829   0.16926   0.66676   0.00000  Uiso   1.00
C623   C     0.43874   0.16117   0.88126   0.00000  Uiso   1.00
C624   C     0.56147   0.17261   0.61882   0.00000  Uiso   1.00
C625   C     0.35972   0.12185   0.94312   0.00000  Uiso   1.00
C626   C     0.64074   0.21228   0.55722   0.00000  Uiso   1.00
C627   C     0.37566   0.13658   0.90028   0.00000  Uiso   1.00
C628   C     0.62460   0.19731   0.59998   0.00000  Uiso   1.00
C629   C     0.48163   0.17892   0.90865   0.00000  Uiso   1.00
C630   C     0.51882   0.15499   0.59128   0.00000  Uiso   1.00
C631   C     0.46352   0.16598   0.95296   0.00000  Uiso   1.00
C632   C     0.48585   0.06678   0.74740   0.00000  Uiso   1.00
C633   C     0.53730   0.16794   0.54697   0.00000  Uiso   1.00
C634   C     0.40610   0.12947   0.96712   0.00000  Uiso   1.00
C635   C     0.59455   0.20465   0.53307   0.00000  Uiso   1.00
C636   C     0.50407   0.18245   0.98221   0.00000  Uiso   1.00
C637   C     0.49749   0.15090   0.51732   0.00000  Uiso   1.00
C638   C     0.45353   0.13019   0.60946   0.00000  Uiso   1.00
C639   C     0.54702   0.20322   0.89017   0.00000  Uiso   1.00
C640   C     0.33912   0.21397   0.62461   0.00000  Uiso   1.00
C641   C     0.66106   0.11962   0.87577   0.00000  Uiso   1.00
C642   C     0.45103   0.10361   0.52145   0.00000  Uiso   1.00
C643   C     0.54965   0.22991   0.97818   0.00000  Uiso   1.00
C644   C     0.40014   0.09776   0.50211   0.00000  Uiso   1.00
C645   C     0.60072   0.23629   0.99800   0.00000  Uiso   1.00
C646   C     0.51863   0.32227   0.75847   0.00000  Uiso   1.00
C647   C     0.48137   0.01107   0.74153   0.00000  Uiso   1.00
C648   C     0.46174   0.16418   0.83325   0.00000  Uiso   1.00
Cu649  Cu    0.44071   0.16108   0.74516   0.00000  Uiso   1.00
Cu650  Cu    0.55929   0.17225   0.75483   0.00000  Uiso   1.00
H651   H     0.64512   0.10125   0.95617   0.00000  Uiso   1.00
H652   H     0.35530   0.09117   0.70460   0.00000  Uiso   1.00
H653   H     0.35534   0.23302   0.54435   0.00000  Uiso   1.00
H654   H     0.66091   0.04482   0.99185   0.00000  Uiso   1.00
H655   H     0.33994   0.28914   0.50812   0.00000  Uiso   1.00
H656   H     0.50074   0.06460   0.54291   0.00000  Uiso   1.00
H657   H     0.57197   0.30294   0.96141   0.00000  Uiso   1.00
H658   H     0.57761   0.32837   0.79598   0.00000  Uiso   1.00
H659   H     0.42239   0.00497   0.70402   0.00000  Uiso   1.00
H660   H     0.64484   0.24238   0.79511   0.00000  Uiso   1.00
N661   N     0.64839   0.18068   0.76212   0.00000  Uiso   1.00
N662   N     0.35161   0.15265   0.73788   0.00000  Uiso   1.00
N663   N     0.40139   0.11030   0.62349   0.00000  Uiso   1.00
N664   N     0.59923   0.22275   0.87597   0.00000  Uiso   1.00
N665   N     0.37751   0.22764   0.64421   0.00000  Uiso   1.00
N666   N     0.62261   0.10570   0.85624   0.00000  Uiso   1.00
O667   O     0.46148   0.23809   0.74686   0.00000  Uiso   1.00
O668   O     0.65247   0.27608   0.98420   0.00000  Uiso   1.00
O669   O     0.45612   0.06068   0.54131   0.00000  Uiso   1.00
O670   O     0.54037   0.27075   0.95766   0.00000  Uiso   1.00
O671   O     0.55820   0.01839   0.78325   0.00000  Uiso   1.00
O672   O     0.44180   0.31495   0.71675   0.00000  Uiso   1.00
O673   O     0.34368   0.22104   0.78377   0.00000  Uiso   1.00
O674   O     0.65637   0.11240   0.71610   0.00000  Uiso   1.00
O675   O     0.53852   0.09524   0.75314   0.00000  Uiso   1.00
O676   O     0.56163   0.24753   0.75502   0.00000  Uiso   1.00
O677   O     0.43837   0.08580   0.74497   0.00000  Uiso   1.00
O678   O     0.42185   0.15930   0.80854   0.00000  Uiso   1.00
O679   O     0.57815   0.17403   0.69145   0.00000  Uiso   1.00
O680   O     0.52199   0.16874   0.81671   0.00000  Uiso   1.00
O681   O     0.47801   0.16460   0.68329   0.00000  Uiso   1.00
O682   O     0.34975   0.05666   0.51527   0.00000  Uiso   1.00
C683   C     0.84749   0.26656   0.75260   0.00000  Uiso   1.00
C684   C     0.87162   0.16926   0.66676   0.00000  Uiso   1.00
C685   C     0.77207   0.16117   0.88126   0.00000  Uiso   1.00
C686   C     0.89481   0.17261   0.61882   0.00000  Uiso   1.00
C687   C     0.69306   0.12185   0.94312   0.00000  Uiso   1.00
C688   C     0.97407   0.21228   0.55722   0.00000  Uiso   1.00
C689   C     0.70900   0.13658   0.90028   0.00000  Uiso   1.00
C690   C     0.95794   0.19731   0.59998   0.00000  Uiso   1.00
C691   C     0.81497   0.17892   0.90865   0.00000  Uiso   1.00
C692   C     0.85215   0.15499   0.59128   0.00000  Uiso   1.00
C693   C     0.79685   0.16598   0.95296   0.00000  Uiso   1.00
C694   C     0.81918   0.06678   0.74740   0.00000  Uiso   1.00
C695   C     0.87063   0.16794   0.54697   0.00000  Uiso   1.00
C696   C     0.73943   0.12947   0.96712   0.00000  Uiso   1.00
C697   C     0.92788   0.20465   0.53307   0.00000  Uiso   1.00
C698   C     0.83741   0.18245   0.98221   0.00000  Uiso   1.00
C699   C     0.83083   0.15090   0.51732   0.00000  Uiso   1.00
C700   C     0.78686   0.13019   0.60946   0.00000  Uiso   1.00
C701   C     0.88035   0.20322   0.89017   0.00000  Uiso   1.00
C702   C     0.67246   0.21397   0.62461   0.00000  Uiso   1.00
C703   C     0.99439   0.11962   0.87577   0.00000  Uiso   1.00
C704   C     0.78436   0.10361   0.52145   0.00000  Uiso   1.00
C705   C     0.88298   0.22991   0.97818   0.00000  Uiso   1.00
C706   C     0.73347   0.09776   0.50211   0.00000  Uiso   1.00
C707   C     0.93405   0.23629   0.99800   0.00000  Uiso   1.00
C708   C     0.85197   0.32227   0.75847   0.00000  Uiso   1.00
C709   C     0.81470   0.01107   0.74153   0.00000  Uiso   1.00
C710   C     0.79508   0.16418   0.83325   0.00000  Uiso   1.00
Cu711  Cu    0.77404   0.16108   0.74516   0.00000  Uiso   1.00
Cu712  Cu    0.89263   0.17225   0.75483   0.00000  Uiso   1.00
H713   H     0.97845   0.10125   0.95617   0.00000  Uiso   1.00
H714   H     0.68863   0.09117   0.70460   0.00000  Uiso   1.00
H715   H     0.68867   0.23302   0.54435   0.00000  Uiso   1.00
H716   H     0.99424   0.04482   0.99185   0.00000  Uiso   1.00
H717   H     0.67328   0.28914   0.50812   0.00000  Uiso   1.00
H718   H     0.83407   0.06460   0.54291   0.00000  Uiso   1.00
H719   H     0.90530   0.30294   0.96141   0.00000  Uiso   1.00
H720   H     0.91095   0.32837   0.79598   0.00000  Uiso   1.00
H721   H     0.75572   0.00497   0.70402   0.00000  Uiso   1.00
H722   H     0.97817   0.24238   0.79511   0.00000  Uiso   1.00
N723   N     0.98173   0.18068   0.76212   0.00000  Uiso   1.00
N724   N     0.68494   0.15265   0.73788   0.00000  Uiso   1.00
N725   N     0.73472   0.11030   0.62349   0.00000  Uiso   1.00
N726   N     0.93256   0.22275   0.87597   0.00000  Uiso   1.00
N727   N     0.71084   0.22764   0.64421   0.00000  Uiso   1.00
N728   N     0.95594   0.10570   0.85624   0.00000  Uiso   1.00
O729   O     0.79482   0.23809   0.74686   0.00000  Uiso   1.00
O730   O     0.98580   0.27608   0.98420   0.00000  Uiso   1.00
O731   O     0.78945   0.06068   0.54131   0.00000  Uiso   1.00
O732   O     0.87370   0.27075   0.95766   0.00000  Uiso   1.00
O733   O     0.89153   0.01839   0.78325   0.00000  Uiso   1.00
O734   O     0.77514   0.31495   0.71675   0.00000  Uiso   1.00
O735   O     0.67702   0.22104   0.78377   0.00000  Uiso   1.00
O736   O     0.98971   0.11240   0.71610   0.00000  Uiso   1.00
O737   O     0.87185   0.09524   0.75314   0.00000  Uiso   1.00
O738   O     0.89496   0.24753   0.75502   0.00000  Uiso   1.00
O739   O     0.77171   0.08580   0.74497   0.00000  Uiso   1.00
O740   O     0.75518   0.15930   0.80854   0.00000  Uiso   1.00
O741   O     0.91149   0.17403   0.69145   0.00000  Uiso   1.00
O742   O     0.85532   0.16874   0.81671   0.00000  Uiso   1.00
O743   O     0.81134   0.16460   0.68329   0.00000  Uiso   1.00
O744   O     0.68309   0.05666   0.51527   0.00000  Uiso   1.00
C745   C     0.18082   0.59989   0.75260   0.00000  Uiso   1.00
C746   C     0.20496   0.50260   0.66676   0.00000  Uiso   1.00
C747   C     0.10541   0.49451   0.88126   0.00000  Uiso   1.00
C748   C     0.22814   0.50595   0.61882   0.00000  Uiso   1.00
C749   C     0.02639   0.45519   0.94312   0.00000  Uiso   1.00
C750   C     0.30740   0.54561   0.55722   0.00000  Uiso   1.00
C751   C     0.04233   0.46991   0.90028   0.00000  Uiso   1.00
C752   C     0.29127   0.53064   0.59998   0.00000  Uiso   1.00
C753   C     0.14830   0.51225   0.90865   0.00000  Uiso   1.00
C754   C     0.18548   0.48832   0.59128   0.00000  Uiso   1.00
C755   C     0.13018   0.49931   0.95296   0.00000  Uiso   1.00
C756   C     0.15251   0.40011   0.74740   0.00000  Uiso   1.00
C757   C     0.20397   0.50127   0.54697   0.00000  Uiso   1.00
C758   C     0.07277   0.46281   0.96712   0.00000  Uiso   1.00
C759   C     0.26121   0.53798   0.53307   0.00000  Uiso   1.00
C760   C     0.17074   0.51578   0.98221   0.00000  Uiso   1.00
C761   C     0.16416   0.48423   0.51732   0.00000  Uiso   1.00
C762   C     0.12019   0.46352   0.60946   0.00000  Uiso   1.00
C763   C     0.21368   0.53656   0.89017   0.00000  Uiso   1.00
C764   C     0.00579   0.54730   0.62461   0.00000  Uiso   1.00
C765   C     0.32772   0.45296   0.87577   0.00000  Uiso   1.00
C766   C     0.11769   0.43695   0.52145   0.00000  Uiso   1.00
C767   C     0.21631   0.56324   0.97818   0.00000  Uiso   1.00
C768   C     0.06681   0.43109   0.50211   0.00000  Uiso   1.00
C769   C     0.26738   0.56962   0.99800   0.00000  Uiso   1.00
C770   C     0.18530   0.65560   0.75847   0.00000  Uiso   1.00
C771   C     0.14803   0.34440   0.74153   0.00000  Uiso   1.00
C772   C     0.12841   0.49752   0.83325   0.00000  Uiso   1.00
Cu773  Cu    0.10737   0.49441   0.74516   0.00000  Uiso   1.00
Cu774  Cu    0.22596   0.50559   0.75483   0.00000  Uiso   1.00
H775   H     0.31178   0.43458   0.95617   0.00000  Uiso   1.00
H776   H     0.02196   0.42450   0.70460   0.00000  Uiso   1.00
H777   H     0.02200   0.56635   0.54435   0.00000  Uiso   1.00
H778   H     0.32758   0.37815   0.99185   0.00000  Uiso   1.00
H779   H     0.00661   0.62248   0.50812   0.00000  Uiso   1.00
H780   H     0.16740   0.39794   0.54291   0.00000  Uiso   1.00
H781   H     0.23864   0.63627   0.96141   0.00000  Uiso   1.00
H782   H     0.24428   0.66170   0.79598   0.00000  Uiso   1.00
H783   H     0.08906   0.33830   0.70402   0.00000  Uiso   1.00
H784   H     0.31151   0.57572   0.79511   0.00000  Uiso   1.00
N785   N     0.31506   0.51401   0.76212   0.00000  Uiso   1.00
N786   N     0.01827   0.48599   0.73788   0.00000  Uiso   1.00
N787   N     0.06806   0.44364   0.62349   0.00000  Uiso   1.00
N788   N     0.26590   0.55608   0.87597   0.00000  Uiso   1.00
N789   N     0.04418   0.56097   0.64421   0.00000  Uiso   1.00
N790   N     0.28927   0.43904   0.85624   0.00000  Uiso   1.00
O791   O     0.12815   0.57142   0.74686   0.00000  Uiso   1.00
O792   O     0.31914   0.60941   0.98420   0.00000  Uiso   1.00
O793   O     0.12279   0.39402   0.54131   0.00000  Uiso   1.00
O794   O     0.20704   0.60408   0.95766   0.00000  Uiso   1.00
O795   O     0.22487   0.35172   0.78325   0.00000  Uiso   1.00
O796   O     0.10847   0.64828   0.71675   0.00000  Uiso   1.00
O797   O     0.01035   0.55437   0.78377   0.00000  Uiso   1.00
O798   O     0.32304   0.44573   0.71610   0.00000  Uiso   1.00
O799   O     0.20518   0.42858   0.75314   0.00000  Uiso   1.00
O800   O     0.22829   0.58086   0.75502   0.00000  Uiso   1.00
O801   O     0.10504   0.41914   0.74497   0.00000  Uiso   1.00
O802   O     0.08851   0.49263   0.80854   0.00000  Uiso   1.00
O803   O     0.24482   0.50737   0.69145   0.00000  Uiso   1.00
O804   O     0.18866   0.50207   0.81671   0.00000  Uiso   1.00
O805   O     0.14468   0.49793   0.68329   0.00000  Uiso   1.00
O806   O     0.01642   0.39000   0.51527   0.00000  Uiso   1.00
C807   C     0.51415   0.59989   0.75260   0.00000  Uiso   1.00
C808   C     0.53829   0.50260   0.66676   0.00000  Uiso   1.00
C809   C     0.43874   0.49451   0.88126   0.00000  Uiso   1.00
C810   C     0.56147   0.50595   0.61882   0.00000  Uiso   1.00
C811   C     0.35972   0.45519   0.94312   0.00000  Uiso   1.00
C812   C     0.64074   0.54561   0.55722   0.00000  Uiso   1.00
C813   C     0.37566   0.46991   0.90028   0.00000  Uiso   1.00
C814   C     0.62460   0.53064   0.59998   0.00000  Uiso   1.00
C815   C     0.48163   0.51225   0.90865   0.00000  Uiso   1.00
C816   C     0.51882   0.48832   0.59128   0.00000  Uiso   1.00
C817   C     0.46352   0.49931   0.95296   0.00000  Uiso   1.00
C818   C     0.48585   0.40011   0.74740   0.00000  Uiso   1.00
C819   C     0.53730   0.50127   0.54697   0.00000  Uiso   1.00
C820   C     0.40610   0.46281   0.96712   0.00000  Uiso   1.00
C821   C     0.59455   0.53798   0.53307   0.00000  Uiso   1.00
C822   C     0.50407   0.51578   0.98221   0.00000  Uiso   1.00
C823   C     0.49749   0.48423   0.51732   0.00000  Uiso   1.00
C824   C     0.45353   0.46352   0.60946   0.00000  Uiso   1.00
C825   C     0.54702   0.53656   0.89017   0.00000  Uiso   1.00
C826   C     0.33912   0.54730   0.62461   0.00000  Uiso   1.00
C827   C     0.66106   0.45296   0.87577   0.00000  Uiso   1.00
C828   C     0.45103   0.43695   0.52145   0.00000  Uiso   1.00
C829   C     0.54965   0.56324   0.97818   0.00000  Uiso   1.00
C830   C     0.40014   0.43109   0.50211   0.00000  Uiso   1.00
C831   C     0.60072   0.56962   0.99800   0.00000  Uiso   1.00
C832   C     0.51863   0.65560   0.75847   0.00000  Uiso   1.00
C833   C     0.48137   0.34440   0.74153   0.00000  Uiso   1.00
C834   C     0.46174   0.49752   0.83325   0.00000  Uiso   1.00
Cu835  Cu    0.44071   0.49441   0.74516   0.00000  Uiso   1.00
Cu836  Cu    0.55929   0.50559   0.75483   0.00000  Uiso   1.00
H837   H     0.64512   0.43458   0.95617   0.00000  Uiso   1.00
H838   H     0.35530   0.42450   0.70460   0.00000  Uiso   1.00
H839   H     0.35534   0.56635   0.54435   0.00000  Uiso   1.00
H840   H     0.66091   0.37815   0.99185   0.00000  Uiso   1.00
H841   H     0.33994   0.62248   0.50812   0.00000  Uiso   1.00
H842   H     0.50074   0.39794   0.54291   0.00000  Uiso   1.00
H843   H     0.57197   0.63627   0.96141   0.00000  Uiso   1.00
H844   H     0.57761   0.66170   0.79598   0.00000  Uiso   1.00
H845   H     0.42239   0.33830   0.70402   0.00000  Uiso   1.00
H846   H     0.64484   0.57572   0.79511   0.00000  Uiso   1.00
N847   N     0.64839   0.51401   0.76212   0.00000  Uiso   1.00
N848   N     0.35161   0.48599   0.73788   0.00000  Uiso   1.00
N849   N     0.40139   0.44364   0.62349   0.00000  Uiso   1.00
N850   N     0.59923   0.55608   0.87597   0.00000  Uiso   1.00
N851   N     0.37751   0.56097   0.64421   0.00000  Uiso   1.00
N852   N     0.62261   0.43904   0.85624   0.00000  Uiso   1.00
O853   O     0.46148   0.57142   0.74686   0.00000  Uiso   1.00
O854   O     0.65247   0.60941   0.98420   0.00000  Uiso   1.00
O855   O     0.45612   0.39402   0.54131   0.00000  Uiso   1.00
O856   O     0.54037   0.60408   0.95766   0.00000  Uiso   1.00
O857   O     0.55820   0.35172   0.78325   0.00000  Uiso   1.00
O858   O     0.44180   0.64828   0.71675   0.00000  Uiso   1.00
O859   O     0.34368   0.55437   0.78377   0.00000  Uiso   1.00
O860   O     0.65637   0.44573   0.71610   0.00000  Uiso   1.00
O861   O     0.53852   0.42858   0.75314   0.00000  Uiso   1.00
O862   O     0.56163   0.58086   0.75502   0.00000  Uiso   1.00
O863   O     0.43837   0.41914   0.74497   0.00000  Uiso   1.00
O864   O     0.42185   0.49263   0.80854   0.00000  Uiso   1.00
O865   O     0.57815   0.50737   0.69145   0.00000  Uiso   1.00
O866   O     0.52199   0.50207   0.81671   0.00000  Uiso   1.00
O867   O     0.47801   0.49793   0.68329   0.00000  Uiso   1.00
O868   O     0.34975   0.39000   0.51527   0.00000  Uiso   1.00
C869   C     0.84749   0.59989   0.75260   0.00000  Uiso   1.00
C870   C     0.87162   0.50260   0.66676   0.00000  Uiso   1.00
C871   C     0.77207   0.49451   0.88126   0.00000  Uiso   1.00
C872   C     0.89481   0.50595   0.61882   0.00000  Uiso   1.00
C873   C     0.69306   0.45519   0.94312   0.00000  Uiso   1.00
C874   C     0.97407   0.54561   0.55722   0.00000  Uiso   1.00
C875   C     0.70900   0.46991   0.90028   0.00000  Uiso   1.00
C876   C     0.95794   0.53064   0.59998   0.00000  Uiso   1.00
C877   C     0.81497   0.51225   0.90865   0.00000  Uiso   1.00
C878   C     0.85215   0.48832   0.59128   0.00000  Uiso   1.00
C879   C     0.79685   0.49931   0.95296   0.00000  Uiso   1.00
C880   C     0.81918   0.40011   0.74740   0.00000  Uiso   1.00
C881   C     0.87063   0.50127   0.54697   0.00000  Uiso   1.00
C882   C     0.73943   0.46281   0.96712   0.00000  Uiso   1.00
C883   C     0.92788   0.53798   0.53307   0.00000  Uiso   1.00
C884   C     0.83741   0.51578   0.98221   0.00000  Uiso   1.00
C885   C     0.83083   0.48423   0.51732   0.00000  Uiso   1.00
C886   C     0.78686   0.46352   0.60946   0.00000  Uiso   1.00
C887   C     0.88035   0.53656   0.89017   0.00000  Uiso   1.00
C888   C     0.67246   0.54730   0.62461   0.00000  Uiso   1.00
C889   C     0.99439   0.45296   0.87577   0.00000  Uiso   1.00
C890   C     0.78436   0.43695   0.52145   0.00000  Uiso   1.00
C891   C     0.88298   0.56324   0.97818   0.00000  Uiso   1.00
C892   C     0.73347   0.43109   0.50211   0.00000  Uiso   1.00
C893   C     0.93405   0.56962   0.99800   0.00000  Uiso   1.00
C894   C     0.85197   0.65560   0.75847   0.00000  Uiso   1.00
C895   C     0.81470   0.34440   0.74153   0.00000  Uiso   1.00
C896   C     0.79508   0.49752   0.83325   0.00000  Uiso   1.00
Cu897  Cu    0.77404   0.49441   0.74516   0.00000  Uiso   1.00
Cu898  Cu    0.89263   0.50559   0.75483   0.00000  Uiso   1.00
H899   H     0.97845   0.43458   0.95617   0.00000  Uiso   1.00
H900   H     0.68863   0.42450   0.70460   0.00000  Uiso   1.00
H901   H     0.68867   0.56635   0.54435   0.00000  Uiso   1.00
H902   H     0.99424   0.37815   0.99185   0.00000  Uiso   1.00
H903   H     0.67328   0.62248   0.50812   0.00000  Uiso   1.00
H904   H     0.83407   0.39794   0.54291   0.00000  Uiso   1.00
H905   H     0.90530   0.63627   0.96141   0.00000  Uiso   1.00
H906   H     0.91095   0.66170   0.79598   0.00000  Uiso   1.00
H907   H     0.75572   0.33830   0.70402   0.00000  Uiso   1.00
H908   H     0.97817   0.57572   0.79511   0.00000  Uiso   1.00
N909   N     0.98173   0.51401   0.76212   0.00000  Uiso   1.00
N910   N     0.68494   0.48599   0.73788   0.00000  Uiso   1.00
N911   N     0.73472   0.44364   0.62349   0.00000  Uiso   1.00
N912   N     0.93256   0.55608   0.87597   0.00000  Uiso   1.00
N913   N     0.71084   0.56097   0.64421   0.00000  Uiso   1.00
N914   N     0.95594   0.43904   0.85624   0.00000  Uiso   1.00
O915   O     0.79482   0.57142   0.74686   0.00000  Uiso   1.00
O916   O     0.98580   0.60941   0.98420   0.00000  Uiso   1.00
O917   O     0.78945   0.39402   0.54131   0.00000  Uiso   1.00
O918   O     0.87370   0.60408   0.95766   0.00000  Uiso   1.00
O919   O     0.89153   0.35172   0.78325   0.00000  Uiso   1.00
O920   O     0.77514   0.64828   0.71675   0.00000  Uiso   1.00
O921   O     0.67702   0.55437   0.78377   0.00000  Uiso   1.00
O922   O     0.98971   0.44573   0.71610   0.00000  Uiso   1.00
O923   O     0.87185   0.42858   0.75314   0.00000  Uiso   1.00
O924   O     0.89496   0.58086   0.75502   0.00000  Uiso   1.00
O925   O     0.77171   0.41914   0.74497   0.00000  Uiso   1.00
O926   O     0.75518   0.49263   0.80854   0.00000  Uiso   1.00
O927   O     0.91149   0.50737   0.69145   0.00000  Uiso   1.00
O928   O     0.85532   0.50207   0.81671   0.00000  Uiso   1.00
O929   O     0.81134   0.49793   0.68329   0.00000  Uiso   1.00
O930   O     0.68309   0.39000   0.51527   0.00000  Uiso   1.00
C931   C     0.18082   0.93322   0.75260   0.00000  Uiso   1.00
C932   C     0.20496   0.83593   0.66676   0.00000  Uiso   1.00
C933   C     0.10541   0.82784   0.88126   0.00000  Uiso   1.00
C934   C     0.22814   0.83928   0.61882   0.00000  Uiso   1.00
C935   C     0.02639   0.78852   0.94312   0.00000  Uiso   1.00
C936   C     0.30740   0.87895   0.55722   0.00000  Uiso   1.00
C937   C     0.04233   0.80324   0.90028   0.00000  Uiso   1.00
C938   C     0.29127   0.86397   0.59998   0.00000  Uiso   1.00
C939   C     0.14830   0.84558   0.90865   0.00000  Uiso   1.00
C940   C     0.18548   0.82166   0.59128   0.00000  Uiso   1.00
C941   C     0.13018   0.83264   0.95296   0.00000  Uiso   1.00
C942   C     0.15251   0.73344   0.74740   0.00000  Uiso   1.00
C943   C     0.20397   0.83460   0.54697   0.00000  Uiso   1.00
C944   C     0.07277   0.79614   0.96712   0.00000  Uiso   1.00
C945   C     0.26121   0.87131   0.53307   0.00000  Uiso   1.00
C946   C     0.17074   0.84912   0.98221   0.00000  Uiso   1.00
C947   C     0.16416   0.81756   0.51732   0.00000  Uiso   1.00
C948   C     0.12019   0.79686   0.60946   0.00000  Uiso   1.00
C949   C     0.21368   0.86989   0.89017   0.00000  Uiso   1.00
C950   C     0.00579   0.88064   0.62461   0.00000  Uiso   1.00
C951   C     0.32772   0.78629   0.87577   0.00000  Uiso   1.00
C952   C     0.11769   0.77028   0.52145   0.00000  Uiso   1.00
C953   C     0.21631   0.89657   0.97818   0.00000  Uiso   1.00
C954   C     0.06681   0.76442   0.50211   0.00000  Uiso   1.00
C955   C     0.26738   0.90296   0.99800   0.00000  Uiso   1.00
C956   C     0.18530   0.98893   0.75847   0.00000  Uiso   1.00
C957   C     0.14803   0.67773   0.74153   0.00000  Uiso   1.00
C958   C     0.12841   0.83085   0.83325   0.00000  Uiso   1.00
Cu959  Cu    0.10737   0.82775   0.74516   0.00000  Uiso   1.00
Cu960  Cu    0.22596   0.83892   0.75483   0.00000  Uiso   1.00
H961   H     0.31178   0.76791   0.95617   0.00000  Uiso   1.00
H962   H     0.02196   0.75783   0.70460   0.00000  Uiso   1.00
H963   H     0.02200   0.89968   0.54435   0.00000  Uiso   1.00
H964   H     0.32758   0.71148   0.99185   0.00000  Uiso   1.00
H965   H     0.00661   0.95581   0.50812   0.00000  Uiso   1.00
H966   H     0.16740   0.73127   0.54291   0.00000  Uiso   1.00
H967   H     0.23864   0.96960   0.96141   0.00000  Uiso   1.00
H968   H     0.24428   0.99503   0.79598   0.00000  Uiso   1.00
H969   H     0.08906   0.67163   0.70402   0.00000  Uiso   1.00
H970   H     0.31151   0.90905   0.79511   0.00000  Uiso   1.00
N971   N     0.31506   0.84735   0.76212   0.00000  Uiso   1.00
N972   N     0.01827   0.81932   0.73788   0.00000  Uiso   1.00
N973   N     0.06806   0.77697   0.62349   0.00000  Uiso   1.00
N974   N     0.26590   0.88942   0.87597   0.00000  Uiso   1.00
N975   N     0.04418   0.89430   0.64421   0.00000  Uiso   1.00
N976   N     0.28927   0.77237   0.85624   0.00000  Uiso   1.00
O977   O     0.12815   0.90476   0.74686   0.00000  Uiso   1.00
O978   O     0.31914   0.94275   0.98420   0.00000  Uiso   1.00
O979   O     0.12279   0.72735   0.54131   0.00000  Uiso   1.00
O980   O     0.20704   0.93742   0.95766   0.00000  Uiso   1.00
O981   O     0.22487   0.68505   0.78325   0.00000  Uiso   1.00
O982   O     0.10847   0.98162   0.71675   0.00000  Uiso   1.00
O983   O     0.01035   0.88771   0.78377   0.00000  Uiso   1.00
O984   O     0.32304   0.77906   0.71610   0.00000  Uiso   1.00
O985   O     0.20518   0.76191   0.75314   0.00000  Uiso   1.00
O986   O     0.22829   0.91420   0.75502   0.00000  Uiso   1.00
O987   O     0.10504   0.75247   0.74497   0.00000  Uiso   1.00
O988   O     0.08851   0.82597   0.80854   0.00000  Uiso   1.00
O989   O     0.24482   0.84070   0.69145   0.00000  Uiso   1.00
O990   O     0.18866   0.83540   0.81671   0.00000  Uiso   1.00
O991   O     0.14468   0.83126   0.68329   0.00000  Uiso   1.00
O992   O     0.01642   0.72333   0.51527   0.00000  Uiso   1.00
C993   C     0.51415   0.93322   0.75260   0.00000  Uiso   1.00
C994   C     0.53829   0.83593   0.66676   0.00000  Uiso   1.00
C995   C     0.43874   0.82784   0.88126   0.00000  Uiso   1.00
C996   C     0.56147   0.83928   0.61882   0.00000  Uiso   1.00
C997   C     0.35972   0.78852   0.94312   0.00000  Uiso   1.00
C998   C     0.64074   0.87895   0.55722   0.00000  Uiso   1.00
C999   C     0.37566   0.80324   0.90028   0.00000  Uiso   1.00
C1000  C     0.62460   0.86397   0.59998   0.00000  Uiso   1.00
C1001  C     0.48163   0.84558   0.90865   0.00000  Uiso   1.00
C1002  C     0.51882   0.82166   0.59128   0.00000  Uiso   1.00
C1003  C     0.46352   0.83264   0.95296   0.00000  Uiso   1.00
C1004  C     0.48585   0.73344   0.74740   0.00000  Uiso   1.00
C1005  C     0.53730   0.83460   0.54697   0.00000  Uiso   1.00
C1006  C     0.40610   0.79614   0.96712   0.00000  Uiso   1.00
C1007  C     0.59455   0.87131   0.53307   0.00000  Uiso   1.00
C1008  C     0.50407   0.84912   0.98221   0.00000  Uiso   1.00
C1009  C     0.49749   0.81756   0.51732   0.00000  Uiso   1.00
C1010  C     0.45353   0.79686   0.60946   0.00000  Uiso   1.00
C1011  C     0.54702   0.86989   0.89017   0.00000  Uiso   1.00
C1012  C     0.33912   0.88064   0.62461   0.00000  Uiso   1.00
C1013  C     0.66106   0.78629   0.87577   0.00000  Uiso   1.00
C1014  C     0.45103   0.77028   0.52145   0.00000  Uiso   1.00
C1015  C     0.54965   0.89657   0.97818   0.00000  Uiso   1.00
C1016  C     0.40014   0.76442   0.50211   0.00000  Uiso   1.00
C1017  C     0.60072   0.90296   0.99800   0.00000  Uiso   1.00
C1018  C     0.51863   0.98893   0.75847   0.00000  Uiso   1.00
C1019  C     0.48137   0.67773   0.74153   0.00000  Uiso   1.00
C1020  C     0.46174   0.83085   0.83325   0.00000  Uiso   1.00
Cu1021 Cu    0.44071   0.82775   0.74516   0.00000  Uiso   1.00
Cu1022 Cu    0.55929   0.83892   0.75483   0.00000  Uiso   1.00
H1023  H     0.64512   0.76791   0.95617   0.00000  Uiso   1.00
H1024  H     0.35530   0.75783   0.70460   0.00000  Uiso   1.00
H1025  H     0.35534   0.89968   0.54435   0.00000  Uiso   1.00
H1026  H     0.66091   0.71148   0.99185   0.00000  Uiso   1.00
H1027  H     0.33994   0.95581   0.50812   0.00000  Uiso   1.00
H1028  H     0.50074   0.73127   0.54291   0.00000  Uiso   1.00
H1029  H     0.57197   0.96960   0.96141   0.00000  Uiso   1.00
H1030  H     0.57761   0.99503   0.79598   0.00000  Uiso   1.00
H1031  H     0.42239   0.67163   0.70402   0.00000  Uiso   1.00
H1032  H     0.64484   0.90905   0.79511   0.00000  Uiso   1.00
N1033  N     0.64839   0.84735   0.76212   0.00000  Uiso   1.00
N1034  N     0.35161   0.81932   0.73788   0.00000  Uiso   1.00
N1035  N     0.40139   0.77697   0.62349   0.00000  Uiso   1.00
N1036  N     0.59923   0.88942   0.87597   0.00000  Uiso   1.00
N1037  N     0.37751   0.89430   0.64421   0.00000  Uiso   1.00
N1038  N     0.62261   0.77237   0.85624   0.00000  Uiso   1.00
O1039  O     0.46148   0.90476   0.74686   0.00000  Uiso   1.00
O1040  O     0.65247   0.94275   0.98420   0.00000  Uiso   1.00
O1041  O     0.45612   0.72735   0.54131   0.00000  Uiso   1.00
O1042  O     0.54037   0.93742   0.95766   0.00000  Uiso   1.00
O1043  O     0.55820   0.68505   0.78325   0.00000  Uiso   1.00
O1044  O     0.44180   0.98162   0.71675   0.00000  Uiso   1.00
O1045  O     0.34368   0.88771   0.78377   0.00000  Uiso   1.00
O1046  O     0.65637   0.77906   0.71610   0.00000  Uiso   1.00
O1047  O     0.53852   0.76191   0.75314   0.00000  Uiso   1.00
O1048  O     0.56163   0.91420   0.75502   0.00000  Uiso   1.00
O1049  O     0.43837   0.75247   0.74497   0.00000  Uiso   1.00
O1050  O     0.42185   0.82597   0.80854   0.00000  Uiso   1.00
O1051  O     0.57815   0.84070   0.69145   0.00000  Uiso   1.00
O1052  O     0.52199   0.83540   0.81671   0.00000  Uiso   1.00
O1053  O     0.47801   0.83126   0.68329   0.00000  Uiso   1.00
O1054  O     0.34975   0.72333   0.51527   0.00000  Uiso   1.00
C1055  C     0.84749   0.93322   0.75260   0.00000  Uiso   1.00
C1056  C     0.87162   0.83593   0.66676   0.00000  Uiso   1.00
C1057  C     0.77207   0.82784   0.88126   0.00000  Uiso   1.00
C1058  C     0.89481   0.83928   0.61882   0.00000  Uiso   1.00
C1059  C     0.69306   0.78852   0.94312   0.00000  Uiso   1.00
C1060  C     0.97407   0.87895   0.55722   0.00000  Uiso   1.00
C1061  C     0.70900   0.80324   0.90028   0.00000  Uiso   1.00
C1062  C     0.95794   0.86397   0.59998   0.00000  Uiso   1.00
C1063  C     0.81497   0.84558   0.90865   0.00000  Uiso   1.00
C1064  C     0.85215   0.82166   0.59128   0.00000  Uiso   1.00
C1065  C     0.79685   0.83264   0.95296   0.00000  Uiso   1.00
C1066  C     0.81918   0.73344   0.74740   0.00000  Uiso   1.00
C1067  C     0.87063   0.83460   0.54697   0.00000  Uiso   1.00
C1068  C     0.73943   0.79614   0.96712   0.00000  Uiso   1.00
C1069  C     0.92788   0.87131   0.53307   0.00000  Uiso   1.00
C1070  C     0.83741   0.84912   0.98221   0.00000  Uiso   1.00
C1071  C     0.83083   0.81756   0.51732   0.00000  Uiso   1.00
C1072  C     0.78686   0.79686   0.60946   0.00000  Uiso   1.00
C1073  C     0.88035   0.86989   0.89017   0.00000  Uiso   1.00
C1074  C     0.67246   0.88064   0.62461   0.00000  Uiso   1.00
C1075  C     0.99439   0.78629   0.87577   0.00000  Uiso   1.00
C1076  C     0.78436   0.77028   0.52145   0.00000  Uiso   1.00
C1077  C     0.88298   0.89657   0.97818   0.00000  Uiso   1.00
C1078  C     0.73347   0.76442   0.50211   0.00000  Uiso   1.00
C1079  C     0.93405   0.90296   0.99800   0.00000  Uiso   1.00
C1080  C     0.85197   0.98893   0.75847   0.00000  Uiso   1.00
C1081  C     0.81470   0.67773   0.74153   0.00000  Uiso   1.00
C1082  C     0.79508   0.83085   0.83325   0.00000  Uiso   1.00
Cu1083 Cu    0.77404   0.82775   0.74516   0.00000  Uiso   1.00
Cu1084 Cu    0.89263   0.83892   0.75483   0.00000  Uiso   1.00
H1085  H     0.97845   0.76791   0.95617   0.00000  Uiso   1.00
H1086  H     0.68863   0.75783   0.70460   0.00000  Uiso   1.00
H1087  H     0.68867   0.89968   0.54435   0.00000  Uiso   1.00
H1088  H     0.99424   0.71148   0.99185   0.00000  Uiso   1.00
H1089  H     0.67328   0.95581   0.50812   0.00000  Uiso   1.00
H1090  H     0.83407   0.73127   0.54291   0.00000  Uiso   1.00
H1091  H     0.90530   0.96960   0.96141   0.00000  Uiso   1.00
H1092  H     0.91095   0.99503   0.79598   0.00000  Uiso   1.00
H1093  H     0.75572   0.67163   0.70402   0.00000  Uiso   1.00
H1094  H     0.97817   0.90905   0.79511   0.00000  Uiso   1.00
N1095  N     0.98173   0.84735   0.76212   0.00000  Uiso   1.00
N1096  N     0.68494   0.81932   0.73788   0.00000  Uiso   1.00
N1097  N     0.73472   0.77697   0.62349   0.00000  Uiso   1.00
N1098  N     0.93256   0.88942   0.87597   0.00000  Uiso   1.00
N1099  N     0.71084   0.89430   0.64421   0.00000  Uiso   1.00
N1100  N     0.95594   0.77237   0.85624   0.00000  Uiso   1.00
O1101  O     0.79482   0.90476   0.74686   0.00000  Uiso   1.00
O1102  O     0.98580   0.94275   0.98420   0.00000  Uiso   1.00
O1103  O     0.78945   0.72735   0.54131   0.00000  Uiso   1.00
O1104  O     0.87370   0.93742   0.95766   0.00000  Uiso   1.00
O1105  O     0.89153   0.68505   0.78325   0.00000  Uiso   1.00
O1106  O     0.77514   0.98162   0.71675   0.00000  Uiso   1.00
O1107  O     0.67702   0.88771   0.78377   0.00000  Uiso   1.00
O1108  O     0.98971   0.77906   0.71610   0.00000  Uiso   1.00
O1109  O     0.87185   0.76191   0.75314   0.00000  Uiso   1.00
O1110  O     0.89496   0.91420   0.75502   0.00000  Uiso   1.00
O1111  O     0.77171   0.75247   0.74497   0.00000  Uiso   1.00
O1112  O     0.75518   0.82597   0.80854   0.00000  Uiso   1.00
O1113  O     0.91149   0.84070   0.69145   0.00000  Uiso   1.00
O1114  O     0.85532   0.83540   0.81671   0.00000  Uiso   1.00
O1115  O     0.81134   0.83126   0.68329   0.00000  Uiso   1.00
O1116  O     0.68309   0.72333   0.51527   0.00000  Uiso   1.00
loop_
_geom_bond_atom_site_label_1
_geom_bond_atom_site_label_2
_geom_bond_distance
_geom_bond_site_symmetry_2
_ccdc_geom_bond_type
C1     O56     1.290   .     A
C1     C26     1.442   .     S
C1     O47     1.288   .     A
C2     C4      1.494   .     S
C2     O61     1.300   .     A
C2     O59     1.307   .     A
C3     C9      1.427   .     A
C3     C28     1.495   .     S
C3     C7      1.417   .     A
C4     C8      1.418   .     A
C4     C10     1.426   .     A
C5     C14     1.403   .     A
C5     C7      1.393   .     A
C5     H155    1.083   1_455 S
C6     C8      1.393   .     A
C6     C15     1.403   .     A
C6     H95     1.083   .     S
C7     C145    1.446   1_455 S
C8     C82     1.446   .     S
C9     C11     1.423   .     A
C9     C19     1.453   .     S
C10    C18     1.452   .     S
C10    C13     1.422   .     A
C11    C14     1.416   .     A
C11    C16     1.430   .     A
C12    O55     1.288   .     A
C12    O57     1.290   .     A
C12    C27     1.442   .     S
C13    C17     1.430   .     A
C13    C15     1.415   .     A
C14    C582    1.417   .     S
C15    C583    1.417   1_554 S
C16    C23     1.414   .     A
C16    C575    1.414   .     S
C17    C22     1.420   .     A
C17    C574    1.414   1_554 S
C18    N43     1.157   .     T
C19    N44     1.157   .     T
C20    N45     1.158   .     T
C20    C132    1.446   1_455 S
C21    N46     1.158   .     T
C21    C69     1.446   .     S
C22    O49     1.382   .     S
C22    C24     1.395   .     A
C23    C25     1.407   .     A
C23    O50     1.385   .     S
C24    O62     1.382   .     S
C24    C572    1.417   1_554 S
C25    O48     1.382   .     S
C25    C573    1.417   .     S
C26    C213    1.349   .     S
C26    O237    1.389   .     S
C27    C398    1.349   1_545 S
C27    O424    1.389   1_545 S
C28    O58     1.307   .     A
C28    O60     1.300   .     A
Cu29   Cu30    2.688   .     S
Cu29   N42     2.020   .     S
Cu29   O61     1.947   .     S
Cu29   O47     1.969   .     S
Cu29   O58     1.965   .     S
Cu29   O57     1.965   .     S
Cu30   N41     2.020   .     S
Cu30   O55     1.969   .     S
Cu30   O59     1.965   .     S
Cu30   O56     1.965   .     S
Cu30   O60     1.947   .     S
H31    C67     1.083   .     S
H32    O178    0.988   1_455 S
H33    C130    1.083   1_455 S
H34    O682    0.986   .     S
H35    O730    0.986   1_454 S
H36    O49     0.992   .     S
H37    O50     0.990   .     S
H38    O237    0.991   .     S
H39    O424    0.991   1_545 S
H40    O115    0.988   .     S
N41    N104    1.288   .     S
N41    O115    1.337   .     S
N42    N165    1.288   1_455 S
N42    O178    1.337   1_455 S
O48    H655    0.986   .     S
O51    C398    1.389   1_545 S
O51    H410    0.991   1_545 S
O52    C213    1.389   .     S
O52    H225    0.991   .     S
O53    H164    0.988   1_455 S
O53    N165    1.337   1_455 S
O54    N104    1.337   .     S
O54    H94     0.988   .     S
O62    H716    0.986   1_454 S
C63    O118    1.290   .     A
C63    C88     1.442   .     S
C63    O109    1.288   .     A
C64    C66     1.494   .     S
C64    O123    1.300   .     A
C64    O121    1.307   .     A
C65    C71     1.427   .     A
C65    C90     1.495   .     S
C65    C69     1.417   .     A
C66    C70     1.418   .     A
C66    C72     1.426   .     A
C67    C76     1.403   .     A
C67    C69     1.393   .     A
C68    C70     1.393   .     A
C68    C77     1.403   .     A
C68    H157    1.083   .     S
C70    C144    1.446   .     S
C71    C73     1.423   .     A
C71    C81     1.453   .     S
C72    C80     1.452   .     S
C72    C75     1.422   .     A
C73    C76     1.416   .     A
C73    C78     1.430   .     A
C74    O117    1.288   .     A
C74    O119    1.290   .     A
C74    C89     1.442   .     S
C75    C79     1.430   .     A
C75    C77     1.415   .     A
C76    C644    1.417   .     S
C77    C645    1.417   1_554 S
C78    C85     1.414   .     A
C78    C637    1.414   .     S
C79    C84     1.420   .     A
C79    C636    1.414   1_554 S
C80    N105    1.157   .     T
C81    N106    1.157   .     T
C82    N107    1.158   .     T
C83    N108    1.158   .     T
C83    C131    1.446   .     S
C84    O111    1.382   .     S
C84    C86     1.395   .     A
C85    C87     1.407   .     A
C85    O112    1.385   .     S
C86    O124    1.382   .     S
C86    C634    1.417   1_554 S
C87    O110    1.382   .     S
C87    C635    1.417   .     S
C88    C275    1.349   .     S
C88    O299    1.389   .     S
C89    C460    1.349   1_545 S
C89    O486    1.389   1_545 S
C90    O120    1.307   .     A
C90    O122    1.300   .     A
Cu91   Cu92    2.688   .     S
Cu91   N104    2.020   .     S
Cu91   O123    1.947   .     S
Cu91   O109    1.969   .     S
Cu91   O120    1.965   .     S
Cu91   O119    1.965   .     S
Cu92   N103    2.020   .     S
Cu92   O117    1.969   .     S
Cu92   O121    1.965   .     S
Cu92   O118    1.965   .     S
Cu92   O122    1.947   .     S
H93    C129    1.083   .     S
H96    O744    0.986   .     S
H97    O606    0.986   1_554 S
H98    O111    0.992   .     S
H99    O112    0.990   .     S
H100   O299    0.991   .     S
H101   O486    0.991   1_545 S
H102   O177    0.988   .     S
N103   N166    1.288   .     S
N103   O177    1.337   .     S
O110   H717    0.986   .     S
O113   C460    1.389   1_545 S
O113   H472    0.991   1_545 S
O114   C275    1.389   .     S
O114   H287    0.991   .     S
O116   N166    1.337   .     S
O116   H156    0.988   .     S
O124   H592    0.986   1_554 S
C125   O180    1.290   .     A
C125   C150    1.442   .     S
C125   O171    1.288   .     A
C126   C128    1.494   .     S
C126   O185    1.300   .     A
C126   O183    1.307   .     A
C127   C133    1.427   .     A
C127   C152    1.495   .     S
C127   C131    1.417   .     A
C128   C132    1.418   .     A
C128   C134    1.426   .     A
C129   C138    1.403   .     A
C129   C131    1.393   .     A
C130   C132    1.393   .     A
C130   C139    1.403   .     A
C130   H33     1.083   1_655 S
C132   C20     1.446   1_655 S
C133   C135    1.423   .     A
C133   C143    1.453   .     S
C134   C142    1.452   .     S
C134   C137    1.422   .     A
C135   C138    1.416   .     A
C135   C140    1.430   .     A
C136   O179    1.288   .     A
C136   O181    1.290   .     A
C136   C151    1.442   .     S
C137   C141    1.430   .     A
C137   C139    1.415   .     A
C138   C706    1.417   .     S
C139   C707    1.417   1_554 S
C140   C147    1.414   .     A
C140   C699    1.414   .     S
C141   C146    1.420   .     A
C141   C698    1.414   1_554 S
C142   N167    1.157   .     T
C143   N168    1.157   .     T
C144   N169    1.158   .     T
C145   N170    1.158   .     T
C145   C7      1.446   1_655 S
C146   O173    1.382   .     S
C146   C148    1.395   .     A
C147   C149    1.407   .     A
C147   O174    1.385   .     S
C148   O186    1.382   .     S
C148   C696    1.417   1_554 S
C149   O172    1.382   .     S
C149   C697    1.417   .     S
C150   C337    1.349   .     S
C150   O361    1.389   .     S
C151   C522    1.349   1_545 S
C151   O548    1.389   1_545 S
C152   O182    1.307   .     A
C152   O184    1.300   .     A
Cu153  Cu154   2.688   .     S
Cu153  N166    2.020   .     S
Cu153  O185    1.947   .     S
Cu153  O171    1.969   .     S
Cu153  O182    1.965   .     S
Cu153  O181    1.965   .     S
Cu154  N165    2.020   .     S
Cu154  O179    1.969   .     S
Cu154  O183    1.965   .     S
Cu154  O180    1.965   .     S
Cu154  O184    1.947   .     S
H155   C5      1.083   1_655 S
H158   O620    0.986   1_655 S
H159   O668    0.986   1_554 S
H160   O173    0.992   .     S
H161   O174    0.990   .     S
H162   O361    0.991   .     S
H163   O548    0.991   1_545 S
H164   O53     0.988   1_655 S
N165   N42     1.288   1_655 S
N165   O53     1.337   1_655 S
O172   H593    0.986   1_655 S
O175   C522    1.389   1_545 S
O175   H534    0.991   1_545 S
O176   C337    1.389   .     S
O176   H349    0.991   .     S
O178   N42     1.337   1_655 S
O178   H32     0.988   1_655 S
O186   H654    0.986   1_554 S
C187   O242    1.290   .     A
C187   C212    1.442   .     S
C187   O233    1.288   .     A
C188   C190    1.494   .     S
C188   O247    1.300   .     A
C188   O245    1.307   .     A
C189   C195    1.427   .     A
C189   C214    1.495   .     S
C189   C193    1.417   .     A
C190   C194    1.418   .     A
C190   C196    1.426   .     A
C191   C200    1.403   .     A
C191   C193    1.393   .     A
C191   H341    1.083   1_455 S
C192   C194    1.393   .     A
C192   C201    1.403   .     A
C192   H281    1.083   .     S
C193   C331    1.446   1_455 S
C194   C268    1.446   .     S
C195   C197    1.423   .     A
C195   C205    1.453   .     S
C196   C204    1.452   .     S
C196   C199    1.422   .     A
C197   C200    1.416   .     A
C197   C202    1.430   .     A
C198   O241    1.288   .     A
C198   O243    1.290   .     A
C198   C213    1.442   .     S
C199   C203    1.430   .     A
C199   C201    1.415   .     A
C200   C768    1.417   .     S
C201   C769    1.417   1_554 S
C202   C209    1.414   .     A
C202   C761    1.414   .     S
C203   C208    1.420   .     A
C203   C760    1.414   1_554 S
C204   N229    1.157   .     T
C205   N230    1.157   .     T
C206   N231    1.158   .     T
C206   C318    1.446   1_455 S
C207   N232    1.158   .     T
C207   C255    1.446   .     S
C208   O235    1.382   .     S
C208   C210    1.395   .     A
C209   C211    1.407   .     A
C209   O236    1.385   .     S
C210   O248    1.382   .     S
C210   C758    1.417   1_554 S
C211   O234    1.382   .     S
C211   C759    1.417   .     S
C212   C399    1.349   .     S
C212   O423    1.389   .     S
C214   O244    1.307   .     A
C214   O246    1.300   .     A
Cu215  Cu216   2.688   .     S
Cu215  N228    2.020   .     S
Cu215  O247    1.947   .     S
Cu215  O233    1.969   .     S
Cu215  O244    1.965   .     S
Cu215  O243    1.965   .     S
Cu216  N227    2.020   .     S
Cu216  O241    1.969   .     S
Cu216  O245    1.965   .     S
Cu216  O242    1.965   .     S
Cu216  O246    1.947   .     S
H217   C253    1.083   .     S
H218   O364    0.988   1_455 S
H219   C316    1.083   1_455 S
H220   O868    0.986   .     S
H221   O916    0.986   1_454 S
H222   O235    0.992   .     S
H223   O236    0.990   .     S
H224   O423    0.991   .     S
H226   O301    0.988   .     S
N227   N290    1.288   .     S
N227   O301    1.337   .     S
N228   N351    1.288   1_455 S
N228   O364    1.337   1_455 S
O234   H841    0.986   .     S
O238   C399    1.389   .     S
O238   H411    0.991   .     S
O239   H350    0.988   1_455 S
O239   N351    1.337   1_455 S
O240   N290    1.337   .     S
O240   H280    0.988   .     S
O248   H902    0.986   1_454 S
C249   O304    1.290   .     A
C249   C274    1.442   .     S
C249   O295    1.288   .     A
C250   C252    1.494   .     S
C250   O309    1.300   .     A
C250   O307    1.307   .     A
C251   C257    1.427   .     A
C251   C276    1.495   .     S
C251   C255    1.417   .     A
C252   C256    1.418   .     A
C252   C258    1.426   .     A
C253   C262    1.403   .     A
C253   C255    1.393   .     A
C254   C256    1.393   .     A
C254   C263    1.403   .     A
C254   H343    1.083   .     S
C256   C330    1.446   .     S
C257   C259    1.423   .     A
C257   C267    1.453   .     S
C258   C266    1.452   .     S
C258   C261    1.422   .     A
C259   C262    1.416   .     A
C259   C264    1.430   .     A
C260   O303    1.288   .     A
C260   O305    1.290   .     A
C260   C275    1.442   .     S
C261   C265    1.430   .     A
C261   C263    1.415   .     A
C262   C830    1.417   .     S
C263   C831    1.417   1_554 S
C264   C271    1.414   .     A
C264   C823    1.414   .     S
C265   C270    1.420   .     A
C265   C822    1.414   1_554 S
C266   N291    1.157   .     T
C267   N292    1.157   .     T
C268   N293    1.158   .     T
C269   N294    1.158   .     T
C269   C317    1.446   .     S
C270   O297    1.382   .     S
C270   C272    1.395   .     A
C271   C273    1.407   .     A
C271   O298    1.385   .     S
C272   O310    1.382   .     S
C272   C820    1.417   1_554 S
C273   O296    1.382   .     S
C273   C821    1.417   .     S
C274   C461    1.349   .     S
C274   O485    1.389   .     S
C276   O306    1.307   .     A
C276   O308    1.300   .     A
Cu277  Cu278   2.688   .     S
Cu277  N290    2.020   .     S
Cu277  O309    1.947   .     S
Cu277  O295    1.969   .     S
Cu277  O306    1.965   .     S
Cu277  O305    1.965   .     S
Cu278  N289    2.020   .     S
Cu278  O303    1.969   .     S
Cu278  O307    1.965   .     S
Cu278  O304    1.965   .     S
Cu278  O308    1.947   .     S
H279   C315    1.083   .     S
H282   O930    0.986   .     S
H283   O792    0.986   1_554 S
H284   O297    0.992   .     S
H285   O298    0.990   .     S
H286   O485    0.991   .     S
H288   O363    0.988   .     S
N289   N352    1.288   .     S
N289   O363    1.337   .     S
O296   H903    0.986   .     S
O300   C461    1.389   .     S
O300   H473    0.991   .     S
O302   N352    1.337   .     S
O302   H342    0.988   .     S
O310   H778    0.986   1_554 S
C311   O366    1.290   .     A
C311   C336    1.442   .     S
C311   O357    1.288   .     A
C312   C314    1.494   .     S
C312   O371    1.300   .     A
C312   O369    1.307   .     A
C313   C319    1.427   .     A
C313   C338    1.495   .     S
C313   C317    1.417   .     A
C314   C318    1.418   .     A
C314   C320    1.426   .     A
C315   C324    1.403   .     A
C315   C317    1.393   .     A
C316   C318    1.393   .     A
C316   C325    1.403   .     A
C316   H219    1.083   1_655 S
C318   C206    1.446   1_655 S
C319   C321    1.423   .     A
C319   C329    1.453   .     S
C320   C328    1.452   .     S
C320   C323    1.422   .     A
C321   C324    1.416   .     A
C321   C326    1.430   .     A
C322   O365    1.288   .     A
C322   O367    1.290   .     A
C322   C337    1.442   .     S
C323   C327    1.430   .     A
C323   C325    1.415   .     A
C324   C892    1.417   .     S
C325   C893    1.417   1_554 S
C326   C333    1.414   .     A
C326   C885    1.414   .     S
C327   C332    1.420   .     A
C327   C884    1.414   1_554 S
C328   N353    1.157   .     T
C329   N354    1.157   .     T
C330   N355    1.158   .     T
C331   N356    1.158   .     T
C331   C193    1.446   1_655 S
C332   O359    1.382   .     S
C332   C334    1.395   .     A
C333   C335    1.407   .     A
C333   O360    1.385   .     S
C334   O372    1.382   .     S
C334   C882    1.417   1_554 S
C335   O358    1.382   .     S
C335   C883    1.417   .     S
C336   C523    1.349   .     S
C336   O547    1.389   .     S
C338   O368    1.307   .     A
C338   O370    1.300   .     A
Cu339  Cu340   2.688   .     S
Cu339  N352    2.020   .     S
Cu339  O371    1.947   .     S
Cu339  O357    1.969   .     S
Cu339  O368    1.965   .     S
Cu339  O367    1.965   .     S
Cu340  N351    2.020   .     S
Cu340  O365    1.969   .     S
Cu340  O369    1.965   .     S
Cu340  O366    1.965   .     S
Cu340  O370    1.947   .     S
H341   C191    1.083   1_655 S
H344   O806    0.986   1_655 S
H345   O854    0.986   1_554 S
H346   O359    0.992   .     S
H347   O360    0.990   .     S
H348   O547    0.991   .     S
H350   O239    0.988   1_655 S
N351   N228    1.288   1_655 S
N351   O239    1.337   1_655 S
O358   H779    0.986   1_655 S
O362   C523    1.389   .     S
O362   H535    0.991   .     S
O364   N228    1.337   1_655 S
O364   H218    0.988   1_655 S
O372   H840    0.986   1_554 S
C373   O428    1.290   .     A
C373   C398    1.442   .     S
C373   O419    1.288   .     A
C374   C376    1.494   .     S
C374   O433    1.300   .     A
C374   O431    1.307   .     A
C375   C381    1.427   .     A
C375   C400    1.495   .     S
C375   C379    1.417   .     A
C376   C380    1.418   .     A
C376   C382    1.426   .     A
C377   C386    1.403   .     A
C377   C379    1.393   .     A
C377   H527    1.083   1_455 S
C378   C380    1.393   .     A
C378   C387    1.403   .     A
C378   H467    1.083   .     S
C379   C517    1.446   1_455 S
C380   C454    1.446   .     S
C381   C383    1.423   .     A
C381   C391    1.453   .     S
C382   C390    1.452   .     S
C382   C385    1.422   .     A
C383   C386    1.416   .     A
C383   C388    1.430   .     A
C384   O427    1.288   .     A
C384   O429    1.290   .     A
C384   C399    1.442   .     S
C385   C389    1.430   .     A
C385   C387    1.415   .     A
C386   C954    1.417   .     S
C387   C955    1.417   1_554 S
C388   C395    1.414   .     A
C388   C947    1.414   .     S
C389   C394    1.420   .     A
C389   C946    1.414   1_554 S
C390   N415    1.157   .     T
C391   N416    1.157   .     T
C392   N417    1.158   .     T
C392   C504    1.446   1_455 S
C393   N418    1.158   .     T
C393   C441    1.446   .     S
C394   O421    1.382   .     S
C394   C396    1.395   .     A
C395   C397    1.407   .     A
C395   O422    1.385   .     S
C396   O434    1.382   .     S
C396   C944    1.417   1_554 S
C397   O420    1.382   .     S
C397   C945    1.417   .     S
C398   C27     1.349   1_565 S
C398   O51     1.389   1_565 S
C400   O430    1.307   .     A
C400   O432    1.300   .     A
Cu401  Cu402   2.688   .     S
Cu401  N414    2.020   .     S
Cu401  O433    1.947   .     S
Cu401  O419    1.969   .     S
Cu401  O430    1.965   .     S
Cu401  O429    1.965   .     S
Cu402  N413    2.020   .     S
Cu402  O427    1.969   .     S
Cu402  O431    1.965   .     S
Cu402  O428    1.965   .     S
Cu402  O432    1.947   .     S
H403   C439    1.083   .     S
H404   O550    0.988   1_455 S
H405   C502    1.083   1_455 S
H406   O1054   0.986   .     S
H407   O1102   0.986   1_454 S
H408   O421    0.992   .     S
H409   O422    0.990   .     S
H410   O51     0.991   1_565 S
H412   O487    0.988   .     S
N413   N476    1.288   .     S
N413   O487    1.337   .     S
N414   N537    1.288   1_455 S
N414   O550    1.337   1_455 S
O420   H1027   0.986   .     S
O424   C27     1.389   1_565 S
O424   H39     0.991   1_565 S
O425   H536    0.988   1_455 S
O425   N537    1.337   1_455 S
O426   N476    1.337   .     S
O426   H466    0.988   .     S
O434   H1088   0.986   1_454 S
C435   O490    1.290   .     A
C435   C460    1.442   .     S
C435   O481    1.288   .     A
C436   C438    1.494   .     S
C436   O495    1.300   .     A
C436   O493    1.307   .     A
C437   C443    1.427   .     A
C437   C462    1.495   .     S
C437   C441    1.417   .     A
C438   C442    1.418   .     A
C438   C444    1.426   .     A
C439   C448    1.403   .     A
C439   C441    1.393   .     A
C440   C442    1.393   .     A
C440   C449    1.403   .     A
C440   H529    1.083   .     S
C442   C516    1.446   .     S
C443   C445    1.423   .     A
C443   C453    1.453   .     S
C444   C452    1.452   .     S
C444   C447    1.422   .     A
C445   C448    1.416   .     A
C445   C450    1.430   .     A
C446   O489    1.288   .     A
C446   O491    1.290   .     A
C446   C461    1.442   .     S
C447   C451    1.430   .     A
C447   C449    1.415   .     A
C448   C1016   1.417   .     S
C449   C1017   1.417   1_554 S
C450   C457    1.414   .     A
C450   C1009   1.414   .     S
C451   C456    1.420   .     A
C451   C1008   1.414   1_554 S
C452   N477    1.157   .     T
C453   N478    1.157   .     T
C454   N479    1.158   .     T
C455   N480    1.158   .     T
C455   C503    1.446   .     S
C456   O483    1.382   .     S
C456   C458    1.395   .     A
C457   C459    1.407   .     A
C457   O484    1.385   .     S
C458   O496    1.382   .     S
C458   C1006   1.417   1_554 S
C459   O482    1.382   .     S
C459   C1007   1.417   .     S
C460   C89     1.349   1_565 S
C460   O113    1.389   1_565 S
C462   O492    1.307   .     A
C462   O494    1.300   .     A
Cu463  Cu464   2.688   .     S
Cu463  N476    2.020   .     S
Cu463  O495    1.947   .     S
Cu463  O481    1.969   .     S
Cu463  O492    1.965   .     S
Cu463  O491    1.965   .     S
Cu464  N475    2.020   .     S
Cu464  O489    1.969   .     S
Cu464  O493    1.965   .     S
Cu464  O490    1.965   .     S
Cu464  O494    1.947   .     S
H465   C501    1.083   .     S
H468   O1116   0.986   .     S
H469   O978    0.986   1_554 S
H470   O483    0.992   .     S
H471   O484    0.990   .     S
H472   O113    0.991   1_565 S
H474   O549    0.988   .     S
N475   N538    1.288   .     S
N475   O549    1.337   .     S
O482   H1089   0.986   .     S
O486   C89     1.389   1_565 S
O486   H101    0.991   1_565 S
O488   N538    1.337   .     S
O488   H528    0.988   .     S
O496   H964    0.986   1_554 S
C497   O552    1.290   .     A
C497   C522    1.442   .     S
C497   O543    1.288   .     A
C498   C500    1.494   .     S
C498   O557    1.300   .     A
C498   O555    1.307   .     A
C499   C505    1.427   .     A
C499   C524    1.495   .     S
C499   C503    1.417   .     A
C500   C504    1.418   .     A
C500   C506    1.426   .     A
C501   C510    1.403   .     A
C501   C503    1.393   .     A
C502   C504    1.393   .     A
C502   C511    1.403   .     A
C502   H405    1.083   1_655 S
C504   C392    1.446   1_655 S
C505   C507    1.423   .     A
C505   C515    1.453   .     S
C506   C514    1.452   .     S
C506   C509    1.422   .     A
C507   C510    1.416   .     A
C507   C512    1.430   .     A
C508   O551    1.288   .     A
C508   O553    1.290   .     A
C508   C523    1.442   .     S
C509   C513    1.430   .     A
C509   C511    1.415   .     A
C510   C1078   1.417   .     S
C511   C1079   1.417   1_554 S
C512   C519    1.414   .     A
C512   C1071   1.414   .     S
C513   C518    1.420   .     A
C513   C1070   1.414   1_554 S
C514   N539    1.157   .     T
C515   N540    1.157   .     T
C516   N541    1.158   .     T
C517   N542    1.158   .     T
C517   C379    1.446   1_655 S
C518   O545    1.382   .     S
C518   C520    1.395   .     A
C519   C521    1.407   .     A
C519   O546    1.385   .     S
C520   O558    1.382   .     S
C520   C1068   1.417   1_554 S
C521   O544    1.382   .     S
C521   C1069   1.417   .     S
C522   C151    1.349   1_565 S
C522   O175    1.389   1_565 S
C524   O554    1.307   .     A
C524   O556    1.300   .     A
Cu525  Cu526   2.688   .     S
Cu525  N538    2.020   .     S
Cu525  O557    1.947   .     S
Cu525  O543    1.969   .     S
Cu525  O554    1.965   .     S
Cu525  O553    1.965   .     S
Cu526  N537    2.020   .     S
Cu526  O551    1.969   .     S
Cu526  O555    1.965   .     S
Cu526  O552    1.965   .     S
Cu526  O556    1.947   .     S
H527   C377    1.083   1_655 S
H530   O992    0.986   1_655 S
H531   O1040   0.986   1_554 S
H532   O545    0.992   .     S
H533   O546    0.990   .     S
H534   O175    0.991   1_565 S
H536   O425    0.988   1_655 S
N537   N414    1.288   1_655 S
N537   O425    1.337   1_655 S
O544   H965    0.986   1_655 S
O548   C151    1.389   1_565 S
O548   H163    0.991   1_565 S
O550   N414    1.337   1_655 S
O550   H404    0.988   1_655 S
O558   H1026   0.986   1_554 S
C559   O614    1.290   .     A
C559   C584    1.442   .     S
C559   O605    1.288   .     A
C560   C562    1.494   .     S
C560   O619    1.300   .     A
C560   O617    1.307   .     A
C561   C567    1.427   .     A
C561   C586    1.495   .     S
C561   C565    1.417   .     A
C562   C566    1.418   .     A
C562   C568    1.426   .     A
C563   C572    1.403   .     A
C563   C565    1.393   .     A
C563   H713    1.083   1_455 S
C564   C566    1.393   .     A
C564   C573    1.403   .     A
C564   H653    1.083   .     S
C565   C703    1.446   1_455 S
C566   C640    1.446   .     S
C567   C569    1.423   .     A
C567   C577    1.453   .     S
C568   C576    1.452   .     S
C568   C571    1.422   .     A
C569   C572    1.416   .     A
C569   C574    1.430   .     A
C570   O613    1.288   .     A
C570   O615    1.290   .     A
C570   C585    1.442   .     S
C571   C575    1.430   .     A
C571   C573    1.415   .     A
C572   C24     1.417   1_556 S
C574   C581    1.414   .     A
C574   C17     1.414   1_556 S
C575   C580    1.420   .     A
C576   N601    1.157   .     T
C577   N602    1.157   .     T
C578   N603    1.158   .     T
C578   C690    1.446   1_455 S
C579   N604    1.158   .     T
C579   C627    1.446   .     S
C580   O607    1.382   .     S
C580   C582    1.395   .     A
C581   C583    1.407   .     A
C581   O608    1.385   .     S
C582   O620    1.382   .     S
C583   O606    1.382   .     S
C583   C15     1.417   1_556 S
C584   C771    1.349   .     S
C584   O795    1.389   .     S
C585   C956    1.349   1_545 S
C585   O982    1.389   1_545 S
C586   O616    1.307   .     A
C586   O618    1.300   .     A
Cu587  Cu588   2.688   .     S
Cu587  N600    2.020   .     S
Cu587  O619    1.947   .     S
Cu587  O605    1.969   .     S
Cu587  O616    1.965   .     S
Cu587  O615    1.965   .     S
Cu588  N599    2.020   .     S
Cu588  O613    1.969   .     S
Cu588  O617    1.965   .     S
Cu588  O614    1.965   .     S
Cu588  O618    1.947   .     S
H589   C625    1.083   .     S
H590   O736    0.988   1_455 S
H591   C688    1.083   1_455 S
H592   O124    0.986   1_556 S
H593   O172    0.986   1_455 S
H594   O607    0.992   .     S
H595   O608    0.990   .     S
H596   O795    0.991   .     S
H597   O982    0.991   1_545 S
H598   O673    0.988   .     S
N599   N662    1.288   .     S
N599   O673    1.337   .     S
N600   N723    1.288   1_455 S
N600   O736    1.337   1_455 S
O606   H97     0.986   1_556 S
O609   C956    1.389   1_545 S
O609   H968    0.991   1_545 S
O610   C771    1.389   .     S
O610   H783    0.991   .     S
O611   H722    0.988   1_455 S
O611   N723    1.337   1_455 S
O612   N662    1.337   .     S
O612   H652    0.988   .     S
O620   H158    0.986   1_455 S
C621   O676    1.290   .     A
C621   C646    1.442   .     S
C621   O667    1.288   .     A
C622   C624    1.494   .     S
C622   O681    1.300   .     A
C622   O679    1.307   .     A
C623   C629    1.427   .     A
C623   C648    1.495   .     S
C623   C627    1.417   .     A
C624   C628    1.418   .     A
C624   C630    1.426   .     A
C625   C634    1.403   .     A
C625   C627    1.393   .     A
C626   C628    1.393   .     A
C626   C635    1.403   .     A
C626   H715    1.083   .     S
C628   C702    1.446   .     S
C629   C631    1.423   .     A
C629   C639    1.453   .     S
C630   C638    1.452   .     S
C630   C633    1.422   .     A
C631   C634    1.416   .     A
C631   C636    1.430   .     A
C632   O675    1.288   .     A
C632   O677    1.290   .     A
C632   C647    1.442   .     S
C633   C637    1.430   .     A
C633   C635    1.415   .     A
C634   C86     1.417   1_556 S
C636   C643    1.414   .     A
C636   C79     1.414   1_556 S
C637   C642    1.420   .     A
C638   N663    1.157   .     T
C639   N664    1.157   .     T
C640   N665    1.158   .     T
C641   N666    1.158   .     T
C641   C689    1.446   .     S
C642   O669    1.382   .     S
C642   C644    1.395   .     A
C643   C645    1.407   .     A
C643   O670    1.385   .     S
C644   O682    1.382   .     S
C645   O668    1.382   .     S
C645   C77     1.417   1_556 S
C646   C833    1.349   .     S
C646   O857    1.389   .     S
C647   C1018   1.349   1_545 S
C647   O1044   1.389   1_545 S
C648   O678    1.307   .     A
C648   O680    1.300   .     A
Cu649  Cu650   2.688   .     S
Cu649  N662    2.020   .     S
Cu649  O681    1.947   .     S
Cu649  O667    1.969   .     S
Cu649  O678    1.965   .     S
Cu649  O677    1.965   .     S
Cu650  N661    2.020   .     S
Cu650  O675    1.969   .     S
Cu650  O679    1.965   .     S
Cu650  O676    1.965   .     S
Cu650  O680    1.947   .     S
H651   C687    1.083   .     S
H654   O186    0.986   1_556 S
H656   O669    0.992   .     S
H657   O670    0.990   .     S
H658   O857    0.991   .     S
H659   O1044   0.991   1_545 S
H660   O735    0.988   .     S
N661   N724    1.288   .     S
N661   O735    1.337   .     S
O668   H159    0.986   1_556 S
O671   C1018   1.389   1_545 S
O671   H1030   0.991   1_545 S
O672   C833    1.389   .     S
O672   H845    0.991   .     S
O674   N724    1.337   .     S
O674   H714    0.988   .     S
C683   O738    1.290   .     A
C683   C708    1.442   .     S
C683   O729    1.288   .     A
C684   C686    1.494   .     S
C684   O743    1.300   .     A
C684   O741    1.307   .     A
C685   C691    1.427   .     A
C685   C710    1.495   .     S
C685   C689    1.417   .     A
C686   C690    1.418   .     A
C686   C692    1.426   .     A
C687   C696    1.403   .     A
C687   C689    1.393   .     A
C688   C690    1.393   .     A
C688   C697    1.403   .     A
C688   H591    1.083   1_655 S
C690   C578    1.446   1_655 S
C691   C693    1.423   .     A
C691   C701    1.453   .     S
C692   C700    1.452   .     S
C692   C695    1.422   .     A
C693   C696    1.416   .     A
C693   C698    1.430   .     A
C694   O737    1.288   .     A
C694   O739    1.290   .     A
C694   C709    1.442   .     S
C695   C699    1.430   .     A
C695   C697    1.415   .     A
C696   C148    1.417   1_556 S
C698   C705    1.414   .     A
C698   C141    1.414   1_556 S
C699   C704    1.420   .     A
C700   N725    1.157   .     T
C701   N726    1.157   .     T
C702   N727    1.158   .     T
C703   N728    1.158   .     T
C703   C565    1.446   1_655 S
C704   O731    1.382   .     S
C704   C706    1.395   .     A
C705   C707    1.407   .     A
C705   O732    1.385   .     S
C706   O744    1.382   .     S
C707   O730    1.382   .     S
C707   C139    1.417   1_556 S
C708   C895    1.349   .     S
C708   O919    1.389   .     S
C709   C1080   1.349   1_545 S
C709   O1106   1.389   1_545 S
C710   O740    1.307   .     A
C710   O742    1.300   .     A
Cu711  Cu712   2.688   .     S
Cu711  N724    2.020   .     S
Cu711  O743    1.947   .     S
Cu711  O729    1.969   .     S
Cu711  O740    1.965   .     S
Cu711  O739    1.965   .     S
Cu712  N723    2.020   .     S
Cu712  O737    1.969   .     S
Cu712  O741    1.965   .     S
Cu712  O738    1.965   .     S
Cu712  O742    1.947   .     S
H713   C563    1.083   1_655 S
H716   O62     0.986   1_656 S
H718   O731    0.992   .     S
H719   O732    0.990   .     S
H720   O919    0.991   .     S
H721   O1106   0.991   1_545 S
H722   O611    0.988   1_655 S
N723   N600    1.288   1_655 S
N723   O611    1.337   1_655 S
O730   H35     0.986   1_656 S
O733   C1080   1.389   1_545 S
O733   H1092   0.991   1_545 S
O734   C895    1.389   .     S
O734   H907    0.991   .     S
O736   N600    1.337   1_655 S
O736   H590    0.988   1_655 S
C745   O800    1.290   .     A
C745   C770    1.442   .     S
C745   O791    1.288   .     A
C746   C748    1.494   .     S
C746   O805    1.300   .     A
C746   O803    1.307   .     A
C747   C753    1.427   .     A
C747   C772    1.495   .     S
C747   C751    1.417   .     A
C748   C752    1.418   .     A
C748   C754    1.426   .     A
C749   C758    1.403   .     A
C749   C751    1.393   .     A
C749   H899    1.083   1_455 S
C750   C752    1.393   .     A
C750   C759    1.403   .     A
C750   H839    1.083   .     S
C751   C889    1.446   1_455 S
C752   C826    1.446   .     S
C753   C755    1.423   .     A
C753   C763    1.453   .     S
C754   C762    1.452   .     S
C754   C757    1.422   .     A
C755   C758    1.416   .     A
C755   C760    1.430   .     A
C756   O799    1.288   .     A
C756   O801    1.290   .     A
C756   C771    1.442   .     S
C757   C761    1.430   .     A
C757   C759    1.415   .     A
C758   C210    1.417   1_556 S
C760   C767    1.414   .     A
C760   C203    1.414   1_556 S
C761   C766    1.420   .     A
C762   N787    1.157   .     T
C763   N788    1.157   .     T
C764   N789    1.158   .     T
C764   C876    1.446   1_455 S
C765   N790    1.158   .     T
C765   C813    1.446   .     S
C766   O793    1.382   .     S
C766   C768    1.395   .     A
C767   C769    1.407   .     A
C767   O794    1.385   .     S
C768   O806    1.382   .     S
C769   O792    1.382   .     S
C769   C201    1.417   1_556 S
C770   C957    1.349   .     S
C770   O981    1.389   .     S
C772   O802    1.307   .     A
C772   O804    1.300   .     A
Cu773  Cu774   2.688   .     S
Cu773  N786    2.020   .     S
Cu773  O805    1.947   .     S
Cu773  O791    1.969   .     S
Cu773  O802    1.965   .     S
Cu773  O801    1.965   .     S
Cu774  N785    2.020   .     S
Cu774  O799    1.969   .     S
Cu774  O803    1.965   .     S
Cu774  O800    1.965   .     S
Cu774  O804    1.947   .     S
H775   C811    1.083   .     S
H776   O922    0.988   1_455 S
H777   C874    1.083   1_455 S
H778   O310    0.986   1_556 S
H779   O358    0.986   1_455 S
H780   O793    0.992   .     S
H781   O794    0.990   .     S
H782   O981    0.991   .     S
H784   O859    0.988   .     S
N785   N848    1.288   .     S
N785   O859    1.337   .     S
N786   N909    1.288   1_455 S
N786   O922    1.337   1_455 S
O792   H283    0.986   1_556 S
O796   C957    1.389   .     S
O796   H969    0.991   .     S
O797   H908    0.988   1_455 S
O797   N909    1.337   1_455 S
O798   N848    1.337   .     S
O798   H838    0.988   .     S
O806   H344    0.986   1_455 S
C807   O862    1.290   .     A
C807   C832    1.442   .     S
C807   O853    1.288   .     A
C808   C810    1.494   .     S
C808   O867    1.300   .     A
C808   O865    1.307   .     A
C809   C815    1.427   .     A
C809   C834    1.495   .     S
C809   C813    1.417   .     A
C810   C814    1.418   .     A
C810   C816    1.426   .     A
C811   C820    1.403   .     A
C811   C813    1.393   .     A
C812   C814    1.393   .     A
C812   C821    1.403   .     A
C812   H901    1.083   .     S
C814   C888    1.446   .     S
C815   C817    1.423   .     A
C815   C825    1.453   .     S
C816   C824    1.452   .     S
C816   C819    1.422   .     A
C817   C820    1.416   .     A
C817   C822    1.430   .     A
C818   O861    1.288   .     A
C818   O863    1.290   .     A
C818   C833    1.442   .     S
C819   C823    1.430   .     A
C819   C821    1.415   .     A
C820   C272    1.417   1_556 S
C822   C829    1.414   .     A
C822   C265    1.414   1_556 S
C823   C828    1.420   .     A
C824   N849    1.157   .     T
C825   N850    1.157   .     T
C826   N851    1.158   .     T
C827   N852    1.158   .     T
C827   C875    1.446   .     S
C828   O855    1.382   .     S
C828   C830    1.395   .     A
C829   C831    1.407   .     A
C829   O856    1.385   .     S
C830   O868    1.382   .     S
C831   O854    1.382   .     S
C831   C263    1.417   1_556 S
C832   C1019   1.349   .     S
C832   O1043   1.389   .     S
C834   O864    1.307   .     A
C834   O866    1.300   .     A
Cu835  Cu836   2.688   .     S
Cu835  N848    2.020   .     S
Cu835  O867    1.947   .     S
Cu835  O853    1.969   .     S
Cu835  O864    1.965   .     S
Cu835  O863    1.965   .     S
Cu836  N847    2.020   .     S
Cu836  O861    1.969   .     S
Cu836  O865    1.965   .     S
Cu836  O862    1.965   .     S
Cu836  O866    1.947   .     S
H837   C873    1.083   .     S
H840   O372    0.986   1_556 S
H842   O855    0.992   .     S
H843   O856    0.990   .     S
H844   O1043   0.991   .     S
H846   O921    0.988   .     S
N847   N910    1.288   .     S
N847   O921    1.337   .     S
O854   H345    0.986   1_556 S
O858   C1019   1.389   .     S
O858   H1031   0.991   .     S
O860   N910    1.337   .     S
O860   H900    0.988   .     S
C869   O924    1.290   .     A
C869   C894    1.442   .     S
C869   O915    1.288   .     A
C870   C872    1.494   .     S
C870   O929    1.300   .     A
C870   O927    1.307   .     A
C871   C877    1.427   .     A
C871   C896    1.495   .     S
C871   C875    1.417   .     A
C872   C876    1.418   .     A
C872   C878    1.426   .     A
C873   C882    1.403   .     A
C873   C875    1.393   .     A
C874   C876    1.393   .     A
C874   C883    1.403   .     A
C874   H777    1.083   1_655 S
C876   C764    1.446   1_655 S
C877   C879    1.423   .     A
C877   C887    1.453   .     S
C878   C886    1.452   .     S
C878   C881    1.422   .     A
C879   C882    1.416   .     A
C879   C884    1.430   .     A
C880   O923    1.288   .     A
C880   O925    1.290   .     A
C880   C895    1.442   .     S
C881   C885    1.430   .     A
C881   C883    1.415   .     A
C882   C334    1.417   1_556 S
C884   C891    1.414   .     A
C884   C327    1.414   1_556 S
C885   C890    1.420   .     A
C886   N911    1.157   .     T
C887   N912    1.157   .     T
C888   N913    1.158   .     T
C889   N914    1.158   .     T
C889   C751    1.446   1_655 S
C890   O917    1.382   .     S
C890   C892    1.395   .     A
C891   C893    1.407   .     A
C891   O918    1.385   .     S
C892   O930    1.382   .     S
C893   O916    1.382   .     S
C893   C325    1.417   1_556 S
C894   C1081   1.349   .     S
C894   O1105   1.389   .     S
C896   O926    1.307   .     A
C896   O928    1.300   .     A
Cu897  Cu898   2.688   .     S
Cu897  N910    2.020   .     S
Cu897  O929    1.947   .     S
Cu897  O915    1.969   .     S
Cu897  O926    1.965   .     S
Cu897  O925    1.965   .     S
Cu898  N909    2.020   .     S
Cu898  O923    1.969   .     S
Cu898  O927    1.965   .     S
Cu898  O924    1.965   .     S
Cu898  O928    1.947   .     S
H899   C749    1.083   1_655 S
H902   O248    0.986   1_656 S
H904   O917    0.992   .     S
H905   O918    0.990   .     S
H906   O1105   0.991   .     S
H908   O797    0.988   1_655 S
N909   N786    1.288   1_655 S
N909   O797    1.337   1_655 S
O916   H221    0.986   1_656 S
O920   C1081   1.389   .     S
O920   H1093   0.991   .     S
O922   N786    1.337   1_655 S
O922   H776    0.988   1_655 S
C931   O986    1.290   .     A
C931   C956    1.442   .     S
C931   O977    1.288   .     A
C932   C934    1.494   .     S
C932   O991    1.300   .     A
C932   O989    1.307   .     A
C933   C939    1.427   .     A
C933   C958    1.495   .     S
C933   C937    1.417   .     A
C934   C938    1.418   .     A
C934   C940    1.426   .     A
C935   C944    1.403   .     A
C935   C937    1.393   .     A
C935   H1085   1.083   1_455 S
C936   C938    1.393   .     A
C936   C945    1.403   .     A
C936   H1025   1.083   .     S
C937   C1075   1.446   1_455 S
C938   C1012   1.446   .     S
C939   C941    1.423   .     A
C939   C949    1.453   .     S
C940   C948    1.452   .     S
C940   C943    1.422   .     A
C941   C944    1.416   .     A
C941   C946    1.430   .     A
C942   O985    1.288   .     A
C942   O987    1.290   .     A
C942   C957    1.442   .     S
C943   C947    1.430   .     A
C943   C945    1.415   .     A
C944   C396    1.417   1_556 S
C946   C953    1.414   .     A
C946   C389    1.414   1_556 S
C947   C952    1.420   .     A
C948   N973    1.157   .     T
C949   N974    1.157   .     T
C950   N975    1.158   .     T
C950   C1062   1.446   1_455 S
C951   N976    1.158   .     T
C951   C999    1.446   .     S
C952   O979    1.382   .     S
C952   C954    1.395   .     A
C953   C955    1.407   .     A
C953   O980    1.385   .     S
C954   O992    1.382   .     S
C955   O978    1.382   .     S
C955   C387    1.417   1_556 S
C956   C585    1.349   1_565 S
C956   O609    1.389   1_565 S
C958   O988    1.307   .     A
C958   O990    1.300   .     A
Cu959  Cu960   2.688   .     S
Cu959  N972    2.020   .     S
Cu959  O991    1.947   .     S
Cu959  O977    1.969   .     S
Cu959  O988    1.965   .     S
Cu959  O987    1.965   .     S
Cu960  N971    2.020   .     S
Cu960  O985    1.969   .     S
Cu960  O989    1.965   .     S
Cu960  O986    1.965   .     S
Cu960  O990    1.947   .     S
H961   C997    1.083   .     S
H962   O1108   0.988   1_455 S
H963   C1060   1.083   1_455 S
H964   O496    0.986   1_556 S
H965   O544    0.986   1_455 S
H966   O979    0.992   .     S
H967   O980    0.990   .     S
H968   O609    0.991   1_565 S
H970   O1045   0.988   .     S
N971   N1034   1.288   .     S
N971   O1045   1.337   .     S
N972   N1095   1.288   1_455 S
N972   O1108   1.337   1_455 S
O978   H469    0.986   1_556 S
O982   C585    1.389   1_565 S
O982   H597    0.991   1_565 S
O983   H1094   0.988   1_455 S
O983   N1095   1.337   1_455 S
O984   N1034   1.337   .     S
O984   H1024   0.988   .     S
O992   H530    0.986   1_455 S
C993   O1048   1.290   .     A
C993   C1018   1.442   .     S
C993   O1039   1.288   .     A
C994   C996    1.494   .     S
C994   O1053   1.300   .     A
C994   O1051   1.307   .     A
C995   C1001   1.427   .     A
C995   C1020   1.495   .     S
C995   C999    1.417   .     A
C996   C1000   1.418   .     A
C996   C1002   1.426   .     A
C997   C1006   1.403   .     A
C997   C999    1.393   .     A
C998   C1000   1.393   .     A
C998   C1007   1.403   .     A
C998   H1087   1.083   .     S
C1000  C1074   1.446   .     S
C1001  C1003   1.423   .     A
C1001  C1011   1.453   .     S
C1002  C1010   1.452   .     S
C1002  C1005   1.422   .     A
C1003  C1006   1.416   .     A
C1003  C1008   1.430   .     A
C1004  O1047   1.288   .     A
C1004  O1049   1.290   .     A
C1004  C1019   1.442   .     S
C1005  C1009   1.430   .     A
C1005  C1007   1.415   .     A
C1006  C458    1.417   1_556 S
C1008  C1015   1.414   .     A
C1008  C451    1.414   1_556 S
C1009  C1014   1.420   .     A
C1010  N1035   1.157   .     T
C1011  N1036   1.157   .     T
C1012  N1037   1.158   .     T
C1013  N1038   1.158   .     T
C1013  C1061   1.446   .     S
C1014  O1041   1.382   .     S
C1014  C1016   1.395   .     A
C1015  C1017   1.407   .     A
C1015  O1042   1.385   .     S
C1016  O1054   1.382   .     S
C1017  O1040   1.382   .     S
C1017  C449    1.417   1_556 S
C1018  C647    1.349   1_565 S
C1018  O671    1.389   1_565 S
C1020  O1050   1.307   .     A
C1020  O1052   1.300   .     A
Cu1021 Cu1022  2.688   .     S
Cu1021 N1034   2.020   .     S
Cu1021 O1053   1.947   .     S
Cu1021 O1039   1.969   .     S
Cu1021 O1050   1.965   .     S
Cu1021 O1049   1.965   .     S
Cu1022 N1033   2.020   .     S
Cu1022 O1047   1.969   .     S
Cu1022 O1051   1.965   .     S
Cu1022 O1048   1.965   .     S
Cu1022 O1052   1.947   .     S
H1023  C1059   1.083   .     S
H1026  O558    0.986   1_556 S
H1028  O1041   0.992   .     S
H1029  O1042   0.990   .     S
H1030  O671    0.991   1_565 S
H1032  O1107   0.988   .     S
N1033  N1096   1.288   .     S
N1033  O1107   1.337   .     S
O1040  H531    0.986   1_556 S
O1044  C647    1.389   1_565 S
O1044  H659    0.991   1_565 S
O1046  N1096   1.337   .     S
O1046  H1086   0.988   .     S
C1055  O1110   1.290   .     A
C1055  C1080   1.442   .     S
C1055  O1101   1.288   .     A
C1056  C1058   1.494   .     S
C1056  O1115   1.300   .     A
C1056  O1113   1.307   .     A
C1057  C1063   1.427   .     A
C1057  C1082   1.495   .     S
C1057  C1061   1.417   .     A
C1058  C1062   1.418   .     A
C1058  C1064   1.426   .     A
C1059  C1068   1.403   .     A
C1059  C1061   1.393   .     A
C1060  C1062   1.393   .     A
C1060  C1069   1.403   .     A
C1060  H963    1.083   1_655 S
C1062  C950    1.446   1_655 S
C1063  C1065   1.423   .     A
C1063  C1073   1.453   .     S
C1064  C1072   1.452   .     S
C1064  C1067   1.422   .     A
C1065  C1068   1.416   .     A
C1065  C1070   1.430   .     A
C1066  O1109   1.288   .     A
C1066  O1111   1.290   .     A
C1066  C1081   1.442   .     S
C1067  C1071   1.430   .     A
C1067  C1069   1.415   .     A
C1068  C520    1.417   1_556 S
C1070  C1077   1.414   .     A
C1070  C513    1.414   1_556 S
C1071  C1076   1.420   .     A
C1072  N1097   1.157   .     T
C1073  N1098   1.157   .     T
C1074  N1099   1.158   .     T
C1075  N1100   1.158   .     T
C1075  C937    1.446   1_655 S
C1076  O1103   1.382   .     S
C1076  C1078   1.395   .     A
C1077  C1079   1.407   .     A
C1077  O1104   1.385   .     S
C1078  O1116   1.382   .     S
C1079  O1102   1.382   .     S
C1079  C511    1.417   1_556 S
C1080  C709    1.349   1_565 S
C1080  O733    1.389   1_565 S
C1082  O1112   1.307   .     A
C1082  O1114   1.300   .     A
Cu1083 Cu1084  2.688   .     S
Cu1083 N1096   2.020   .     S
Cu1083 O1115   1.947   .     S
Cu1083 O1101   1.969   .     S
Cu1083 O1112   1.965   .     S
Cu1083 O1111   1.965   .     S
Cu1084 N1095   2.020   .     S
Cu1084 O1109   1.969   .     S
Cu1084 O1113   1.965   .     S
Cu1084 O1110   1.965   .     S
Cu1084 O1114   1.947   .     S
H1085  C935    1.083   1_655 S
H1088  O434    0.986   1_656 S
H1090  O1103   0.992   .     S
H1091  O1104   0.990   .     S
H1092  O733    0.991   1_565 S
H1094  O983    0.988   1_655 S
N1095  N972    1.288   1_655 S
N1095  O983    1.337   1_655 S
O1102  H407    0.986   1_656 S
O1106  C709    1.389   1_565 S
O1106  H721    0.991   1_565 S
O1108  N972    1.337   1_655 S
O1108  H962    0.988   1_655 S
