data_str_m1_o1_o17_pcu_sym.141
_audit_creation_date              2020-01-03
_audit_creation_method            'Materials Studio'
_symmetry_space_group_name_H-M    'P1'
_symmetry_Int_Tables_number       1
_symmetry_cell_setting            triclinic
loop_
_symmetry_equiv_pos_as_xyz
  x,y,z
_cell_length_a                    36.6577
_cell_length_b                    36.6993
_cell_length_c                    34.2649
_cell_angle_alpha                 90.2268
_cell_angle_beta                  90.1101
_cell_angle_gamma                 89.7664
loop_
_atom_site_label
_atom_site_type_symbol
_atom_site_fract_x
_atom_site_fract_y
_atom_site_fract_z
_atom_site_U_iso_or_equiv
_atom_site_adp_type
_atom_site_occupancy
C1     C     0.48789   0.28209   0.41887   0.00000  Uiso   1.00
C2     C     0.23756   0.46798   0.08111   0.00000  Uiso   1.00
C3     C     0.21601   0.00204   0.54114   0.00000  Uiso   1.00
C4     C     0.49504   0.28354   0.45940   0.00000  Uiso   1.00
C5     C     0.49712   0.21640   0.54062   0.00000  Uiso   1.00
C6     C     0.21583   0.49516   0.45900   0.00000  Uiso   1.00
C7     C     0.28271   0.49598   0.54087   0.00000  Uiso   1.00
C8     C     0.25163   0.46722   0.95848   0.00000  Uiso   1.00
C9     C     0.25220   0.03278   0.04127   0.00000  Uiso   1.00
C10    C     0.03332   0.25711   0.95947   0.00000  Uiso   1.00
C11    C     0.46621   0.25375   0.04093   0.00000  Uiso   1.00
C12    C     0.24529   0.03379   0.95923   0.00000  Uiso   1.00
C13    C     0.47000   0.23736   0.91897   0.00000  Uiso   1.00
C14    C     0.24436   0.46650   0.04052   0.00000  Uiso   1.00
C15    C     0.46749   0.24606   0.95893   0.00000  Uiso   1.00
C16    C     0.03306   0.24970   0.04149   0.00000  Uiso   1.00
C17    C     0.09834   0.34825   0.24995   0.00000  Uiso   1.00
C18    C     0.40146   0.15221   0.75055   0.00000  Uiso   1.00
C19    C     0.15079   0.09745   0.25205   0.00000  Uiso   1.00
C20    C     0.34803   0.40219   0.75067   0.00000  Uiso   1.00
C21    C     0.40169   0.15214   0.24965   0.00000  Uiso   1.00
C22    C     0.09792   0.34802   0.75020   0.00000  Uiso   1.00
C23    C     0.34744   0.40081   0.24788   0.00000  Uiso   1.00
C24    C     0.03154   0.24096   0.08149   0.00000  Uiso   1.00
C25    C     0.15253   0.09833   0.75043   0.00000  Uiso   1.00
C26    C     0.09916   0.15255   0.75217   0.00000  Uiso   1.00
C27    C     0.40163   0.34743   0.24983   0.00000  Uiso   1.00
C28    C     0.15171   0.40174   0.75005   0.00000  Uiso   1.00
C29    C     0.34804   0.09828   0.24992   0.00000  Uiso   1.00
C30    C     0.40212   0.34877   0.74892   0.00000  Uiso   1.00
C31    C     0.09742   0.15160   0.25015   0.00000  Uiso   1.00
C32    C     0.34747   0.09870   0.75102   0.00000  Uiso   1.00
C33    C     0.15208   0.40201   0.24969   0.00000  Uiso   1.00
C34    C     0.49957   0.25019   0.47949   0.00000  Uiso   1.00
C35    C     0.26041   0.46910   0.91851   0.00000  Uiso   1.00
C36    C     0.49963   0.24982   0.52049   0.00000  Uiso   1.00
C37    C     0.24901   0.49962   0.47956   0.00000  Uiso   1.00
C38    C     0.24926   0.49928   0.52051   0.00000  Uiso   1.00
C39    C     0.24822   0.00029   0.97937   0.00000  Uiso   1.00
C40    C     0.24813   0.49985   0.02037   0.00000  Uiso   1.00
C41    C     0.00020   0.25191   0.97973   0.00000  Uiso   1.00
C42    C     0.49981   0.25189   0.02071   0.00000  Uiso   1.00
C43    C     0.46753   0.14610   0.43927   0.00000  Uiso   1.00
C44    C     0.43728   0.13264   0.46632   0.00000  Uiso   1.00
C45    C     0.40356   0.12157   0.44296   0.00000  Uiso   1.00
C46    C     0.26067   0.03079   0.08131   0.00000  Uiso   1.00
C47    C     0.45636   0.34944   0.55758   0.00000  Uiso   1.00
C48    C     0.43091   0.37286   0.53265   0.00000  Uiso   1.00
C49    C     0.39212   0.37228   0.54862   0.00000  Uiso   1.00
C50    C     0.35163   0.46612   0.43834   0.00000  Uiso   1.00
C51    C     0.36293   0.43419   0.46434   0.00000  Uiso   1.00
C52    C     0.36937   0.39975   0.44010   0.00000  Uiso   1.00
C53    C     0.14836   0.45662   0.55526   0.00000  Uiso   1.00
C54    C     0.13291   0.42967   0.52531   0.00000  Uiso   1.00
C55    C     0.12696   0.39225   0.54342   0.00000  Uiso   1.00
C56    C     0.03763   0.35550   0.45326   0.00000  Uiso   1.00
C57    C     0.03143   0.26396   0.91894   0.00000  Uiso   1.00
C58    C     0.04222   0.39452   0.43880   0.00000  Uiso   1.00
C59    C     0.08138   0.40182   0.42626   0.00000  Uiso   1.00
C60    C     0.04265   0.14784   0.55327   0.00000  Uiso   1.00
C61    C     0.06897   0.13240   0.52262   0.00000  Uiso   1.00
C62    C     0.10627   0.12413   0.54037   0.00000  Uiso   1.00
C63    C     0.14434   0.03691   0.44887   0.00000  Uiso   1.00
C64    C     0.10630   0.04081   0.43101   0.00000  Uiso   1.00
C65    C     0.10023   0.07877   0.41412   0.00000  Uiso   1.00
C66    C     0.35305   0.03576   0.55863   0.00000  Uiso   1.00
C67    C     0.36715   0.06567   0.53160   0.00000  Uiso   1.00
C68    C     0.46723   0.26039   0.08155   0.00000  Uiso   1.00
C69    C     0.37774   0.09960   0.55485   0.00000  Uiso   1.00
C70    C     0.20814   0.40051   0.93901   0.00000  Uiso   1.00
C71    C     0.17711   0.38856   0.96588   0.00000  Uiso   1.00
C72    C     0.14132   0.38551   0.94323   0.00000  Uiso   1.00
C73    C     0.20781   0.10199   0.05509   0.00000  Uiso   1.00
C74    C     0.18311   0.12001   0.02454   0.00000  Uiso   1.00
C75    C     0.14548   0.12857   0.04124   0.00000  Uiso   1.00
C76    C     0.10564   0.21670   0.95002   0.00000  Uiso   1.00
C77    C     0.14352   0.21347   0.93174   0.00000  Uiso   1.00
C78    C     0.15052   0.17527   0.91559   0.00000  Uiso   1.00
C79    C     0.00018   0.25081   0.39826   0.00000  Uiso   1.00
C80    C     0.39562   0.20723   0.04617   0.00000  Uiso   1.00
C81    C     0.35893   0.20198   0.06638   0.00000  Uiso   1.00
C82    C     0.35335   0.16238   0.07813   0.00000  Uiso   1.00
C83    C     0.28948   0.11160   0.96547   0.00000  Uiso   1.00
C84    C     0.29642   0.14175   0.93582   0.00000  Uiso   1.00
C85    C     0.33460   0.15758   0.94035   0.00000  Uiso   1.00
C86    C     0.28697   0.39560   0.04997   0.00000  Uiso   1.00
C87    C     0.29139   0.35748   0.06719   0.00000  Uiso   1.00
C88    C     0.32914   0.35205   0.08512   0.00000  Uiso   1.00
C89    C     0.39484   0.28499   0.94419   0.00000  Uiso   1.00
C90    C     0.49994   0.24943   0.60177   0.00000  Uiso   1.00
C91    C     0.37464   0.30886   0.97400   0.00000  Uiso   1.00
C92    C     0.36283   0.34508   0.95619   0.00000  Uiso   1.00
C93    C     0.09869   0.29544   0.06019   0.00000  Uiso   1.00
C94    C     0.11053   0.32621   0.03300   0.00000  Uiso   1.00
C95    C     0.11308   0.36230   0.05516   0.00000  Uiso   1.00
C96    C     0.10458   0.46447   0.27863   0.00000  Uiso   1.00
C97    C     0.06681   0.46204   0.29735   0.00000  Uiso   1.00
C98    C     0.06721   0.47838   0.33835   0.00000  Uiso   1.00
C99    C     0.36886   0.07470   0.83669   0.00000  Uiso   1.00
C100   C     0.36693   0.04018   0.86142   0.00000  Uiso   1.00
C101   C     0.24888   0.00044   0.39830   0.00000  Uiso   1.00
C102   C     0.34728   0.04713   0.89995   0.00000  Uiso   1.00
C103   C     0.03142   0.10466   0.27156   0.00000  Uiso   1.00
C104   C     0.03615   0.06842   0.29303   0.00000  Uiso   1.00
C105   C     0.00946   0.06561   0.32703   0.00000  Uiso   1.00
C106   C     0.44805   0.39954   0.81144   0.00000  Uiso   1.00
C107   C     0.48789   0.40349   0.82382   0.00000  Uiso   1.00
C108   C     0.49147   0.40977   0.86769   0.00000  Uiso   1.00
C109   C     0.41358   0.03852   0.22884   0.00000  Uiso   1.00
C110   C     0.44253   0.02569   0.19964   0.00000  Uiso   1.00
C111   C     0.46897   0.49861   0.21804   0.00000  Uiso   1.00
C112   C     0.48964   0.21764   0.58104   0.00000  Uiso   1.00
C113   C     0.24965   0.49955   0.60174   0.00000  Uiso   1.00
C114   C     0.10249   0.44638   0.81297   0.00000  Uiso   1.00
C115   C     0.10260   0.48580   0.82733   0.00000  Uiso   1.00
C116   C     0.10092   0.48762   0.87178   0.00000  Uiso   1.00
C117   C     0.46354   0.39382   0.27826   0.00000  Uiso   1.00
C118   C     0.46224   0.43123   0.29815   0.00000  Uiso   1.00
C119   C     0.47343   0.42877   0.34099   0.00000  Uiso   1.00
C120   C     0.05768   0.11685   0.82110   0.00000  Uiso   1.00
C121   C     0.07106   0.08500   0.84614   0.00000  Uiso   1.00
C122   C     0.06775   0.09418   0.88951   0.00000  Uiso   1.00
C123   C     0.10447   0.03633   0.72385   0.00000  Uiso   1.00
C124   C     0.24997   0.00089   0.89818   0.00000  Uiso   1.00
C125   C     0.06679   0.03976   0.70475   0.00000  Uiso   1.00
C126   C     0.06737   0.02579   0.66273   0.00000  Uiso   1.00
C127   C     0.38377   0.44235   0.17959   0.00000  Uiso   1.00
C128   C     0.41608   0.42949   0.15479   0.00000  Uiso   1.00
C129   C     0.40764   0.43369   0.11136   0.00000  Uiso   1.00
C130   C     0.03486   0.39795   0.72489   0.00000  Uiso   1.00
C131   C     0.02686   0.43801   0.71612   0.00000  Uiso   1.00
C132   C     0.00695   0.44226   0.67724   0.00000  Uiso   1.00
C133   C     0.43220   0.12498   0.16703   0.00000  Uiso   1.00
C134   C     0.46876   0.12417   0.14553   0.00000  Uiso   1.00
C135   C     0.24965   0.49930   0.10168   0.00000  Uiso   1.00
C136   C     0.46604   0.14227   0.10564   0.00000  Uiso   1.00
C137   C     0.40881   0.46169   0.72780   0.00000  Uiso   1.00
C138   C     0.40282   0.00285   0.72667   0.00000  Uiso   1.00
C139   C     0.42048   0.01991   0.69088   0.00000  Uiso   1.00
C140   C     0.09771   0.04943   0.19136   0.00000  Uiso   1.00
C141   C     0.06431   0.02506   0.18615   0.00000  Uiso   1.00
C142   C     0.05687   0.01702   0.14315   0.00000  Uiso   1.00
C143   C     0.46044   0.08737   0.77655   0.00000  Uiso   1.00
C144   C     0.47120   0.05888   0.80708   0.00000  Uiso   1.00
C145   C     0.49664   0.02993   0.79008   0.00000  Uiso   1.00
C146   C     0.00071   0.25032   0.89841   0.00000  Uiso   1.00
C147   C     0.05323   0.39832   0.18842   0.00000  Uiso   1.00
C148   C     0.01383   0.39671   0.17409   0.00000  Uiso   1.00
C149   C     0.01195   0.39859   0.12966   0.00000  Uiso   1.00
C150   C     0.33660   0.21196   0.73265   0.00000  Uiso   1.00
C151   C     0.30502   0.22394   0.70627   0.00000  Uiso   1.00
C152   C     0.28021   0.25130   0.72677   0.00000  Uiso   1.00
C153   C     0.15011   0.30375   0.31085   0.00000  Uiso   1.00
C154   C     0.14941   0.26454   0.32543   0.00000  Uiso   1.00
C155   C     0.15405   0.26321   0.36966   0.00000  Uiso   1.00
C156   C     0.28588   0.35761   0.78024   0.00000  Uiso   1.00
C157   C     0.49929   0.25006   0.10187   0.00000  Uiso   1.00
C158   C     0.28746   0.32127   0.80201   0.00000  Uiso   1.00
C159   C     0.27718   0.32591   0.84490   0.00000  Uiso   1.00
C160   C     0.19268   0.13365   0.32055   0.00000  Uiso   1.00
C161   C     0.17989   0.16584   0.34562   0.00000  Uiso   1.00
C162   C     0.18352   0.15695   0.38898   0.00000  Uiso   1.00
C163   C     0.14603   0.28605   0.77859   0.00000  Uiso   1.00
C164   C     0.18410   0.28894   0.79675   0.00000  Uiso   1.00
C165   C     0.18442   0.27374   0.83814   0.00000  Uiso   1.00
C166   C     0.37207   0.18532   0.33145   0.00000  Uiso   1.00
C167   C     0.37262   0.22302   0.35076   0.00000  Uiso   1.00
C168   C     0.00214   0.18370   0.47874   0.00000  Uiso   1.00
C169   C     0.38440   0.22105   0.39340   0.00000  Uiso   1.00
C170   C     0.21827   0.14535   0.77272   0.00000  Uiso   1.00
C171   C     0.21311   0.18154   0.79450   0.00000  Uiso   1.00
C172   C     0.23979   0.18470   0.82861   0.00000  Uiso   1.00
C173   C     0.29966   0.34772   0.30826   0.00000  Uiso   1.00
C174   C     0.27583   0.31396   0.31317   0.00000  Uiso   1.00
C175   C     0.26851   0.30608   0.35614   0.00000  Uiso   1.00
C176   C     0.35433   0.28201   0.22699   0.00000  Uiso   1.00
C177   C     0.31738   0.28607   0.20649   0.00000  Uiso   1.00
C178   C     0.31458   0.26029   0.17155   0.00000  Uiso   1.00
C179   C     0.49753   0.31615   0.52145   0.00000  Uiso   1.00
C180   C     0.15310   0.20027   0.69206   0.00000  Uiso   1.00
C181   C     0.18734   0.22359   0.68801   0.00000  Uiso   1.00
C182   C     0.19619   0.23116   0.64533   0.00000  Uiso   1.00
C183   C     0.28783   0.16362   0.27020   0.00000  Uiso   1.00
C184   C     0.27493   0.19282   0.29914   0.00000  Uiso   1.00
C185   C     0.24762   0.21890   0.28056   0.00000  Uiso   1.00
C186   C     0.19618   0.35130   0.68793   0.00000  Uiso   1.00
C187   C     0.23548   0.35262   0.67352   0.00000  Uiso   1.00
C188   C     0.23718   0.34943   0.62915   0.00000  Uiso   1.00
C189   C     0.14334   0.21333   0.22169   0.00000  Uiso   1.00
C190   C     0.31553   0.00120   0.47922   0.00000  Uiso   1.00
C191   C     0.18058   0.21250   0.20157   0.00000  Uiso   1.00
C192   C     0.17745   0.22312   0.15866   0.00000  Uiso   1.00
C193   C     0.36400   0.30426   0.68300   0.00000  Uiso   1.00
C194   C     0.33090   0.31545   0.65850   0.00000  Uiso   1.00
C195   C     0.33717   0.30611   0.61559   0.00000  Uiso   1.00
C196   C     0.21416   0.35469   0.21977   0.00000  Uiso   1.00
C197   C     0.21137   0.31699   0.20077   0.00000  Uiso   1.00
C198   C     0.22655   0.31746   0.15932   0.00000  Uiso   1.00
C199   C     0.31455   0.12845   0.66854   0.00000  Uiso   1.00
C200   C     0.27676   0.12858   0.64941   0.00000  Uiso   1.00
C201   C     0.18277   0.49748   0.52057   0.00000  Uiso   1.00
C202   C     0.27854   0.11788   0.60643   0.00000  Uiso   1.00
C203   C     0.49714   0.31659   0.48074   0.00000  Uiso   1.00
C204   C     0.21772   0.48786   0.41851   0.00000  Uiso   1.00
C205   C     0.00170   0.18343   0.51953   0.00000  Uiso   1.00
C206   C     0.18258   0.49736   0.47981   0.00000  Uiso   1.00
C207   C     0.31592   0.49991   0.52001   0.00000  Uiso   1.00
C208   C     0.24683   0.43387   0.97843   0.00000  Uiso   1.00
C209   C     0.24860   0.06622   0.02128   0.00000  Uiso   1.00
C210   C     0.06654   0.25579   0.98057   0.00000  Uiso   1.00
C211   C     0.43334   0.24935   0.01969   0.00000  Uiso   1.00
C212   C     0.24872   0.06672   0.98042   0.00000  Uiso   1.00
C213   C     0.24684   0.43342   0.01919   0.00000  Uiso   1.00
C214   C     0.43387   0.24822   0.97893   0.00000  Uiso   1.00
C215   C     0.28116   0.48814   0.58116   0.00000  Uiso   1.00
C216   C     0.06623   0.25558   0.02135   0.00000  Uiso   1.00
C217   C     0.24955   0.00010   0.35585   0.00000  Uiso   1.00
C218   C     0.24996   0.49990   0.64417   0.00000  Uiso   1.00
C219   C     0.00004   0.25050   0.35584   0.00000  Uiso   1.00
C220   C     0.49997   0.24957   0.64417   0.00000  Uiso   1.00
C221   C     0.00034   0.25007   0.85589   0.00000  Uiso   1.00
C222   C     0.49959   0.24997   0.14422   0.00000  Uiso   1.00
C223   C     0.25002   0.00051   0.85581   0.00000  Uiso   1.00
C224   C     0.24994   0.49960   0.14413   0.00000  Uiso   1.00
C225   C     0.17953   0.06978   0.25066   0.00000  Uiso   1.00
C226   C     0.01288   0.21971   0.41852   0.00000  Uiso   1.00
C227   C     0.32016   0.43023   0.74984   0.00000  Uiso   1.00
C228   C     0.42988   0.18002   0.24987   0.00000  Uiso   1.00
C229   C     0.06989   0.32010   0.74992   0.00000  Uiso   1.00
C230   C     0.31976   0.42957   0.24932   0.00000  Uiso   1.00
C231   C     0.18011   0.06998   0.75001   0.00000  Uiso   1.00
C232   C     0.07014   0.32009   0.25002   0.00000  Uiso   1.00
C233   C     0.42982   0.18003   0.75010   0.00000  Uiso   1.00
C234   C     0.17988   0.42988   0.74998   0.00000  Uiso   1.00
C235   C     0.32005   0.07011   0.25001   0.00000  Uiso   1.00
C236   C     0.43006   0.32030   0.74964   0.00000  Uiso   1.00
C237   C     0.01029   0.28126   0.58165   0.00000  Uiso   1.00
C238   C     0.06984   0.17993   0.25003   0.00000  Uiso   1.00
C239   C     0.31984   0.07024   0.75037   0.00000  Uiso   1.00
C240   C     0.18004   0.43001   0.24989   0.00000  Uiso   1.00
C241   C     0.07043   0.18024   0.75064   0.00000  Uiso   1.00
C242   C     0.42995   0.31982   0.24998   0.00000  Uiso   1.00
C243   C     0.11528   0.41179   0.24425   0.00000  Uiso   1.00
C244   C     0.37857   0.09485   0.77489   0.00000  Uiso   1.00
C245   C     0.08752   0.11500   0.24362   0.00000  Uiso   1.00
C246   C     0.41105   0.38461   0.76041   0.00000  Uiso   1.00
C247   C     0.38099   0.09235   0.22953   0.00000  Uiso   1.00
C248   C     0.27957   0.01336   0.41912   0.00000  Uiso   1.00
C249   C     0.11559   0.41078   0.76054   0.00000  Uiso   1.00
C250   C     0.41104   0.38393   0.24281   0.00000  Uiso   1.00
C251   C     0.09092   0.11678   0.76461   0.00000  Uiso   1.00
C252   C     0.11606   0.08908   0.75803   0.00000  Uiso   1.00
C253   C     0.38338   0.40905   0.23593   0.00000  Uiso   1.00
C254   C     0.08827   0.38462   0.75695   0.00000  Uiso   1.00
C255   C     0.40659   0.12015   0.22736   0.00000  Uiso   1.00
C256   C     0.38451   0.41190   0.75751   0.00000  Uiso   1.00
C257   C     0.11492   0.08856   0.24061   0.00000  Uiso   1.00
C258   C     0.40672   0.12001   0.77233   0.00000  Uiso   1.00
C259   C     0.21762   0.00990   0.58146   0.00000  Uiso   1.00
C260   C     0.08914   0.38448   0.24030   0.00000  Uiso   1.00
C261   C     0.36848   0.15792   0.73004   0.00000  Uiso   1.00
C262   C     0.13473   0.33914   0.25926   0.00000  Uiso   1.00
C263   C     0.33838   0.36562   0.74436   0.00000  Uiso   1.00
C264   C     0.15911   0.13338   0.26413   0.00000  Uiso   1.00
C265   C     0.13462   0.33823   0.74405   0.00000  Uiso   1.00
C266   C     0.36966   0.15733   0.27176   0.00000  Uiso   1.00
C267   C     0.16242   0.13489   0.74396   0.00000  Uiso   1.00
C268   C     0.33854   0.36499   0.25913   0.00000  Uiso   1.00
C269   C     0.36499   0.33760   0.25607   0.00000  Uiso   1.00
C270   C     0.23868   0.03260   0.91860   0.00000  Uiso   1.00
C271   C     0.13502   0.16133   0.74084   0.00000  Uiso   1.00
C272   C     0.34199   0.13145   0.26997   0.00000  Uiso   1.00
C273   C     0.16073   0.36552   0.73999   0.00000  Uiso   1.00
C274   C     0.13399   0.16100   0.25721   0.00000  Uiso   1.00
C275   C     0.36593   0.34025   0.73773   0.00000  Uiso   1.00
C276   C     0.16201   0.36527   0.25497   0.00000  Uiso   1.00
C277   C     0.34268   0.13020   0.72817   0.00000  Uiso   1.00
C278   C     0.00459   0.21729   0.45859   0.00000  Uiso   1.00
C279   C     0.00238   0.28290   0.54144   0.00000  Uiso   1.00
C280   C     0.28192   0.00466   0.45905   0.00000  Uiso   1.00
H281   H     0.47218   0.12528   0.41616   0.00000  Uiso   1.00
H282   H     0.44099   0.40138   0.53233   0.00000  Uiso   1.00
H283   H     0.42035   0.29870   0.93440   0.00000  Uiso   1.00
H284   H     0.35011   0.29426   0.98465   0.00000  Uiso   1.00
H285   H     0.39279   0.31444   0.99929   0.00000  Uiso   1.00
H286   H     0.38699   0.36037   0.94574   0.00000  Uiso   1.00
H287   H     0.34857   0.36177   0.97858   0.00000  Uiso   1.00
H288   H     0.34387   0.34035   0.93137   0.00000  Uiso   1.00
H289   H     0.11862   0.29364   0.08458   0.00000  Uiso   1.00
H290   H     0.07189   0.30226   0.07372   0.00000  Uiso   1.00
H291   H     0.13758   0.31950   0.02017   0.00000  Uiso   1.00
H292   H     0.09042   0.32913   0.00891   0.00000  Uiso   1.00
H293   H     0.43069   0.36237   0.50221   0.00000  Uiso   1.00
H294   H     0.08604   0.36992   0.06735   0.00000  Uiso   1.00
H295   H     0.12203   0.38418   0.03514   0.00000  Uiso   1.00
H296   H     0.13318   0.36008   0.07935   0.00000  Uiso   1.00
H297   H     0.11154   0.49365   0.27492   0.00000  Uiso   1.00
H298   H     0.12558   0.45307   0.29887   0.00000  Uiso   1.00
H299   H     0.04663   0.47688   0.27903   0.00000  Uiso   1.00
H300   H     0.05834   0.43308   0.29932   0.00000  Uiso   1.00
H301   H     0.08643   0.46299   0.35722   0.00000  Uiso   1.00
H302   H     0.03956   0.47689   0.35130   0.00000  Uiso   1.00
H303   H     0.07583   0.00732   0.33743   0.00000  Uiso   1.00
H304   H     0.38038   0.34463   0.54507   0.00000  Uiso   1.00
H305   H     0.34088   0.08665   0.83448   0.00000  Uiso   1.00
H306   H     0.38715   0.09468   0.85138   0.00000  Uiso   1.00
H307   H     0.35214   0.01868   0.84497   0.00000  Uiso   1.00
H308   H     0.39500   0.03009   0.86747   0.00000  Uiso   1.00
H309   H     0.36211   0.06795   0.91734   0.00000  Uiso   1.00
H310   H     0.34610   0.02149   0.91699   0.00000  Uiso   1.00
H311   H     0.31892   0.05665   0.89447   0.00000  Uiso   1.00
H312   H     0.00221   0.10807   0.26360   0.00000  Uiso   1.00
H313   H     0.03820   0.12765   0.29161   0.00000  Uiso   1.00
H314   H     0.03144   0.04546   0.27249   0.00000  Uiso   1.00
H315   H     0.37483   0.39170   0.53223   0.00000  Uiso   1.00
H316   H     0.06446   0.06629   0.30444   0.00000  Uiso   1.00
H317   H     0.01421   0.08801   0.34832   0.00000  Uiso   1.00
H318   H     0.01331   0.03923   0.34216   0.00000  Uiso   1.00
H319   H     0.48089   0.06710   0.31623   0.00000  Uiso   1.00
H320   H     0.43604   0.37616   0.82763   0.00000  Uiso   1.00
H321   H     0.43319   0.42498   0.81950   0.00000  Uiso   1.00
H322   H     0.00306   0.37827   0.81585   0.00000  Uiso   1.00
H323   H     0.00021   0.42691   0.80827   0.00000  Uiso   1.00
H324   H     0.47694   0.43515   0.87638   0.00000  Uiso   1.00
H325   H     0.02074   0.41253   0.87552   0.00000  Uiso   1.00
H326   H     0.39181   0.38025   0.57994   0.00000  Uiso   1.00
H327   H     0.47997   0.38635   0.88395   0.00000  Uiso   1.00
H328   H     0.39935   0.01443   0.24097   0.00000  Uiso   1.00
H329   H     0.42760   0.05246   0.25374   0.00000  Uiso   1.00
H330   H     0.42910   0.01279   0.17405   0.00000  Uiso   1.00
H331   H     0.45832   0.04936   0.18908   0.00000  Uiso   1.00
H332   H     0.48268   0.01095   0.24375   0.00000  Uiso   1.00
H333   H     0.48995   0.49041   0.19642   0.00000  Uiso   1.00
H334   H     0.45416   0.47389   0.22720   0.00000  Uiso   1.00
H335   H     0.12536   0.43163   0.82778   0.00000  Uiso   1.00
H336   H     0.07618   0.43359   0.82137   0.00000  Uiso   1.00
H337   H     0.37310   0.47013   0.41595   0.00000  Uiso   1.00
H338   H     0.12792   0.49944   0.81739   0.00000  Uiso   1.00
H339   H     0.07877   0.00050   0.81480   0.00000  Uiso   1.00
H340   H     0.07492   0.47583   0.88238   0.00000  Uiso   1.00
H341   H     0.10259   0.01641   0.88143   0.00000  Uiso   1.00
H342   H     0.12425   0.47253   0.88482   0.00000  Uiso   1.00
H343   H     0.49256   0.38577   0.27449   0.00000  Uiso   1.00
H344   H     0.45142   0.37305   0.29803   0.00000  Uiso   1.00
H345   H     0.48126   0.44990   0.28308   0.00000  Uiso   1.00
H346   H     0.43418   0.44270   0.29637   0.00000  Uiso   1.00
H347   H     0.45400   0.41138   0.35729   0.00000  Uiso   1.00
H348   H     0.32628   0.45914   0.42209   0.00000  Uiso   1.00
H349   H     0.47318   0.45642   0.35425   0.00000  Uiso   1.00
H350   H     0.00134   0.41712   0.34360   0.00000  Uiso   1.00
H351   H     0.02914   0.12346   0.82950   0.00000  Uiso   1.00
H352   H     0.07408   0.14163   0.82812   0.00000  Uiso   1.00
H353   H     0.05462   0.06039   0.83975   0.00000  Uiso   1.00
H354   H     0.10007   0.07891   0.83936   0.00000  Uiso   1.00
H355   H     0.08438   0.11851   0.89679   0.00000  Uiso   1.00
H356   H     0.07765   0.07099   0.90733   0.00000  Uiso   1.00
H357   H     0.03881   0.09967   0.89720   0.00000  Uiso   1.00
H358   H     0.11074   0.00695   0.72778   0.00000  Uiso   1.00
H359   H     0.38835   0.44119   0.48039   0.00000  Uiso   1.00
H360   H     0.12571   0.04692   0.70362   0.00000  Uiso   1.00
H361   H     0.04676   0.02360   0.72155   0.00000  Uiso   1.00
H362   H     0.05788   0.06873   0.70476   0.00000  Uiso   1.00
H363   H     0.08618   0.04243   0.64480   0.00000  Uiso   1.00
H364   H     0.03955   0.02779   0.65002   0.00000  Uiso   1.00
H365   H     0.07633   0.49685   0.66179   0.00000  Uiso   1.00
H366   H     0.37688   0.47082   0.17138   0.00000  Uiso   1.00
H367   H     0.35925   0.42570   0.17219   0.00000  Uiso   1.00
H368   H     0.44059   0.44581   0.16201   0.00000  Uiso   1.00
H369   H     0.42207   0.40039   0.16100   0.00000  Uiso   1.00
H370   H     0.34099   0.42883   0.48588   0.00000  Uiso   1.00
H371   H     0.38345   0.41720   0.10322   0.00000  Uiso   1.00
H372   H     0.43119   0.42424   0.09370   0.00000  Uiso   1.00
H373   H     0.40222   0.46274   0.10433   0.00000  Uiso   1.00
H374   H     0.00862   0.38299   0.72646   0.00000  Uiso   1.00
H375   H     0.05050   0.38563   0.70009   0.00000  Uiso   1.00
H376   H     0.00979   0.44984   0.73979   0.00000  Uiso   1.00
H377   H     0.05292   0.45328   0.71498   0.00000  Uiso   1.00
H378   H     0.02428   0.43207   0.65295   0.00000  Uiso   1.00
H379   H     0.00075   0.47148   0.67217   0.00000  Uiso   1.00
H380   H     0.48091   0.42688   0.67751   0.00000  Uiso   1.00
H381   H     0.34431   0.39246   0.42359   0.00000  Uiso   1.00
H382   H     0.42071   0.15316   0.16556   0.00000  Uiso   1.00
H383   H     0.41304   0.10591   0.15223   0.00000  Uiso   1.00
H384   H     0.48968   0.13871   0.16316   0.00000  Uiso   1.00
H385   H     0.47790   0.09547   0.14173   0.00000  Uiso   1.00
H386   H     0.44423   0.12937   0.08783   0.00000  Uiso   1.00
H387   H     0.49240   0.13932   0.09002   0.00000  Uiso   1.00
H388   H     0.46009   0.17176   0.10929   0.00000  Uiso   1.00
H389   H     0.39586   0.44970   0.70113   0.00000  Uiso   1.00
H390   H     0.43857   0.45579   0.72727   0.00000  Uiso   1.00
H391   H     0.37306   0.00866   0.72607   0.00000  Uiso   1.00
H392   H     0.45855   0.17128   0.42401   0.00000  Uiso   1.00
H393   H     0.37653   0.37672   0.45956   0.00000  Uiso   1.00
H394   H     0.41454   0.01530   0.75344   0.00000  Uiso   1.00
H395   H     0.45053   0.01611   0.69193   0.00000  Uiso   1.00
H396   H     0.41435   0.04956   0.69036   0.00000  Uiso   1.00
H397   H     0.40957   0.00736   0.66372   0.00000  Uiso   1.00
H398   H     0.12150   0.03635   0.17684   0.00000  Uiso   1.00
H399   H     0.09229   0.07581   0.17617   0.00000  Uiso   1.00
H400   H     0.06868   0.49893   0.20174   0.00000  Uiso   1.00
H401   H     0.04009   0.03884   0.19897   0.00000  Uiso   1.00
H402   H     0.05148   0.04274   0.12712   0.00000  Uiso   1.00
H403   H     0.03259   0.49920   0.14039   0.00000  Uiso   1.00
H404   H     0.39214   0.40397   0.41927   0.00000  Uiso   1.00
H405   H     0.08059   0.00276   0.12982   0.00000  Uiso   1.00
H406   H     0.48546   0.10087   0.76563   0.00000  Uiso   1.00
H407   H     0.44773   0.07327   0.75104   0.00000  Uiso   1.00
H408   H     0.48488   0.07250   0.83210   0.00000  Uiso   1.00
H409   H     0.44646   0.04519   0.81829   0.00000  Uiso   1.00
H410   H     0.48362   0.01602   0.76483   0.00000  Uiso   1.00
H411   H     0.00304   0.00926   0.81269   0.00000  Uiso   1.00
H412   H     0.02246   0.04267   0.78057   0.00000  Uiso   1.00
H413   H     0.06898   0.37645   0.17300   0.00000  Uiso   1.00
H414   H     0.06487   0.42531   0.18068   0.00000  Uiso   1.00
H415   H     0.12968   0.45764   0.58074   0.00000  Uiso   1.00
H416   H     0.00119   0.37083   0.18377   0.00000  Uiso   1.00
H417   H     0.49818   0.41979   0.18688   0.00000  Uiso   1.00
H418   H     0.02222   0.42529   0.11931   0.00000  Uiso   1.00
H419   H     0.48330   0.39526   0.12000   0.00000  Uiso   1.00
H420   H     0.02838   0.37629   0.11635   0.00000  Uiso   1.00
H421   H     0.35145   0.23640   0.74325   0.00000  Uiso   1.00
H422   H     0.32503   0.19829   0.75896   0.00000  Uiso   1.00
H423   H     0.31592   0.23617   0.67914   0.00000  Uiso   1.00
H424   H     0.28835   0.20008   0.69789   0.00000  Uiso   1.00
H425   H     0.26893   0.23941   0.75388   0.00000  Uiso   1.00
H426   H     0.17515   0.44664   0.56656   0.00000  Uiso   1.00
H427   H     0.25740   0.25914   0.70719   0.00000  Uiso   1.00
H428   H     0.29569   0.27616   0.73415   0.00000  Uiso   1.00
H429   H     0.12858   0.31939   0.32688   0.00000  Uiso   1.00
H430   H     0.17726   0.31570   0.31767   0.00000  Uiso   1.00
H431   H     0.12296   0.25182   0.31744   0.00000  Uiso   1.00
H432   H     0.17171   0.24876   0.31133   0.00000  Uiso   1.00
H433   H     0.18124   0.27387   0.37820   0.00000  Uiso   1.00
H434   H     0.15170   0.23470   0.37972   0.00000  Uiso   1.00
H435   H     0.13241   0.27956   0.38426   0.00000  Uiso   1.00
H436   H     0.25680   0.36530   0.77609   0.00000  Uiso   1.00
H437   H     0.10648   0.44016   0.51392   0.00000  Uiso   1.00
H438   H     0.29793   0.37940   0.79896   0.00000  Uiso   1.00
H439   H     0.26801   0.30198   0.78835   0.00000  Uiso   1.00
H440   H     0.31542   0.30956   0.80025   0.00000  Uiso   1.00
H441   H     0.29699   0.34404   0.85992   0.00000  Uiso   1.00
H442   H     0.27771   0.29896   0.85950   0.00000  Uiso   1.00
H443   H     0.24932   0.33768   0.84753   0.00000  Uiso   1.00
H444   H     0.22121   0.12676   0.32878   0.00000  Uiso   1.00
H445   H     0.17603   0.10914   0.32769   0.00000  Uiso   1.00
H446   H     0.19652   0.19023   0.33905   0.00000  Uiso   1.00
H447   H     0.15091   0.17214   0.33895   0.00000  Uiso   1.00
H448   H     0.15219   0.42678   0.50052   0.00000  Uiso   1.00
H449   H     0.16687   0.13274   0.39634   0.00000  Uiso   1.00
H450   H     0.17383   0.18028   0.40689   0.00000  Uiso   1.00
H451   H     0.21250   0.15141   0.39652   0.00000  Uiso   1.00
H452   H     0.13919   0.25677   0.77521   0.00000  Uiso   1.00
H453   H     0.12527   0.29760   0.79904   0.00000  Uiso   1.00
H454   H     0.20395   0.27358   0.77847   0.00000  Uiso   1.00
H455   H     0.19269   0.31791   0.79796   0.00000  Uiso   1.00
H456   H     0.16631   0.29026   0.85730   0.00000  Uiso   1.00
H457   H     0.21251   0.27474   0.85014   0.00000  Uiso   1.00
H458   H     0.17496   0.24504   0.83816   0.00000  Uiso   1.00
H459   H     0.15324   0.38089   0.55418   0.00000  Uiso   1.00
H460   H     0.39946   0.17240   0.33527   0.00000  Uiso   1.00
H461   H     0.35119   0.16822   0.34607   0.00000  Uiso   1.00
H462   H     0.39181   0.24091   0.33477   0.00000  Uiso   1.00
H463   H     0.34503   0.23556   0.34913   0.00000  Uiso   1.00
H464   H     0.36530   0.20371   0.41015   0.00000  Uiso   1.00
H465   H     0.38420   0.24883   0.40634   0.00000  Uiso   1.00
H466   H     0.41248   0.20984   0.39563   0.00000  Uiso   1.00
H467   H     0.24757   0.14217   0.76511   0.00000  Uiso   1.00
H468   H     0.21152   0.12228   0.79245   0.00000  Uiso   1.00
H469   H     0.21750   0.20456   0.77417   0.00000  Uiso   1.00
H470   H     0.11555   0.37337   0.52118   0.00000  Uiso   1.00
H471   H     0.18478   0.18337   0.80584   0.00000  Uiso   1.00
H472   H     0.23520   0.16238   0.84981   0.00000  Uiso   1.00
H473   H     0.23574   0.21110   0.84385   0.00000  Uiso   1.00
H474   H     0.26837   0.18339   0.81794   0.00000  Uiso   1.00
H475   H     0.28622   0.37125   0.32294   0.00000  Uiso   1.00
H476   H     0.32621   0.34277   0.32351   0.00000  Uiso   1.00
H477   H     0.24940   0.31806   0.29788   0.00000  Uiso   1.00
H478   H     0.28980   0.29005   0.29990   0.00000  Uiso   1.00
H479   H     0.29459   0.30115   0.37187   0.00000  Uiso   1.00
H480   H     0.25128   0.28141   0.35871   0.00000  Uiso   1.00
H481   H     0.10747   0.39430   0.56812   0.00000  Uiso   1.00
H482   H     0.25391   0.32938   0.36991   0.00000  Uiso   1.00
H483   H     0.35869   0.25281   0.23420   0.00000  Uiso   1.00
H484   H     0.37666   0.28966   0.20659   0.00000  Uiso   1.00
H485   H     0.29513   0.27998   0.22733   0.00000  Uiso   1.00
H486   H     0.31394   0.31456   0.19624   0.00000  Uiso   1.00
H487   H     0.33586   0.26684   0.14967   0.00000  Uiso   1.00
H488   H     0.28742   0.26323   0.15757   0.00000  Uiso   1.00
H489   H     0.31791   0.23155   0.18105   0.00000  Uiso   1.00
H490   H     0.13001   0.21416   0.67712   0.00000  Uiso   1.00
H491   H     0.15787   0.17377   0.67665   0.00000  Uiso   1.00
H492   H     0.04630   0.33625   0.42980   0.00000  Uiso   1.00
H493   H     0.18336   0.24992   0.70354   0.00000  Uiso   1.00
H494   H     0.21082   0.20916   0.70155   0.00000  Uiso   1.00
H495   H     0.20111   0.20519   0.62938   0.00000  Uiso   1.00
H496   H     0.22118   0.24808   0.64354   0.00000  Uiso   1.00
H497   H     0.17336   0.24618   0.63126   0.00000  Uiso   1.00
H498   H     0.26375   0.14907   0.25819   0.00000  Uiso   1.00
H499   H     0.30157   0.17736   0.24517   0.00000  Uiso   1.00
H500   H     0.26226   0.17968   0.32487   0.00000  Uiso   1.00
H501   H     0.29854   0.20889   0.30954   0.00000  Uiso   1.00
H502   H     0.25956   0.23187   0.25436   0.00000  Uiso   1.00
H503   H     0.44721   0.10880   0.48327   0.00000  Uiso   1.00
H504   H     0.05547   0.35168   0.47938   0.00000  Uiso   1.00
H505   H     0.23997   0.24045   0.30182   0.00000  Uiso   1.00
H506   H     0.22263   0.20403   0.27216   0.00000  Uiso   1.00
H507   H     0.18045   0.37312   0.67256   0.00000  Uiso   1.00
H508   H     0.18438   0.32429   0.68029   0.00000  Uiso   1.00
H509   H     0.24811   0.37880   0.68259   0.00000  Uiso   1.00
H510   H     0.25117   0.32995   0.68691   0.00000  Uiso   1.00
H511   H     0.22732   0.32224   0.61954   0.00000  Uiso   1.00
H512   H     0.26572   0.35294   0.61935   0.00000  Uiso   1.00
H513   H     0.22029   0.37102   0.61528   0.00000  Uiso   1.00
H514   H     0.13490   0.24221   0.22560   0.00000  Uiso   1.00
H515   H     0.02368   0.39939   0.41363   0.00000  Uiso   1.00
H516   H     0.12255   0.20089   0.20197   0.00000  Uiso   1.00
H517   H     0.19906   0.23204   0.21637   0.00000  Uiso   1.00
H518   H     0.19260   0.18472   0.20349   0.00000  Uiso   1.00
H519   H     0.16014   0.20326   0.14264   0.00000  Uiso   1.00
H520   H     0.20498   0.22311   0.14522   0.00000  Uiso   1.00
H521   H     0.16535   0.25079   0.15588   0.00000  Uiso   1.00
H522   H     0.37104   0.27546   0.67614   0.00000  Uiso   1.00
H523   H     0.38803   0.32082   0.67395   0.00000  Uiso   1.00
H524   H     0.30628   0.30097   0.66869   0.00000  Uiso   1.00
H525   H     0.32617   0.34524   0.66155   0.00000  Uiso   1.00
H526   H     0.03470   0.41380   0.46259   0.00000  Uiso   1.00
H527   H     0.36270   0.31894   0.60526   0.00000  Uiso   1.00
H528   H     0.31411   0.31618   0.59758   0.00000  Uiso   1.00
H529   H     0.33936   0.27611   0.61168   0.00000  Uiso   1.00
H530   H     0.24346   0.36159   0.22314   0.00000  Uiso   1.00
H531   H     0.20242   0.37572   0.19987   0.00000  Uiso   1.00
H532   H     0.22684   0.29689   0.21853   0.00000  Uiso   1.00
H533   H     0.18238   0.30837   0.19952   0.00000  Uiso   1.00
H534   H     0.21011   0.33605   0.14070   0.00000  Uiso   1.00
H535   H     0.22536   0.28968   0.14655   0.00000  Uiso   1.00
H536   H     0.25535   0.32670   0.15946   0.00000  Uiso   1.00
H537   H     0.10062   0.39569   0.45044   0.00000  Uiso   1.00
H538   H     0.32725   0.10105   0.66412   0.00000  Uiso   1.00
H539   H     0.33181   0.14944   0.65433   0.00000  Uiso   1.00
H540   H     0.25878   0.10910   0.66489   0.00000  Uiso   1.00
H541   H     0.26439   0.15618   0.65195   0.00000  Uiso   1.00
H542   H     0.29580   0.13739   0.59014   0.00000  Uiso   1.00
H543   H     0.25066   0.11841   0.59371   0.00000  Uiso   1.00
H544   H     0.28974   0.08990   0.60327   0.00000  Uiso   1.00
H545   H     0.41926   0.32114   0.35171   0.00000  Uiso   1.00
H546   H     0.41963   0.17916   0.64548   0.00000  Uiso   1.00
H547   H     0.18362   0.41578   0.35311   0.00000  Uiso   1.00
H548   H     0.08418   0.43098   0.41845   0.00000  Uiso   1.00
H549   H     0.31503   0.41474   0.64413   0.00000  Uiso   1.00
H550   H     0.08748   0.19075   0.35463   0.00000  Uiso   1.00
H551   H     0.08271   0.31704   0.64503   0.00000  Uiso   1.00
H552   H     0.30842   0.09103   0.35995   0.00000  Uiso   1.00
H553   H     0.17846   0.07926   0.64718   0.00000  Uiso   1.00
H554   H     0.17027   0.07112   0.85130   0.00000  Uiso   1.00
H555   H     0.16703   0.43215   0.14677   0.00000  Uiso   1.00
H556   H     0.44207   0.15801   0.86058   0.00000  Uiso   1.00
H557   H     0.07098   0.17103   0.14549   0.00000  Uiso   1.00
H558   H     0.33256   0.43289   0.85506   0.00000  Uiso   1.00
H559   H     0.08853   0.38484   0.40046   0.00000  Uiso   1.00
H560   H     0.33533   0.06523   0.14296   0.00000  Uiso   1.00
H561   H     0.06279   0.33772   0.85510   0.00000  Uiso   1.00
H562   H     0.42673   0.32792   0.14871   0.00000  Uiso   1.00
H563   H     0.04181   0.12879   0.57836   0.00000  Uiso   1.00
H564   H     0.05310   0.17422   0.56500   0.00000  Uiso   1.00
H565   H     0.05753   0.10694   0.50998   0.00000  Uiso   1.00
H566   H     0.07246   0.15250   0.49883   0.00000  Uiso   1.00
H567   H     0.42972   0.15470   0.48713   0.00000  Uiso   1.00
H568   H     0.11861   0.14942   0.55235   0.00000  Uiso   1.00
H569   H     0.12462   0.11284   0.51753   0.00000  Uiso   1.00
H570   H     0.10364   0.10379   0.56409   0.00000  Uiso   1.00
H571   H     0.16499   0.04419   0.42643   0.00000  Uiso   1.00
H572   H     0.14659   0.05611   0.47408   0.00000  Uiso   1.00
H573   H     0.10281   0.02028   0.40739   0.00000  Uiso   1.00
H574   H     0.08545   0.03561   0.45381   0.00000  Uiso   1.00
H575   H     0.10423   0.09985   0.43706   0.00000  Uiso   1.00
H576   H     0.07194   0.08102   0.40268   0.00000  Uiso   1.00
H577   H     0.11949   0.08366   0.38973   0.00000  Uiso   1.00
H578   H     0.39397   0.14448   0.42454   0.00000  Uiso   1.00
H579   H     0.37330   0.03148   0.58236   0.00000  Uiso   1.00
H580   H     0.32741   0.04486   0.57306   0.00000  Uiso   1.00
H581   H     0.39139   0.05555   0.51534   0.00000  Uiso   1.00
H582   H     0.34553   0.07297   0.51021   0.00000  Uiso   1.00
H583   H     0.35423   0.10970   0.57216   0.00000  Uiso   1.00
H584   H     0.38639   0.12147   0.53470   0.00000  Uiso   1.00
H585   H     0.40073   0.09330   0.57492   0.00000  Uiso   1.00
H586   H     0.21061   0.38034   0.91488   0.00000  Uiso   1.00
H587   H     0.20108   0.42698   0.92505   0.00000  Uiso   1.00
H588   H     0.18392   0.36170   0.97895   0.00000  Uiso   1.00
H589   H     0.38125   0.11396   0.46310   0.00000  Uiso   1.00
H590   H     0.17365   0.40877   0.98982   0.00000  Uiso   1.00
H591   H     0.13369   0.41231   0.93060   0.00000  Uiso   1.00
H592   H     0.11918   0.37670   0.96304   0.00000  Uiso   1.00
H593   H     0.14401   0.36514   0.91933   0.00000  Uiso   1.00
H594   H     0.20860   0.11967   0.08146   0.00000  Uiso   1.00
H595   H     0.19601   0.07548   0.06459   0.00000  Uiso   1.00
H596   H     0.19583   0.14571   0.01433   0.00000  Uiso   1.00
H597   H     0.17986   0.10145   0.99912   0.00000  Uiso   1.00
H598   H     0.13194   0.10312   0.05086   0.00000  Uiso   1.00
H599   H     0.12832   0.14167   0.01849   0.00000  Uiso   1.00
H600   H     0.40991   0.09779   0.42396   0.00000  Uiso   1.00
H601   H     0.14790   0.14751   0.06647   0.00000  Uiso   1.00
H602   H     0.08491   0.20857   0.92784   0.00000  Uiso   1.00
H603   H     0.10418   0.19782   0.97540   0.00000  Uiso   1.00
H604   H     0.14602   0.23347   0.90764   0.00000  Uiso   1.00
H605   H     0.16454   0.21989   0.95415   0.00000  Uiso   1.00
H606   H     0.14778   0.15468   0.93908   0.00000  Uiso   1.00
H607   H     0.17860   0.17366   0.90357   0.00000  Uiso   1.00
H608   H     0.13090   0.16904   0.89176   0.00000  Uiso   1.00
H609   H     0.41763   0.19739   0.06591   0.00000  Uiso   1.00
H610   H     0.39586   0.19084   0.01869   0.00000  Uiso   1.00
H611   H     0.45847   0.36210   0.58699   0.00000  Uiso   1.00
H612   H     0.35762   0.21942   0.09293   0.00000  Uiso   1.00
H613   H     0.33659   0.21040   0.04632   0.00000  Uiso   1.00
H614   H     0.35396   0.14446   0.05193   0.00000  Uiso   1.00
H615   H     0.32646   0.15958   0.09265   0.00000  Uiso   1.00
H616   H     0.37497   0.15363   0.09888   0.00000  Uiso   1.00
H617   H     0.30941   0.08909   0.96019   0.00000  Uiso   1.00
H618   H     0.29384   0.12282   0.99532   0.00000  Uiso   1.00
H619   H     0.29333   0.13056   0.90580   0.00000  Uiso   1.00
H620   H     0.27597   0.16389   0.93989   0.00000  Uiso   1.00
H621   H     0.33815   0.16953   0.96995   0.00000  Uiso   1.00
H622   H     0.44410   0.32193   0.56199   0.00000  Uiso   1.00
H623   H     0.33861   0.17939   0.91841   0.00000  Uiso   1.00
H624   H     0.35553   0.13607   0.93560   0.00000  Uiso   1.00
H625   H     0.29378   0.41611   0.07287   0.00000  Uiso   1.00
H626   H     0.30630   0.39846   0.02508   0.00000  Uiso   1.00
H627   H     0.27045   0.35324   0.09012   0.00000  Uiso   1.00
H628   H     0.28713   0.33681   0.04383   0.00000  Uiso   1.00
H629   H     0.35064   0.35653   0.06287   0.00000  Uiso   1.00
H630   H     0.33164   0.32379   0.09632   0.00000  Uiso   1.00
H631   H     0.33318   0.37125   0.10988   0.00000  Uiso   1.00
H632   H     0.37741   0.28204   0.91781   0.00000  Uiso   1.00
O633   O     0.25000   0.00000   0.25000   0.00000  Uiso   1.00
O634   O     0.25000   0.46963   0.66245   0.00000  Uiso   1.00
O635   O     0.31022   0.13653   0.70861   0.00000  Uiso   1.00
O636   O     0.44274   0.34161   0.42347   0.00000  Uiso   1.00
O637   O     0.48789   0.33979   0.37065   0.00000  Uiso   1.00
O638   O     0.42981   0.29993   0.36558   0.00000  Uiso   1.00
O639   O     0.44719   0.15670   0.57558   0.00000  Uiso   1.00
O640   O     0.48953   0.16122   0.63101   0.00000  Uiso   1.00
O641   O     0.43017   0.20005   0.63123   0.00000  Uiso   1.00
O642   O     0.15871   0.44246   0.42248   0.00000  Uiso   1.00
O643   O     0.16221   0.48453   0.36709   0.00000  Uiso   1.00
O644   O     0.20372   0.42702   0.36826   0.00000  Uiso   1.00
O645   O     0.46964   0.25000   0.33755   0.00000  Uiso   1.00
O646   O     0.34138   0.44379   0.57616   0.00000  Uiso   1.00
O647   O     0.33588   0.48368   0.63358   0.00000  Uiso   1.00
O648   O     0.29528   0.42604   0.62848   0.00000  Uiso   1.00
O649   O     0.05971   0.16120   0.42317   0.00000  Uiso   1.00
O650   O     0.02081   0.16622   0.36506   0.00000  Uiso   1.00
O651   O     0.07670   0.20902   0.37261   0.00000  Uiso   1.00
O652   O     0.05225   0.34279   0.57717   0.00000  Uiso   1.00
O653   O     0.01290   0.33576   0.63456   0.00000  Uiso   1.00
O654   O     0.07214   0.29705   0.62918   0.00000  Uiso   1.00
O655   O     0.33734   0.06001   0.42586   0.00000  Uiso   1.00
O656   O     0.03037   0.25000   0.66245   0.00000  Uiso   1.00
O657   O     0.33329   0.02248   0.36653   0.00000  Uiso   1.00
O658   O     0.28947   0.07781   0.37477   0.00000  Uiso   1.00
O659   O     0.15581   0.05179   0.57701   0.00000  Uiso   1.00
O660   O     0.16162   0.00967   0.63221   0.00000  Uiso   1.00
O661   O     0.19934   0.06935   0.63213   0.00000  Uiso   1.00
O662   O     0.19518   0.09358   0.92229   0.00000  Uiso   1.00
O663   O     0.23924   0.08893   0.86859   0.00000  Uiso   1.00
O664   O     0.18012   0.05028   0.86635   0.00000  Uiso   1.00
O665   O     0.19317   0.40804   0.07688   0.00000  Uiso   1.00
O666   O     0.23605   0.41217   0.13186   0.00000  Uiso   1.00
O667   O     0.00000   0.21963   0.83755   0.00000  Uiso   1.00
O668   O     0.17771   0.45252   0.13179   0.00000  Uiso   1.00
O669   O     0.41444   0.18846   0.92627   0.00000  Uiso   1.00
O670   O     0.41535   0.22663   0.86755   0.00000  Uiso   1.00
O671   O     0.46120   0.17269   0.87360   0.00000  Uiso   1.00
O672   O     0.09439   0.20068   0.07632   0.00000  Uiso   1.00
O673   O     0.08690   0.24089   0.13324   0.00000  Uiso   1.00
O674   O     0.05035   0.18056   0.12980   0.00000  Uiso   1.00
O675   O     0.30252   0.40737   0.92341   0.00000  Uiso   1.00
O676   O     0.26312   0.41461   0.86585   0.00000  Uiso   1.00
O677   O     0.32235   0.45284   0.87132   0.00000  Uiso   1.00
O678   O     0.00000   0.28037   0.16245   0.00000  Uiso   1.00
O679   O     0.30559   0.08961   0.07493   0.00000  Uiso   1.00
O680   O     0.26569   0.08659   0.13231   0.00000  Uiso   1.00
O681   O     0.32317   0.04500   0.12888   0.00000  Uiso   1.00
O682   O     0.08966   0.31060   0.92336   0.00000  Uiso   1.00
O683   O     0.08619   0.26921   0.86701   0.00000  Uiso   1.00
O684   O     0.04326   0.32566   0.87019   0.00000  Uiso   1.00
O685   O     0.40517   0.30218   0.07800   0.00000  Uiso   1.00
O686   O     0.41079   0.25823   0.13158   0.00000  Uiso   1.00
O687   O     0.44798   0.31821   0.13411   0.00000  Uiso   1.00
O688   O     0.28037   0.00000   0.83755   0.00000  Uiso   1.00
O689   O     0.21964   0.00000   0.16245   0.00000  Uiso   1.00
O690   O     0.00000   0.28036   0.83755   0.00000  Uiso   1.00
O691   O     0.00000   0.21963   0.16245   0.00000  Uiso   1.00
O692   O     0.21964   0.00000   0.83755   0.00000  Uiso   1.00
O693   O     0.25000   0.00000   0.75000   0.00000  Uiso   1.00
O694   O     0.28037   0.00000   0.16245   0.00000  Uiso   1.00
O695   O     0.20725   0.07308   0.27302   0.00000  Uiso   1.00
O696   O     0.29276   0.42692   0.72698   0.00000  Uiso   1.00
O697   O     0.42693   0.20725   0.27302   0.00000  Uiso   1.00
O698   O     0.07308   0.29275   0.72698   0.00000  Uiso   1.00
O699   O     0.29276   0.42692   0.27302   0.00000  Uiso   1.00
O700   O     0.20725   0.07308   0.72698   0.00000  Uiso   1.00
O701   O     0.07308   0.29275   0.27302   0.00000  Uiso   1.00
O702   O     0.42693   0.20725   0.72698   0.00000  Uiso   1.00
O703   O     0.20725   0.42692   0.72698   0.00000  Uiso   1.00
O704   O     0.00000   0.25000   0.25000   0.00000  Uiso   1.00
O705   O     0.29276   0.07308   0.27302   0.00000  Uiso   1.00
O706   O     0.42693   0.29275   0.72698   0.00000  Uiso   1.00
O707   O     0.07308   0.20724   0.27302   0.00000  Uiso   1.00
O708   O     0.29276   0.07308   0.72698   0.00000  Uiso   1.00
O709   O     0.20725   0.42692   0.27302   0.00000  Uiso   1.00
O710   O     0.07308   0.20724   0.72698   0.00000  Uiso   1.00
O711   O     0.42693   0.29275   0.27302   0.00000  Uiso   1.00
O712   O     0.45725   0.32307   0.77302   0.00000  Uiso   1.00
O713   O     0.04276   0.17692   0.22698   0.00000  Uiso   1.00
O714   O     0.17693   0.45724   0.77302   0.00000  Uiso   1.00
O715   O     0.00000   0.25000   0.75000   0.00000  Uiso   1.00
O716   O     0.32308   0.04276   0.22698   0.00000  Uiso   1.00
O717   O     0.04276   0.17692   0.77302   0.00000  Uiso   1.00
O718   O     0.45725   0.32307   0.22698   0.00000  Uiso   1.00
O719   O     0.32308   0.04276   0.77302   0.00000  Uiso   1.00
O720   O     0.17693   0.45724   0.22698   0.00000  Uiso   1.00
O721   O     0.45725   0.17693   0.22698   0.00000  Uiso   1.00
O722   O     0.04276   0.32307   0.77302   0.00000  Uiso   1.00
O723   O     0.17693   0.04276   0.22698   0.00000  Uiso   1.00
O724   O     0.32308   0.45724   0.77302   0.00000  Uiso   1.00
O725   O     0.04276   0.32307   0.22698   0.00000  Uiso   1.00
O726   O     0.25000   0.46963   0.33755   0.00000  Uiso   1.00
O727   O     0.45725   0.17693   0.77302   0.00000  Uiso   1.00
O728   O     0.32308   0.45724   0.22698   0.00000  Uiso   1.00
O729   O     0.17693   0.04276   0.77302   0.00000  Uiso   1.00
O730   O     0.00083   0.15027   0.45978   0.00000  Uiso   1.00
O731   O     0.49174   0.34879   0.54097   0.00000  Uiso   1.00
O732   O     0.34884   0.49894   0.46012   0.00000  Uiso   1.00
O733   O     0.14983   0.49219   0.53944   0.00000  Uiso   1.00
O734   O     0.00059   0.34995   0.46259   0.00000  Uiso   1.00
O735   O     0.00679   0.15028   0.53799   0.00000  Uiso   1.00
O736   O     0.14924   0.00053   0.46114   0.00000  Uiso   1.00
O737   O     0.25000   0.03037   0.66245   0.00000  Uiso   1.00
O738   O     0.34958   0.00226   0.53835   0.00000  Uiso   1.00
O739   O     0.24193   0.40091   0.95919   0.00000  Uiso   1.00
O740   O     0.24398   0.09896   0.04097   0.00000  Uiso   1.00
O741   O     0.09998   0.25312   0.96211   0.00000  Uiso   1.00
O742   O     0.40019   0.24457   0.03809   0.00000  Uiso   1.00
O743   O     0.25312   0.09956   0.96128   0.00000  Uiso   1.00
O744   O     0.25053   0.40000   0.03731   0.00000  Uiso   1.00
O745   O     0.40081   0.24962   0.95934   0.00000  Uiso   1.00
O746   O     0.09909   0.26141   0.04047   0.00000  Uiso   1.00
O747   O     0.10456   0.44792   0.24116   0.00000  Uiso   1.00
O748   O     0.03037   0.25000   0.33755   0.00000  Uiso   1.00
O749   O     0.38277   0.06537   0.79951   0.00000  Uiso   1.00
O750   O     0.05168   0.10498   0.23639   0.00000  Uiso   1.00
O751   O     0.44646   0.39362   0.77065   0.00000  Uiso   1.00
O752   O     0.38738   0.06026   0.20913   0.00000  Uiso   1.00
O753   O     0.10649   0.44585   0.77192   0.00000  Uiso   1.00
O754   O     0.44708   0.39522   0.24068   0.00000  Uiso   1.00
O755   O     0.05756   0.10781   0.78073   0.00000  Uiso   1.00
O756   O     0.10483   0.05315   0.76126   0.00000  Uiso   1.00
O757   O     0.39245   0.44239   0.22003   0.00000  Uiso   1.00
O758   O     0.05224   0.39504   0.76174   0.00000  Uiso   1.00
O759   O     0.46964   0.25000   0.66245   0.00000  Uiso   1.00
O760   O     0.43813   0.11419   0.20609   0.00000  Uiso   1.00
O761   O     0.39387   0.44807   0.76281   0.00000  Uiso   1.00
O762   O     0.10560   0.05294   0.23172   0.00000  Uiso   1.00
O763   O     0.43807   0.11435   0.79425   0.00000  Uiso   1.00
O764   O     0.05394   0.39362   0.22938   0.00000  Uiso   1.00
O765   O     0.36145   0.19033   0.71078   0.00000  Uiso   1.00
O766   O     0.14400   0.30403   0.27008   0.00000  Uiso   1.00
O767   O     0.30224   0.35445   0.74275   0.00000  Uiso   1.00
O768   O     0.19254   0.14243   0.28019   0.00000  Uiso   1.00
O769   O     0.14533   0.30208   0.74099   0.00000  Uiso   1.00
O770   O     0.25000   0.03037   0.33755   0.00000  Uiso   1.00
O771   O     0.36329   0.18970   0.29154   0.00000  Uiso   1.00
O772   O     0.19831   0.14490   0.73725   0.00000  Uiso   1.00
O773   O     0.30291   0.35574   0.26798   0.00000  Uiso   1.00
O774   O     0.35493   0.30175   0.26262   0.00000  Uiso   1.00
O775   O     0.14432   0.19694   0.73216   0.00000  Uiso   1.00
O776   O     0.30986   0.13787   0.29019   0.00000  Uiso   1.00
O777   O     0.19583   0.35634   0.72887   0.00000  Uiso   1.00
O778   O     0.14538   0.19701   0.25923   0.00000  Uiso   1.00
O779   O     0.35650   0.30622   0.72360   0.00000  Uiso   1.00
O780   O     0.19825   0.35462   0.25747   0.00000  Uiso   1.00
S781   S     0.46224   0.31739   0.39478   0.00000  Uiso   1.00
S782   S     0.21135   0.43348   0.10527   0.00000  Uiso   1.00
S783   S     0.43848   0.20638   0.89658   0.00000  Uiso   1.00
S784   S     0.06753   0.21606   0.10512   0.00000  Uiso   1.00
S785   S     0.28686   0.43421   0.89486   0.00000  Uiso   1.00
S786   S     0.28860   0.06470   0.10436   0.00000  Uiso   1.00
S787   S     0.06439   0.29219   0.89498   0.00000  Uiso   1.00
S788   S     0.43114   0.28448   0.10616   0.00000  Uiso   1.00
S789   S     0.46438   0.18221   0.60460   0.00000  Uiso   1.00
S790   S     0.18390   0.46066   0.39417   0.00000  Uiso   1.00
S791   S     0.31523   0.46065   0.60474   0.00000  Uiso   1.00
S792   S     0.04235   0.18721   0.39492   0.00000  Uiso   1.00
S793   S     0.03660   0.31600   0.60557   0.00000  Uiso   1.00
S794   S     0.31177   0.04328   0.39661   0.00000  Uiso   1.00
S795   S     0.18193   0.03492   0.60561   0.00000  Uiso   1.00
S796   S     0.21353   0.06799   0.89412   0.00000  Uiso   1.00
Zn797  Zn    0.20660   0.00000   0.21735   0.00000  Uiso   1.00
Zn798  Zn    0.04341   0.25000   0.28265   0.00000  Uiso   1.00
Zn799  Zn    0.25000   0.45659   0.71735   0.00000  Uiso   1.00
Zn800  Zn    0.25000   0.04341   0.28265   0.00000  Uiso   1.00
Zn801  Zn    0.04341   0.25000   0.71735   0.00000  Uiso   1.00
Zn802  Zn    0.45660   0.25000   0.28265   0.00000  Uiso   1.00
Zn803  Zn    0.25000   0.04341   0.71735   0.00000  Uiso   1.00
Zn804  Zn    0.25000   0.45659   0.28265   0.00000  Uiso   1.00
Zn805  Zn    0.29341   0.00000   0.78265   0.00000  Uiso   1.00
Zn806  Zn    0.00000   0.20660   0.21735   0.00000  Uiso   1.00
Zn807  Zn    0.00000   0.29340   0.78265   0.00000  Uiso   1.00
Zn808  Zn    0.29341   0.00000   0.21735   0.00000  Uiso   1.00
Zn809  Zn    0.20660   0.00000   0.78265   0.00000  Uiso   1.00
Zn810  Zn    0.00000   0.29340   0.21735   0.00000  Uiso   1.00
Zn811  Zn    0.00000   0.20660   0.78265   0.00000  Uiso   1.00
Zn812  Zn    0.45660   0.25000   0.71735   0.00000  Uiso   1.00
C813   C     0.98789   0.28209   0.41887   0.00000  Uiso   1.00
C814   C     0.73756   0.46798   0.08111   0.00000  Uiso   1.00
C815   C     0.71601   0.00204   0.54114   0.00000  Uiso   1.00
C816   C     0.99504   0.28354   0.45940   0.00000  Uiso   1.00
C817   C     0.99712   0.21640   0.54062   0.00000  Uiso   1.00
C818   C     0.71583   0.49516   0.45900   0.00000  Uiso   1.00
C819   C     0.78271   0.49598   0.54087   0.00000  Uiso   1.00
C820   C     0.75163   0.46722   0.95848   0.00000  Uiso   1.00
C821   C     0.75220   0.03278   0.04127   0.00000  Uiso   1.00
C822   C     0.53332   0.25711   0.95947   0.00000  Uiso   1.00
C823   C     0.96621   0.25375   0.04093   0.00000  Uiso   1.00
C824   C     0.74529   0.03379   0.95923   0.00000  Uiso   1.00
C825   C     0.97000   0.23736   0.91897   0.00000  Uiso   1.00
C826   C     0.74436   0.46650   0.04052   0.00000  Uiso   1.00
C827   C     0.96749   0.24606   0.95893   0.00000  Uiso   1.00
C828   C     0.53306   0.24970   0.04149   0.00000  Uiso   1.00
C829   C     0.59834   0.34825   0.24995   0.00000  Uiso   1.00
C830   C     0.90146   0.15221   0.75055   0.00000  Uiso   1.00
C831   C     0.65079   0.09745   0.25205   0.00000  Uiso   1.00
C832   C     0.84803   0.40219   0.75067   0.00000  Uiso   1.00
C833   C     0.90169   0.15214   0.24965   0.00000  Uiso   1.00
C834   C     0.59792   0.34802   0.75020   0.00000  Uiso   1.00
C835   C     0.84744   0.40081   0.24788   0.00000  Uiso   1.00
C836   C     0.53154   0.24096   0.08149   0.00000  Uiso   1.00
C837   C     0.65253   0.09833   0.75043   0.00000  Uiso   1.00
C838   C     0.59916   0.15255   0.75217   0.00000  Uiso   1.00
C839   C     0.90163   0.34743   0.24983   0.00000  Uiso   1.00
C840   C     0.65171   0.40174   0.75005   0.00000  Uiso   1.00
C841   C     0.84804   0.09828   0.24992   0.00000  Uiso   1.00
C842   C     0.90212   0.34877   0.74892   0.00000  Uiso   1.00
C843   C     0.59742   0.15160   0.25015   0.00000  Uiso   1.00
C844   C     0.84747   0.09870   0.75102   0.00000  Uiso   1.00
C845   C     0.65208   0.40201   0.24969   0.00000  Uiso   1.00
C846   C     0.99957   0.25019   0.47949   0.00000  Uiso   1.00
C847   C     0.76041   0.46910   0.91851   0.00000  Uiso   1.00
C848   C     0.99963   0.24982   0.52049   0.00000  Uiso   1.00
C849   C     0.74901   0.49962   0.47956   0.00000  Uiso   1.00
C850   C     0.74926   0.49928   0.52051   0.00000  Uiso   1.00
C851   C     0.74822   0.00029   0.97937   0.00000  Uiso   1.00
C852   C     0.74813   0.49985   0.02037   0.00000  Uiso   1.00
C853   C     0.50020   0.25191   0.97973   0.00000  Uiso   1.00
C854   C     0.99981   0.25189   0.02071   0.00000  Uiso   1.00
C855   C     0.96753   0.14610   0.43927   0.00000  Uiso   1.00
C856   C     0.93728   0.13264   0.46632   0.00000  Uiso   1.00
C857   C     0.90356   0.12157   0.44296   0.00000  Uiso   1.00
C858   C     0.76067   0.03079   0.08131   0.00000  Uiso   1.00
C859   C     0.95636   0.34944   0.55758   0.00000  Uiso   1.00
C860   C     0.93091   0.37286   0.53265   0.00000  Uiso   1.00
C861   C     0.89212   0.37228   0.54862   0.00000  Uiso   1.00
C862   C     0.85163   0.46612   0.43834   0.00000  Uiso   1.00
C863   C     0.86293   0.43419   0.46434   0.00000  Uiso   1.00
C864   C     0.86937   0.39975   0.44010   0.00000  Uiso   1.00
C865   C     0.64836   0.45662   0.55526   0.00000  Uiso   1.00
C866   C     0.63291   0.42967   0.52531   0.00000  Uiso   1.00
C867   C     0.62696   0.39225   0.54342   0.00000  Uiso   1.00
C868   C     0.53763   0.35550   0.45326   0.00000  Uiso   1.00
C869   C     0.53143   0.26396   0.91894   0.00000  Uiso   1.00
C870   C     0.54222   0.39452   0.43880   0.00000  Uiso   1.00
C871   C     0.58138   0.40182   0.42626   0.00000  Uiso   1.00
C872   C     0.54265   0.14784   0.55327   0.00000  Uiso   1.00
C873   C     0.56897   0.13240   0.52262   0.00000  Uiso   1.00
C874   C     0.60627   0.12413   0.54037   0.00000  Uiso   1.00
C875   C     0.64434   0.03691   0.44887   0.00000  Uiso   1.00
C876   C     0.60630   0.04081   0.43101   0.00000  Uiso   1.00
C877   C     0.60023   0.07877   0.41412   0.00000  Uiso   1.00
C878   C     0.85305   0.03576   0.55863   0.00000  Uiso   1.00
C879   C     0.86715   0.06567   0.53160   0.00000  Uiso   1.00
C880   C     0.96723   0.26039   0.08155   0.00000  Uiso   1.00
C881   C     0.87774   0.09960   0.55485   0.00000  Uiso   1.00
C882   C     0.70814   0.40051   0.93901   0.00000  Uiso   1.00
C883   C     0.67711   0.38856   0.96588   0.00000  Uiso   1.00
C884   C     0.64132   0.38551   0.94323   0.00000  Uiso   1.00
C885   C     0.70781   0.10199   0.05509   0.00000  Uiso   1.00
C886   C     0.68311   0.12001   0.02454   0.00000  Uiso   1.00
C887   C     0.64548   0.12857   0.04124   0.00000  Uiso   1.00
C888   C     0.60564   0.21670   0.95002   0.00000  Uiso   1.00
C889   C     0.64352   0.21347   0.93174   0.00000  Uiso   1.00
C890   C     0.65052   0.17527   0.91559   0.00000  Uiso   1.00
C891   C     0.50018   0.25081   0.39826   0.00000  Uiso   1.00
C892   C     0.89562   0.20723   0.04617   0.00000  Uiso   1.00
C893   C     0.85893   0.20198   0.06638   0.00000  Uiso   1.00
C894   C     0.85335   0.16238   0.07813   0.00000  Uiso   1.00
C895   C     0.78948   0.11160   0.96547   0.00000  Uiso   1.00
C896   C     0.79642   0.14175   0.93582   0.00000  Uiso   1.00
C897   C     0.83460   0.15758   0.94035   0.00000  Uiso   1.00
C898   C     0.78697   0.39560   0.04997   0.00000  Uiso   1.00
C899   C     0.79139   0.35748   0.06719   0.00000  Uiso   1.00
C900   C     0.82914   0.35205   0.08512   0.00000  Uiso   1.00
C901   C     0.89484   0.28499   0.94419   0.00000  Uiso   1.00
C902   C     0.99994   0.24943   0.60177   0.00000  Uiso   1.00
C903   C     0.87464   0.30886   0.97400   0.00000  Uiso   1.00
C904   C     0.86283   0.34508   0.95619   0.00000  Uiso   1.00
C905   C     0.59869   0.29544   0.06019   0.00000  Uiso   1.00
C906   C     0.61053   0.32621   0.03300   0.00000  Uiso   1.00
C907   C     0.61308   0.36230   0.05516   0.00000  Uiso   1.00
C908   C     0.60458   0.46447   0.27863   0.00000  Uiso   1.00
C909   C     0.56681   0.46204   0.29735   0.00000  Uiso   1.00
C910   C     0.56721   0.47838   0.33835   0.00000  Uiso   1.00
C911   C     0.86886   0.07470   0.83669   0.00000  Uiso   1.00
C912   C     0.86693   0.04018   0.86142   0.00000  Uiso   1.00
C913   C     0.74888   0.00044   0.39830   0.00000  Uiso   1.00
C914   C     0.84728   0.04713   0.89995   0.00000  Uiso   1.00
C915   C     0.53142   0.10466   0.27156   0.00000  Uiso   1.00
C916   C     0.53615   0.06842   0.29303   0.00000  Uiso   1.00
C917   C     0.50946   0.06561   0.32703   0.00000  Uiso   1.00
C918   C     0.94805   0.39954   0.81144   0.00000  Uiso   1.00
C919   C     0.98789   0.40349   0.82382   0.00000  Uiso   1.00
C920   C     0.99147   0.40977   0.86769   0.00000  Uiso   1.00
C921   C     0.91358   0.03852   0.22884   0.00000  Uiso   1.00
C922   C     0.94253   0.02569   0.19964   0.00000  Uiso   1.00
C923   C     0.96897   0.49861   0.21804   0.00000  Uiso   1.00
C924   C     0.98964   0.21764   0.58104   0.00000  Uiso   1.00
C925   C     0.74965   0.49955   0.60174   0.00000  Uiso   1.00
C926   C     0.60249   0.44638   0.81297   0.00000  Uiso   1.00
C927   C     0.60260   0.48580   0.82733   0.00000  Uiso   1.00
C928   C     0.60092   0.48762   0.87178   0.00000  Uiso   1.00
C929   C     0.96354   0.39382   0.27826   0.00000  Uiso   1.00
C930   C     0.96224   0.43123   0.29815   0.00000  Uiso   1.00
C931   C     0.97343   0.42877   0.34099   0.00000  Uiso   1.00
C932   C     0.55768   0.11685   0.82110   0.00000  Uiso   1.00
C933   C     0.57106   0.08500   0.84614   0.00000  Uiso   1.00
C934   C     0.56775   0.09418   0.88951   0.00000  Uiso   1.00
C935   C     0.60447   0.03633   0.72385   0.00000  Uiso   1.00
C936   C     0.74997   0.00089   0.89818   0.00000  Uiso   1.00
C937   C     0.56679   0.03976   0.70475   0.00000  Uiso   1.00
C938   C     0.56737   0.02579   0.66273   0.00000  Uiso   1.00
C939   C     0.88377   0.44235   0.17959   0.00000  Uiso   1.00
C940   C     0.91608   0.42949   0.15479   0.00000  Uiso   1.00
C941   C     0.90764   0.43369   0.11136   0.00000  Uiso   1.00
C942   C     0.53486   0.39795   0.72489   0.00000  Uiso   1.00
C943   C     0.52686   0.43801   0.71612   0.00000  Uiso   1.00
C944   C     0.50695   0.44226   0.67724   0.00000  Uiso   1.00
C945   C     0.93220   0.12498   0.16703   0.00000  Uiso   1.00
C946   C     0.96876   0.12417   0.14553   0.00000  Uiso   1.00
C947   C     0.74965   0.49930   0.10168   0.00000  Uiso   1.00
C948   C     0.96604   0.14227   0.10564   0.00000  Uiso   1.00
C949   C     0.90881   0.46169   0.72780   0.00000  Uiso   1.00
C950   C     0.90282   0.00285   0.72667   0.00000  Uiso   1.00
C951   C     0.92048   0.01991   0.69088   0.00000  Uiso   1.00
C952   C     0.59771   0.04943   0.19136   0.00000  Uiso   1.00
C953   C     0.56431   0.02506   0.18615   0.00000  Uiso   1.00
C954   C     0.55687   0.01702   0.14315   0.00000  Uiso   1.00
C955   C     0.96044   0.08737   0.77655   0.00000  Uiso   1.00
C956   C     0.97120   0.05888   0.80708   0.00000  Uiso   1.00
C957   C     0.99664   0.02993   0.79008   0.00000  Uiso   1.00
C958   C     0.50071   0.25032   0.89841   0.00000  Uiso   1.00
C959   C     0.55323   0.39832   0.18842   0.00000  Uiso   1.00
C960   C     0.51383   0.39671   0.17409   0.00000  Uiso   1.00
C961   C     0.51195   0.39859   0.12966   0.00000  Uiso   1.00
C962   C     0.83660   0.21196   0.73265   0.00000  Uiso   1.00
C963   C     0.80502   0.22394   0.70627   0.00000  Uiso   1.00
C964   C     0.78021   0.25130   0.72677   0.00000  Uiso   1.00
C965   C     0.65011   0.30375   0.31085   0.00000  Uiso   1.00
C966   C     0.64941   0.26454   0.32543   0.00000  Uiso   1.00
C967   C     0.65405   0.26321   0.36966   0.00000  Uiso   1.00
C968   C     0.78588   0.35761   0.78024   0.00000  Uiso   1.00
C969   C     0.99929   0.25006   0.10187   0.00000  Uiso   1.00
C970   C     0.78746   0.32127   0.80201   0.00000  Uiso   1.00
C971   C     0.77718   0.32591   0.84490   0.00000  Uiso   1.00
C972   C     0.69268   0.13365   0.32055   0.00000  Uiso   1.00
C973   C     0.67989   0.16584   0.34562   0.00000  Uiso   1.00
C974   C     0.68352   0.15695   0.38898   0.00000  Uiso   1.00
C975   C     0.64603   0.28605   0.77859   0.00000  Uiso   1.00
C976   C     0.68410   0.28894   0.79675   0.00000  Uiso   1.00
C977   C     0.68442   0.27374   0.83814   0.00000  Uiso   1.00
C978   C     0.87207   0.18532   0.33145   0.00000  Uiso   1.00
C979   C     0.87262   0.22302   0.35076   0.00000  Uiso   1.00
C980   C     0.50214   0.18370   0.47874   0.00000  Uiso   1.00
C981   C     0.88440   0.22105   0.39340   0.00000  Uiso   1.00
C982   C     0.71827   0.14535   0.77272   0.00000  Uiso   1.00
C983   C     0.71311   0.18154   0.79450   0.00000  Uiso   1.00
C984   C     0.73979   0.18470   0.82861   0.00000  Uiso   1.00
C985   C     0.79966   0.34772   0.30826   0.00000  Uiso   1.00
C986   C     0.77583   0.31396   0.31317   0.00000  Uiso   1.00
C987   C     0.76851   0.30608   0.35614   0.00000  Uiso   1.00
C988   C     0.85433   0.28201   0.22699   0.00000  Uiso   1.00
C989   C     0.81738   0.28607   0.20649   0.00000  Uiso   1.00
C990   C     0.81458   0.26029   0.17155   0.00000  Uiso   1.00
C991   C     0.99753   0.31615   0.52145   0.00000  Uiso   1.00
C992   C     0.65310   0.20027   0.69206   0.00000  Uiso   1.00
C993   C     0.68734   0.22359   0.68801   0.00000  Uiso   1.00
C994   C     0.69619   0.23116   0.64533   0.00000  Uiso   1.00
C995   C     0.78783   0.16362   0.27020   0.00000  Uiso   1.00
C996   C     0.77493   0.19282   0.29914   0.00000  Uiso   1.00
C997   C     0.74762   0.21890   0.28056   0.00000  Uiso   1.00
C998   C     0.69618   0.35130   0.68793   0.00000  Uiso   1.00
C999   C     0.73548   0.35262   0.67352   0.00000  Uiso   1.00
C1000  C     0.73718   0.34943   0.62915   0.00000  Uiso   1.00
C1001  C     0.64334   0.21333   0.22169   0.00000  Uiso   1.00
C1002  C     0.81553   0.00120   0.47922   0.00000  Uiso   1.00
C1003  C     0.68058   0.21250   0.20157   0.00000  Uiso   1.00
C1004  C     0.67745   0.22312   0.15866   0.00000  Uiso   1.00
C1005  C     0.86400   0.30426   0.68300   0.00000  Uiso   1.00
C1006  C     0.83090   0.31545   0.65850   0.00000  Uiso   1.00
C1007  C     0.83717   0.30611   0.61559   0.00000  Uiso   1.00
C1008  C     0.71416   0.35469   0.21977   0.00000  Uiso   1.00
C1009  C     0.71137   0.31699   0.20077   0.00000  Uiso   1.00
C1010  C     0.72655   0.31746   0.15932   0.00000  Uiso   1.00
C1011  C     0.81455   0.12845   0.66854   0.00000  Uiso   1.00
C1012  C     0.77676   0.12858   0.64941   0.00000  Uiso   1.00
C1013  C     0.68277   0.49748   0.52057   0.00000  Uiso   1.00
C1014  C     0.77854   0.11788   0.60643   0.00000  Uiso   1.00
C1015  C     0.99714   0.31659   0.48074   0.00000  Uiso   1.00
C1016  C     0.71772   0.48786   0.41851   0.00000  Uiso   1.00
C1017  C     0.50170   0.18343   0.51953   0.00000  Uiso   1.00
C1018  C     0.68258   0.49736   0.47981   0.00000  Uiso   1.00
C1019  C     0.81592   0.49991   0.52001   0.00000  Uiso   1.00
C1020  C     0.74683   0.43387   0.97843   0.00000  Uiso   1.00
C1021  C     0.74860   0.06622   0.02128   0.00000  Uiso   1.00
C1022  C     0.56654   0.25579   0.98057   0.00000  Uiso   1.00
C1023  C     0.93334   0.24935   0.01969   0.00000  Uiso   1.00
C1024  C     0.74872   0.06672   0.98042   0.00000  Uiso   1.00
C1025  C     0.74684   0.43342   0.01919   0.00000  Uiso   1.00
C1026  C     0.93387   0.24822   0.97893   0.00000  Uiso   1.00
C1027  C     0.78116   0.48814   0.58116   0.00000  Uiso   1.00
C1028  C     0.56623   0.25558   0.02135   0.00000  Uiso   1.00
C1029  C     0.74955   0.00010   0.35585   0.00000  Uiso   1.00
C1030  C     0.74996   0.49990   0.64417   0.00000  Uiso   1.00
C1031  C     0.50004   0.25050   0.35584   0.00000  Uiso   1.00
C1032  C     0.99997   0.24957   0.64417   0.00000  Uiso   1.00
C1033  C     0.50034   0.25007   0.85589   0.00000  Uiso   1.00
C1034  C     0.99959   0.24997   0.14422   0.00000  Uiso   1.00
C1035  C     0.75002   0.00051   0.85581   0.00000  Uiso   1.00
C1036  C     0.74994   0.49960   0.14413   0.00000  Uiso   1.00
C1037  C     0.67953   0.06978   0.25066   0.00000  Uiso   1.00
C1038  C     0.51288   0.21971   0.41852   0.00000  Uiso   1.00
C1039  C     0.82016   0.43023   0.74984   0.00000  Uiso   1.00
C1040  C     0.92988   0.18002   0.24987   0.00000  Uiso   1.00
C1041  C     0.56989   0.32010   0.74992   0.00000  Uiso   1.00
C1042  C     0.81976   0.42957   0.24932   0.00000  Uiso   1.00
C1043  C     0.68011   0.06998   0.75001   0.00000  Uiso   1.00
C1044  C     0.57014   0.32009   0.25002   0.00000  Uiso   1.00
C1045  C     0.92982   0.18003   0.75010   0.00000  Uiso   1.00
C1046  C     0.67988   0.42988   0.74998   0.00000  Uiso   1.00
C1047  C     0.82005   0.07011   0.25001   0.00000  Uiso   1.00
C1048  C     0.93006   0.32030   0.74964   0.00000  Uiso   1.00
C1049  C     0.51029   0.28126   0.58165   0.00000  Uiso   1.00
C1050  C     0.56984   0.17993   0.25003   0.00000  Uiso   1.00
C1051  C     0.81984   0.07024   0.75037   0.00000  Uiso   1.00
C1052  C     0.68004   0.43001   0.24989   0.00000  Uiso   1.00
C1053  C     0.57043   0.18024   0.75064   0.00000  Uiso   1.00
C1054  C     0.92995   0.31982   0.24998   0.00000  Uiso   1.00
C1055  C     0.61528   0.41179   0.24425   0.00000  Uiso   1.00
C1056  C     0.87857   0.09485   0.77489   0.00000  Uiso   1.00
C1057  C     0.58752   0.11500   0.24362   0.00000  Uiso   1.00
C1058  C     0.91105   0.38461   0.76041   0.00000  Uiso   1.00
C1059  C     0.88099   0.09235   0.22953   0.00000  Uiso   1.00
C1060  C     0.77957   0.01336   0.41912   0.00000  Uiso   1.00
C1061  C     0.61559   0.41078   0.76054   0.00000  Uiso   1.00
C1062  C     0.91104   0.38393   0.24281   0.00000  Uiso   1.00
C1063  C     0.59092   0.11678   0.76461   0.00000  Uiso   1.00
C1064  C     0.61606   0.08908   0.75803   0.00000  Uiso   1.00
C1065  C     0.88338   0.40905   0.23593   0.00000  Uiso   1.00
C1066  C     0.58827   0.38462   0.75695   0.00000  Uiso   1.00
C1067  C     0.90659   0.12015   0.22736   0.00000  Uiso   1.00
C1068  C     0.88451   0.41190   0.75751   0.00000  Uiso   1.00
C1069  C     0.61492   0.08856   0.24061   0.00000  Uiso   1.00
C1070  C     0.90672   0.12001   0.77233   0.00000  Uiso   1.00
C1071  C     0.71762   0.00990   0.58146   0.00000  Uiso   1.00
C1072  C     0.58914   0.38448   0.24030   0.00000  Uiso   1.00
C1073  C     0.86848   0.15792   0.73004   0.00000  Uiso   1.00
C1074  C     0.63473   0.33914   0.25926   0.00000  Uiso   1.00
C1075  C     0.83838   0.36562   0.74436   0.00000  Uiso   1.00
C1076  C     0.65911   0.13338   0.26413   0.00000  Uiso   1.00
C1077  C     0.63462   0.33823   0.74405   0.00000  Uiso   1.00
C1078  C     0.86966   0.15733   0.27176   0.00000  Uiso   1.00
C1079  C     0.66242   0.13489   0.74396   0.00000  Uiso   1.00
C1080  C     0.83854   0.36499   0.25913   0.00000  Uiso   1.00
C1081  C     0.86499   0.33760   0.25607   0.00000  Uiso   1.00
C1082  C     0.73868   0.03260   0.91860   0.00000  Uiso   1.00
C1083  C     0.63502   0.16133   0.74084   0.00000  Uiso   1.00
C1084  C     0.84199   0.13145   0.26997   0.00000  Uiso   1.00
C1085  C     0.66073   0.36552   0.73999   0.00000  Uiso   1.00
C1086  C     0.63399   0.16100   0.25721   0.00000  Uiso   1.00
C1087  C     0.86593   0.34025   0.73773   0.00000  Uiso   1.00
C1088  C     0.66201   0.36527   0.25497   0.00000  Uiso   1.00
C1089  C     0.84268   0.13020   0.72817   0.00000  Uiso   1.00
C1090  C     0.50459   0.21729   0.45859   0.00000  Uiso   1.00
C1091  C     0.50238   0.28290   0.54144   0.00000  Uiso   1.00
C1092  C     0.78192   0.00466   0.45905   0.00000  Uiso   1.00
H1093  H     0.97218   0.12528   0.41616   0.00000  Uiso   1.00
H1094  H     0.94099   0.40138   0.53233   0.00000  Uiso   1.00
H1095  H     0.92035   0.29870   0.93440   0.00000  Uiso   1.00
H1096  H     0.85011   0.29426   0.98465   0.00000  Uiso   1.00
H1097  H     0.89279   0.31444   0.99929   0.00000  Uiso   1.00
H1098  H     0.88699   0.36037   0.94574   0.00000  Uiso   1.00
H1099  H     0.84857   0.36177   0.97858   0.00000  Uiso   1.00
H1100  H     0.84387   0.34035   0.93137   0.00000  Uiso   1.00
H1101  H     0.61862   0.29364   0.08458   0.00000  Uiso   1.00
H1102  H     0.57189   0.30226   0.07372   0.00000  Uiso   1.00
H1103  H     0.63758   0.31950   0.02017   0.00000  Uiso   1.00
H1104  H     0.59042   0.32913   0.00891   0.00000  Uiso   1.00
H1105  H     0.93069   0.36237   0.50221   0.00000  Uiso   1.00
H1106  H     0.58604   0.36992   0.06735   0.00000  Uiso   1.00
H1107  H     0.62203   0.38418   0.03514   0.00000  Uiso   1.00
H1108  H     0.63318   0.36008   0.07935   0.00000  Uiso   1.00
H1109  H     0.61154   0.49365   0.27492   0.00000  Uiso   1.00
H1110  H     0.62558   0.45307   0.29887   0.00000  Uiso   1.00
H1111  H     0.54663   0.47688   0.27903   0.00000  Uiso   1.00
H1112  H     0.55834   0.43308   0.29932   0.00000  Uiso   1.00
H1113  H     0.58643   0.46299   0.35722   0.00000  Uiso   1.00
H1114  H     0.53956   0.47689   0.35130   0.00000  Uiso   1.00
H1115  H     0.57583   0.00732   0.33743   0.00000  Uiso   1.00
H1116  H     0.88038   0.34463   0.54507   0.00000  Uiso   1.00
H1117  H     0.84088   0.08665   0.83448   0.00000  Uiso   1.00
H1118  H     0.88715   0.09468   0.85138   0.00000  Uiso   1.00
H1119  H     0.85214   0.01868   0.84497   0.00000  Uiso   1.00
H1120  H     0.89500   0.03009   0.86747   0.00000  Uiso   1.00
H1121  H     0.86211   0.06795   0.91734   0.00000  Uiso   1.00
H1122  H     0.84610   0.02149   0.91699   0.00000  Uiso   1.00
H1123  H     0.81892   0.05665   0.89447   0.00000  Uiso   1.00
H1124  H     0.50221   0.10807   0.26360   0.00000  Uiso   1.00
H1125  H     0.53820   0.12765   0.29161   0.00000  Uiso   1.00
H1126  H     0.53144   0.04546   0.27249   0.00000  Uiso   1.00
H1127  H     0.87483   0.39170   0.53223   0.00000  Uiso   1.00
H1128  H     0.56446   0.06629   0.30444   0.00000  Uiso   1.00
H1129  H     0.51421   0.08801   0.34832   0.00000  Uiso   1.00
H1130  H     0.51331   0.03923   0.34216   0.00000  Uiso   1.00
H1131  H     0.98089   0.06710   0.31623   0.00000  Uiso   1.00
H1132  H     0.93604   0.37616   0.82763   0.00000  Uiso   1.00
H1133  H     0.93319   0.42498   0.81950   0.00000  Uiso   1.00
H1134  H     0.50306   0.37827   0.81585   0.00000  Uiso   1.00
H1135  H     0.50021   0.42691   0.80827   0.00000  Uiso   1.00
H1136  H     0.97694   0.43515   0.87638   0.00000  Uiso   1.00
H1137  H     0.52074   0.41253   0.87552   0.00000  Uiso   1.00
H1138  H     0.89181   0.38025   0.57994   0.00000  Uiso   1.00
H1139  H     0.97997   0.38635   0.88395   0.00000  Uiso   1.00
H1140  H     0.89935   0.01443   0.24097   0.00000  Uiso   1.00
H1141  H     0.92760   0.05246   0.25374   0.00000  Uiso   1.00
H1142  H     0.92910   0.01279   0.17405   0.00000  Uiso   1.00
H1143  H     0.95832   0.04936   0.18908   0.00000  Uiso   1.00
H1144  H     0.98268   0.01095   0.24375   0.00000  Uiso   1.00
H1145  H     0.98995   0.49041   0.19642   0.00000  Uiso   1.00
H1146  H     0.95416   0.47389   0.22720   0.00000  Uiso   1.00
H1147  H     0.62536   0.43163   0.82778   0.00000  Uiso   1.00
H1148  H     0.57618   0.43359   0.82137   0.00000  Uiso   1.00
H1149  H     0.87310   0.47013   0.41595   0.00000  Uiso   1.00
H1150  H     0.62792   0.49944   0.81739   0.00000  Uiso   1.00
H1151  H     0.57877   0.00050   0.81480   0.00000  Uiso   1.00
H1152  H     0.57492   0.47583   0.88238   0.00000  Uiso   1.00
H1153  H     0.60259   0.01641   0.88143   0.00000  Uiso   1.00
H1154  H     0.62425   0.47253   0.88482   0.00000  Uiso   1.00
H1155  H     0.99256   0.38577   0.27449   0.00000  Uiso   1.00
H1156  H     0.95142   0.37305   0.29803   0.00000  Uiso   1.00
H1157  H     0.98126   0.44990   0.28308   0.00000  Uiso   1.00
H1158  H     0.93418   0.44270   0.29637   0.00000  Uiso   1.00
H1159  H     0.95400   0.41138   0.35729   0.00000  Uiso   1.00
H1160  H     0.82628   0.45914   0.42209   0.00000  Uiso   1.00
H1161  H     0.97318   0.45642   0.35425   0.00000  Uiso   1.00
H1162  H     0.50134   0.41712   0.34360   0.00000  Uiso   1.00
H1163  H     0.52914   0.12346   0.82950   0.00000  Uiso   1.00
H1164  H     0.57408   0.14163   0.82812   0.00000  Uiso   1.00
H1165  H     0.55462   0.06039   0.83975   0.00000  Uiso   1.00
H1166  H     0.60007   0.07891   0.83936   0.00000  Uiso   1.00
H1167  H     0.58438   0.11851   0.89679   0.00000  Uiso   1.00
H1168  H     0.57765   0.07099   0.90733   0.00000  Uiso   1.00
H1169  H     0.53881   0.09967   0.89720   0.00000  Uiso   1.00
H1170  H     0.61074   0.00695   0.72778   0.00000  Uiso   1.00
H1171  H     0.88835   0.44119   0.48039   0.00000  Uiso   1.00
H1172  H     0.62571   0.04692   0.70362   0.00000  Uiso   1.00
H1173  H     0.54676   0.02360   0.72155   0.00000  Uiso   1.00
H1174  H     0.55788   0.06873   0.70476   0.00000  Uiso   1.00
H1175  H     0.58618   0.04243   0.64480   0.00000  Uiso   1.00
H1176  H     0.53955   0.02779   0.65002   0.00000  Uiso   1.00
H1177  H     0.57633   0.49685   0.66179   0.00000  Uiso   1.00
H1178  H     0.87688   0.47082   0.17138   0.00000  Uiso   1.00
H1179  H     0.85925   0.42570   0.17219   0.00000  Uiso   1.00
H1180  H     0.94059   0.44581   0.16201   0.00000  Uiso   1.00
H1181  H     0.92207   0.40039   0.16100   0.00000  Uiso   1.00
H1182  H     0.84099   0.42883   0.48588   0.00000  Uiso   1.00
H1183  H     0.88345   0.41720   0.10322   0.00000  Uiso   1.00
H1184  H     0.93119   0.42424   0.09370   0.00000  Uiso   1.00
H1185  H     0.90222   0.46274   0.10433   0.00000  Uiso   1.00
H1186  H     0.50862   0.38299   0.72646   0.00000  Uiso   1.00
H1187  H     0.55050   0.38563   0.70009   0.00000  Uiso   1.00
H1188  H     0.50979   0.44984   0.73979   0.00000  Uiso   1.00
H1189  H     0.55292   0.45328   0.71498   0.00000  Uiso   1.00
H1190  H     0.52428   0.43207   0.65295   0.00000  Uiso   1.00
H1191  H     0.50075   0.47148   0.67217   0.00000  Uiso   1.00
H1192  H     0.98091   0.42688   0.67751   0.00000  Uiso   1.00
H1193  H     0.84431   0.39246   0.42359   0.00000  Uiso   1.00
H1194  H     0.92071   0.15316   0.16556   0.00000  Uiso   1.00
H1195  H     0.91304   0.10591   0.15223   0.00000  Uiso   1.00
H1196  H     0.98968   0.13871   0.16316   0.00000  Uiso   1.00
H1197  H     0.97790   0.09547   0.14173   0.00000  Uiso   1.00
H1198  H     0.94423   0.12937   0.08783   0.00000  Uiso   1.00
H1199  H     0.99240   0.13932   0.09002   0.00000  Uiso   1.00
H1200  H     0.96009   0.17176   0.10929   0.00000  Uiso   1.00
H1201  H     0.89586   0.44970   0.70113   0.00000  Uiso   1.00
H1202  H     0.93857   0.45579   0.72727   0.00000  Uiso   1.00
H1203  H     0.87306   0.00866   0.72607   0.00000  Uiso   1.00
H1204  H     0.95855   0.17128   0.42401   0.00000  Uiso   1.00
H1205  H     0.87653   0.37672   0.45956   0.00000  Uiso   1.00
H1206  H     0.91454   0.01530   0.75344   0.00000  Uiso   1.00
H1207  H     0.95053   0.01611   0.69193   0.00000  Uiso   1.00
H1208  H     0.91435   0.04956   0.69036   0.00000  Uiso   1.00
H1209  H     0.90957   0.00736   0.66372   0.00000  Uiso   1.00
H1210  H     0.62150   0.03635   0.17684   0.00000  Uiso   1.00
H1211  H     0.59229   0.07581   0.17617   0.00000  Uiso   1.00
H1212  H     0.56868   0.49893   0.20174   0.00000  Uiso   1.00
H1213  H     0.54009   0.03884   0.19897   0.00000  Uiso   1.00
H1214  H     0.55148   0.04274   0.12712   0.00000  Uiso   1.00
H1215  H     0.53259   0.49920   0.14039   0.00000  Uiso   1.00
H1216  H     0.89214   0.40397   0.41927   0.00000  Uiso   1.00
H1217  H     0.58059   0.00276   0.12982   0.00000  Uiso   1.00
H1218  H     0.98546   0.10087   0.76563   0.00000  Uiso   1.00
H1219  H     0.94773   0.07327   0.75104   0.00000  Uiso   1.00
H1220  H     0.98488   0.07250   0.83210   0.00000  Uiso   1.00
H1221  H     0.94646   0.04519   0.81829   0.00000  Uiso   1.00
H1222  H     0.98362   0.01602   0.76483   0.00000  Uiso   1.00
H1223  H     0.50304   0.00926   0.81269   0.00000  Uiso   1.00
H1224  H     0.52246   0.04267   0.78057   0.00000  Uiso   1.00
H1225  H     0.56898   0.37645   0.17300   0.00000  Uiso   1.00
H1226  H     0.56487   0.42531   0.18068   0.00000  Uiso   1.00
H1227  H     0.62968   0.45764   0.58074   0.00000  Uiso   1.00
H1228  H     0.50119   0.37083   0.18377   0.00000  Uiso   1.00
H1229  H     0.99818   0.41979   0.18688   0.00000  Uiso   1.00
H1230  H     0.52222   0.42529   0.11931   0.00000  Uiso   1.00
H1231  H     0.98330   0.39526   0.12000   0.00000  Uiso   1.00
H1232  H     0.52838   0.37629   0.11635   0.00000  Uiso   1.00
H1233  H     0.85145   0.23640   0.74325   0.00000  Uiso   1.00
H1234  H     0.82503   0.19829   0.75896   0.00000  Uiso   1.00
H1235  H     0.81592   0.23617   0.67914   0.00000  Uiso   1.00
H1236  H     0.78835   0.20008   0.69789   0.00000  Uiso   1.00
H1237  H     0.76893   0.23941   0.75388   0.00000  Uiso   1.00
H1238  H     0.67515   0.44664   0.56656   0.00000  Uiso   1.00
H1239  H     0.75740   0.25914   0.70719   0.00000  Uiso   1.00
H1240  H     0.79569   0.27616   0.73415   0.00000  Uiso   1.00
H1241  H     0.62858   0.31939   0.32688   0.00000  Uiso   1.00
H1242  H     0.67726   0.31570   0.31767   0.00000  Uiso   1.00
H1243  H     0.62296   0.25182   0.31744   0.00000  Uiso   1.00
H1244  H     0.67171   0.24876   0.31133   0.00000  Uiso   1.00
H1245  H     0.68124   0.27387   0.37820   0.00000  Uiso   1.00
H1246  H     0.65170   0.23470   0.37972   0.00000  Uiso   1.00
H1247  H     0.63241   0.27956   0.38426   0.00000  Uiso   1.00
H1248  H     0.75680   0.36530   0.77609   0.00000  Uiso   1.00
H1249  H     0.60648   0.44016   0.51392   0.00000  Uiso   1.00
H1250  H     0.79793   0.37940   0.79896   0.00000  Uiso   1.00
H1251  H     0.76801   0.30198   0.78835   0.00000  Uiso   1.00
H1252  H     0.81542   0.30956   0.80025   0.00000  Uiso   1.00
H1253  H     0.79699   0.34404   0.85992   0.00000  Uiso   1.00
H1254  H     0.77771   0.29896   0.85950   0.00000  Uiso   1.00
H1255  H     0.74932   0.33768   0.84753   0.00000  Uiso   1.00
H1256  H     0.72121   0.12676   0.32878   0.00000  Uiso   1.00
H1257  H     0.67603   0.10914   0.32769   0.00000  Uiso   1.00
H1258  H     0.69652   0.19023   0.33905   0.00000  Uiso   1.00
H1259  H     0.65091   0.17214   0.33895   0.00000  Uiso   1.00
H1260  H     0.65219   0.42678   0.50052   0.00000  Uiso   1.00
H1261  H     0.66687   0.13274   0.39634   0.00000  Uiso   1.00
H1262  H     0.67383   0.18028   0.40689   0.00000  Uiso   1.00
H1263  H     0.71250   0.15141   0.39652   0.00000  Uiso   1.00
H1264  H     0.63919   0.25677   0.77521   0.00000  Uiso   1.00
H1265  H     0.62527   0.29760   0.79904   0.00000  Uiso   1.00
H1266  H     0.70395   0.27358   0.77847   0.00000  Uiso   1.00
H1267  H     0.69269   0.31791   0.79796   0.00000  Uiso   1.00
H1268  H     0.66631   0.29026   0.85730   0.00000  Uiso   1.00
H1269  H     0.71251   0.27474   0.85014   0.00000  Uiso   1.00
H1270  H     0.67496   0.24504   0.83816   0.00000  Uiso   1.00
H1271  H     0.65324   0.38089   0.55418   0.00000  Uiso   1.00
H1272  H     0.89946   0.17240   0.33527   0.00000  Uiso   1.00
H1273  H     0.85119   0.16822   0.34607   0.00000  Uiso   1.00
H1274  H     0.89181   0.24091   0.33477   0.00000  Uiso   1.00
H1275  H     0.84503   0.23556   0.34913   0.00000  Uiso   1.00
H1276  H     0.86530   0.20371   0.41015   0.00000  Uiso   1.00
H1277  H     0.88420   0.24883   0.40634   0.00000  Uiso   1.00
H1278  H     0.91248   0.20984   0.39563   0.00000  Uiso   1.00
H1279  H     0.74757   0.14217   0.76511   0.00000  Uiso   1.00
H1280  H     0.71152   0.12228   0.79245   0.00000  Uiso   1.00
H1281  H     0.71750   0.20456   0.77417   0.00000  Uiso   1.00
H1282  H     0.61555   0.37337   0.52118   0.00000  Uiso   1.00
H1283  H     0.68478   0.18337   0.80584   0.00000  Uiso   1.00
H1284  H     0.73520   0.16238   0.84981   0.00000  Uiso   1.00
H1285  H     0.73574   0.21110   0.84385   0.00000  Uiso   1.00
H1286  H     0.76837   0.18339   0.81794   0.00000  Uiso   1.00
H1287  H     0.78622   0.37125   0.32294   0.00000  Uiso   1.00
H1288  H     0.82621   0.34277   0.32351   0.00000  Uiso   1.00
H1289  H     0.74940   0.31806   0.29788   0.00000  Uiso   1.00
H1290  H     0.78980   0.29005   0.29990   0.00000  Uiso   1.00
H1291  H     0.79459   0.30115   0.37187   0.00000  Uiso   1.00
H1292  H     0.75128   0.28141   0.35871   0.00000  Uiso   1.00
H1293  H     0.60747   0.39430   0.56812   0.00000  Uiso   1.00
H1294  H     0.75391   0.32938   0.36991   0.00000  Uiso   1.00
H1295  H     0.85869   0.25281   0.23420   0.00000  Uiso   1.00
H1296  H     0.87666   0.28966   0.20659   0.00000  Uiso   1.00
H1297  H     0.79513   0.27998   0.22733   0.00000  Uiso   1.00
H1298  H     0.81394   0.31456   0.19624   0.00000  Uiso   1.00
H1299  H     0.83586   0.26684   0.14967   0.00000  Uiso   1.00
H1300  H     0.78742   0.26323   0.15757   0.00000  Uiso   1.00
H1301  H     0.81791   0.23155   0.18105   0.00000  Uiso   1.00
H1302  H     0.63001   0.21416   0.67712   0.00000  Uiso   1.00
H1303  H     0.65787   0.17377   0.67665   0.00000  Uiso   1.00
H1304  H     0.54630   0.33625   0.42980   0.00000  Uiso   1.00
H1305  H     0.68336   0.24992   0.70354   0.00000  Uiso   1.00
H1306  H     0.71082   0.20916   0.70155   0.00000  Uiso   1.00
H1307  H     0.70111   0.20519   0.62938   0.00000  Uiso   1.00
H1308  H     0.72118   0.24808   0.64354   0.00000  Uiso   1.00
H1309  H     0.67336   0.24618   0.63126   0.00000  Uiso   1.00
H1310  H     0.76375   0.14907   0.25819   0.00000  Uiso   1.00
H1311  H     0.80157   0.17736   0.24517   0.00000  Uiso   1.00
H1312  H     0.76226   0.17968   0.32487   0.00000  Uiso   1.00
H1313  H     0.79854   0.20889   0.30954   0.00000  Uiso   1.00
H1314  H     0.75956   0.23187   0.25436   0.00000  Uiso   1.00
H1315  H     0.94721   0.10880   0.48327   0.00000  Uiso   1.00
H1316  H     0.55547   0.35168   0.47938   0.00000  Uiso   1.00
H1317  H     0.73997   0.24045   0.30182   0.00000  Uiso   1.00
H1318  H     0.72263   0.20403   0.27216   0.00000  Uiso   1.00
H1319  H     0.68045   0.37312   0.67256   0.00000  Uiso   1.00
H1320  H     0.68438   0.32429   0.68029   0.00000  Uiso   1.00
H1321  H     0.74811   0.37880   0.68259   0.00000  Uiso   1.00
H1322  H     0.75117   0.32995   0.68691   0.00000  Uiso   1.00
H1323  H     0.72732   0.32224   0.61954   0.00000  Uiso   1.00
H1324  H     0.76572   0.35294   0.61935   0.00000  Uiso   1.00
H1325  H     0.72029   0.37102   0.61528   0.00000  Uiso   1.00
H1326  H     0.63490   0.24221   0.22560   0.00000  Uiso   1.00
H1327  H     0.52368   0.39939   0.41363   0.00000  Uiso   1.00
H1328  H     0.62255   0.20089   0.20197   0.00000  Uiso   1.00
H1329  H     0.69906   0.23204   0.21637   0.00000  Uiso   1.00
H1330  H     0.69260   0.18472   0.20349   0.00000  Uiso   1.00
H1331  H     0.66014   0.20326   0.14264   0.00000  Uiso   1.00
H1332  H     0.70498   0.22311   0.14522   0.00000  Uiso   1.00
H1333  H     0.66535   0.25079   0.15588   0.00000  Uiso   1.00
H1334  H     0.87104   0.27546   0.67614   0.00000  Uiso   1.00
H1335  H     0.88803   0.32082   0.67395   0.00000  Uiso   1.00
H1336  H     0.80628   0.30097   0.66869   0.00000  Uiso   1.00
H1337  H     0.82617   0.34524   0.66155   0.00000  Uiso   1.00
H1338  H     0.53470   0.41380   0.46259   0.00000  Uiso   1.00
H1339  H     0.86270   0.31894   0.60526   0.00000  Uiso   1.00
H1340  H     0.81411   0.31618   0.59758   0.00000  Uiso   1.00
H1341  H     0.83936   0.27611   0.61168   0.00000  Uiso   1.00
H1342  H     0.74346   0.36159   0.22314   0.00000  Uiso   1.00
H1343  H     0.70242   0.37572   0.19987   0.00000  Uiso   1.00
H1344  H     0.72684   0.29689   0.21853   0.00000  Uiso   1.00
H1345  H     0.68238   0.30837   0.19952   0.00000  Uiso   1.00
H1346  H     0.71011   0.33605   0.14070   0.00000  Uiso   1.00
H1347  H     0.72536   0.28968   0.14655   0.00000  Uiso   1.00
H1348  H     0.75535   0.32670   0.15946   0.00000  Uiso   1.00
H1349  H     0.60062   0.39569   0.45044   0.00000  Uiso   1.00
H1350  H     0.82725   0.10105   0.66412   0.00000  Uiso   1.00
H1351  H     0.83181   0.14944   0.65433   0.00000  Uiso   1.00
H1352  H     0.75878   0.10910   0.66489   0.00000  Uiso   1.00
H1353  H     0.76439   0.15618   0.65195   0.00000  Uiso   1.00
H1354  H     0.79580   0.13739   0.59014   0.00000  Uiso   1.00
H1355  H     0.75066   0.11841   0.59371   0.00000  Uiso   1.00
H1356  H     0.78974   0.08990   0.60327   0.00000  Uiso   1.00
H1357  H     0.91926   0.32114   0.35171   0.00000  Uiso   1.00
H1358  H     0.91963   0.17916   0.64548   0.00000  Uiso   1.00
H1359  H     0.68362   0.41578   0.35311   0.00000  Uiso   1.00
H1360  H     0.58418   0.43098   0.41845   0.00000  Uiso   1.00
H1361  H     0.81503   0.41474   0.64413   0.00000  Uiso   1.00
H1362  H     0.58748   0.19075   0.35463   0.00000  Uiso   1.00
H1363  H     0.58271   0.31704   0.64503   0.00000  Uiso   1.00
H1364  H     0.80842   0.09103   0.35995   0.00000  Uiso   1.00
H1365  H     0.67846   0.07926   0.64718   0.00000  Uiso   1.00
H1366  H     0.67027   0.07112   0.85130   0.00000  Uiso   1.00
H1367  H     0.66703   0.43215   0.14677   0.00000  Uiso   1.00
H1368  H     0.94207   0.15801   0.86058   0.00000  Uiso   1.00
H1369  H     0.57098   0.17103   0.14549   0.00000  Uiso   1.00
H1370  H     0.83256   0.43289   0.85506   0.00000  Uiso   1.00
H1371  H     0.58853   0.38484   0.40046   0.00000  Uiso   1.00
H1372  H     0.83533   0.06523   0.14296   0.00000  Uiso   1.00
H1373  H     0.56279   0.33772   0.85510   0.00000  Uiso   1.00
H1374  H     0.92673   0.32792   0.14871   0.00000  Uiso   1.00
H1375  H     0.54181   0.12879   0.57836   0.00000  Uiso   1.00
H1376  H     0.55310   0.17422   0.56500   0.00000  Uiso   1.00
H1377  H     0.55753   0.10694   0.50998   0.00000  Uiso   1.00
H1378  H     0.57246   0.15250   0.49883   0.00000  Uiso   1.00
H1379  H     0.92972   0.15470   0.48713   0.00000  Uiso   1.00
H1380  H     0.61861   0.14942   0.55235   0.00000  Uiso   1.00
H1381  H     0.62462   0.11284   0.51753   0.00000  Uiso   1.00
H1382  H     0.60364   0.10379   0.56409   0.00000  Uiso   1.00
H1383  H     0.66499   0.04419   0.42643   0.00000  Uiso   1.00
H1384  H     0.64659   0.05611   0.47408   0.00000  Uiso   1.00
H1385  H     0.60281   0.02028   0.40739   0.00000  Uiso   1.00
H1386  H     0.58545   0.03561   0.45381   0.00000  Uiso   1.00
H1387  H     0.60423   0.09985   0.43706   0.00000  Uiso   1.00
H1388  H     0.57194   0.08102   0.40268   0.00000  Uiso   1.00
H1389  H     0.61949   0.08366   0.38973   0.00000  Uiso   1.00
H1390  H     0.89397   0.14448   0.42454   0.00000  Uiso   1.00
H1391  H     0.87330   0.03148   0.58236   0.00000  Uiso   1.00
H1392  H     0.82741   0.04486   0.57306   0.00000  Uiso   1.00
H1393  H     0.89139   0.05555   0.51534   0.00000  Uiso   1.00
H1394  H     0.84553   0.07297   0.51021   0.00000  Uiso   1.00
H1395  H     0.85423   0.10970   0.57216   0.00000  Uiso   1.00
H1396  H     0.88639   0.12147   0.53470   0.00000  Uiso   1.00
H1397  H     0.90073   0.09330   0.57492   0.00000  Uiso   1.00
H1398  H     0.71061   0.38034   0.91488   0.00000  Uiso   1.00
H1399  H     0.70108   0.42698   0.92505   0.00000  Uiso   1.00
H1400  H     0.68392   0.36170   0.97895   0.00000  Uiso   1.00
H1401  H     0.88125   0.11396   0.46310   0.00000  Uiso   1.00
H1402  H     0.67365   0.40877   0.98982   0.00000  Uiso   1.00
H1403  H     0.63369   0.41231   0.93060   0.00000  Uiso   1.00
H1404  H     0.61918   0.37670   0.96304   0.00000  Uiso   1.00
H1405  H     0.64401   0.36514   0.91933   0.00000  Uiso   1.00
H1406  H     0.70860   0.11967   0.08146   0.00000  Uiso   1.00
H1407  H     0.69601   0.07548   0.06459   0.00000  Uiso   1.00
H1408  H     0.69583   0.14571   0.01433   0.00000  Uiso   1.00
H1409  H     0.67986   0.10145   0.99912   0.00000  Uiso   1.00
H1410  H     0.63194   0.10312   0.05086   0.00000  Uiso   1.00
H1411  H     0.62832   0.14167   0.01849   0.00000  Uiso   1.00
H1412  H     0.90991   0.09779   0.42396   0.00000  Uiso   1.00
H1413  H     0.64790   0.14751   0.06647   0.00000  Uiso   1.00
H1414  H     0.58491   0.20857   0.92784   0.00000  Uiso   1.00
H1415  H     0.60418   0.19782   0.97540   0.00000  Uiso   1.00
H1416  H     0.64602   0.23347   0.90764   0.00000  Uiso   1.00
H1417  H     0.66454   0.21989   0.95415   0.00000  Uiso   1.00
H1418  H     0.64778   0.15468   0.93908   0.00000  Uiso   1.00
H1419  H     0.67860   0.17366   0.90357   0.00000  Uiso   1.00
H1420  H     0.63090   0.16904   0.89176   0.00000  Uiso   1.00
H1421  H     0.91763   0.19739   0.06591   0.00000  Uiso   1.00
H1422  H     0.89586   0.19084   0.01869   0.00000  Uiso   1.00
H1423  H     0.95847   0.36210   0.58699   0.00000  Uiso   1.00
H1424  H     0.85762   0.21942   0.09293   0.00000  Uiso   1.00
H1425  H     0.83659   0.21040   0.04632   0.00000  Uiso   1.00
H1426  H     0.85396   0.14446   0.05193   0.00000  Uiso   1.00
H1427  H     0.82646   0.15958   0.09265   0.00000  Uiso   1.00
H1428  H     0.87497   0.15363   0.09888   0.00000  Uiso   1.00
H1429  H     0.80941   0.08909   0.96019   0.00000  Uiso   1.00
H1430  H     0.79384   0.12282   0.99532   0.00000  Uiso   1.00
H1431  H     0.79333   0.13056   0.90580   0.00000  Uiso   1.00
H1432  H     0.77597   0.16389   0.93989   0.00000  Uiso   1.00
H1433  H     0.83815   0.16953   0.96995   0.00000  Uiso   1.00
H1434  H     0.94410   0.32193   0.56199   0.00000  Uiso   1.00
H1435  H     0.83861   0.17939   0.91841   0.00000  Uiso   1.00
H1436  H     0.85553   0.13607   0.93560   0.00000  Uiso   1.00
H1437  H     0.79378   0.41611   0.07287   0.00000  Uiso   1.00
H1438  H     0.80630   0.39846   0.02508   0.00000  Uiso   1.00
H1439  H     0.77045   0.35324   0.09012   0.00000  Uiso   1.00
H1440  H     0.78713   0.33681   0.04383   0.00000  Uiso   1.00
H1441  H     0.85064   0.35653   0.06287   0.00000  Uiso   1.00
H1442  H     0.83164   0.32379   0.09632   0.00000  Uiso   1.00
H1443  H     0.83318   0.37125   0.10988   0.00000  Uiso   1.00
H1444  H     0.87741   0.28204   0.91781   0.00000  Uiso   1.00
O1445  O     0.75000   0.00000   0.25000   0.00000  Uiso   1.00
O1446  O     0.75000   0.46963   0.66245   0.00000  Uiso   1.00
O1447  O     0.81022   0.13653   0.70861   0.00000  Uiso   1.00
O1448  O     0.94274   0.34161   0.42347   0.00000  Uiso   1.00
O1449  O     0.98789   0.33979   0.37065   0.00000  Uiso   1.00
O1450  O     0.92981   0.29993   0.36558   0.00000  Uiso   1.00
O1451  O     0.94719   0.15670   0.57558   0.00000  Uiso   1.00
O1452  O     0.98953   0.16122   0.63101   0.00000  Uiso   1.00
O1453  O     0.93017   0.20005   0.63123   0.00000  Uiso   1.00
O1454  O     0.65871   0.44246   0.42248   0.00000  Uiso   1.00
O1455  O     0.66221   0.48453   0.36709   0.00000  Uiso   1.00
O1456  O     0.70372   0.42702   0.36826   0.00000  Uiso   1.00
O1457  O     0.96964   0.25000   0.33755   0.00000  Uiso   1.00
O1458  O     0.84138   0.44379   0.57616   0.00000  Uiso   1.00
O1459  O     0.83588   0.48368   0.63358   0.00000  Uiso   1.00
O1460  O     0.79528   0.42604   0.62848   0.00000  Uiso   1.00
O1461  O     0.55971   0.16120   0.42317   0.00000  Uiso   1.00
O1462  O     0.52081   0.16622   0.36506   0.00000  Uiso   1.00
O1463  O     0.57670   0.20902   0.37261   0.00000  Uiso   1.00
O1464  O     0.55225   0.34279   0.57717   0.00000  Uiso   1.00
O1465  O     0.51290   0.33576   0.63456   0.00000  Uiso   1.00
O1466  O     0.57214   0.29705   0.62918   0.00000  Uiso   1.00
O1467  O     0.83734   0.06001   0.42586   0.00000  Uiso   1.00
O1468  O     0.53037   0.25000   0.66245   0.00000  Uiso   1.00
O1469  O     0.83329   0.02248   0.36653   0.00000  Uiso   1.00
O1470  O     0.78947   0.07781   0.37477   0.00000  Uiso   1.00
O1471  O     0.65581   0.05179   0.57701   0.00000  Uiso   1.00
O1472  O     0.66162   0.00967   0.63221   0.00000  Uiso   1.00
O1473  O     0.69934   0.06935   0.63213   0.00000  Uiso   1.00
O1474  O     0.69518   0.09358   0.92229   0.00000  Uiso   1.00
O1475  O     0.73924   0.08893   0.86859   0.00000  Uiso   1.00
O1476  O     0.68012   0.05028   0.86635   0.00000  Uiso   1.00
O1477  O     0.69317   0.40804   0.07688   0.00000  Uiso   1.00
O1478  O     0.73605   0.41217   0.13186   0.00000  Uiso   1.00
O1479  O     0.50000   0.21963   0.83755   0.00000  Uiso   1.00
O1480  O     0.67771   0.45252   0.13179   0.00000  Uiso   1.00
O1481  O     0.91444   0.18846   0.92627   0.00000  Uiso   1.00
O1482  O     0.91535   0.22663   0.86755   0.00000  Uiso   1.00
O1483  O     0.96120   0.17269   0.87360   0.00000  Uiso   1.00
O1484  O     0.59439   0.20068   0.07632   0.00000  Uiso   1.00
O1485  O     0.58690   0.24089   0.13324   0.00000  Uiso   1.00
O1486  O     0.55035   0.18056   0.12980   0.00000  Uiso   1.00
O1487  O     0.80252   0.40737   0.92341   0.00000  Uiso   1.00
O1488  O     0.76312   0.41461   0.86585   0.00000  Uiso   1.00
O1489  O     0.82235   0.45284   0.87132   0.00000  Uiso   1.00
O1490  O     0.50000   0.28037   0.16245   0.00000  Uiso   1.00
O1491  O     0.80559   0.08961   0.07493   0.00000  Uiso   1.00
O1492  O     0.76569   0.08659   0.13231   0.00000  Uiso   1.00
O1493  O     0.82317   0.04500   0.12888   0.00000  Uiso   1.00
O1494  O     0.58966   0.31060   0.92336   0.00000  Uiso   1.00
O1495  O     0.58619   0.26921   0.86701   0.00000  Uiso   1.00
O1496  O     0.54326   0.32566   0.87019   0.00000  Uiso   1.00
O1497  O     0.90517   0.30218   0.07800   0.00000  Uiso   1.00
O1498  O     0.91079   0.25823   0.13158   0.00000  Uiso   1.00
O1499  O     0.94798   0.31821   0.13411   0.00000  Uiso   1.00
O1500  O     0.78037   0.00000   0.83755   0.00000  Uiso   1.00
O1501  O     0.71964   0.00000   0.16245   0.00000  Uiso   1.00
O1502  O     0.50000   0.28036   0.83755   0.00000  Uiso   1.00
O1503  O     0.50000   0.21963   0.16245   0.00000  Uiso   1.00
O1504  O     0.71964   0.00000   0.83755   0.00000  Uiso   1.00
O1505  O     0.75000   0.00000   0.75000   0.00000  Uiso   1.00
O1506  O     0.78037   0.00000   0.16245   0.00000  Uiso   1.00
O1507  O     0.70725   0.07308   0.27302   0.00000  Uiso   1.00
O1508  O     0.79276   0.42692   0.72698   0.00000  Uiso   1.00
O1509  O     0.92693   0.20725   0.27302   0.00000  Uiso   1.00
O1510  O     0.57308   0.29275   0.72698   0.00000  Uiso   1.00
O1511  O     0.79276   0.42692   0.27302   0.00000  Uiso   1.00
O1512  O     0.70725   0.07308   0.72698   0.00000  Uiso   1.00
O1513  O     0.57308   0.29275   0.27302   0.00000  Uiso   1.00
O1514  O     0.92693   0.20725   0.72698   0.00000  Uiso   1.00
O1515  O     0.70725   0.42692   0.72698   0.00000  Uiso   1.00
O1516  O     0.50000   0.25000   0.25000   0.00000  Uiso   1.00
O1517  O     0.79276   0.07308   0.27302   0.00000  Uiso   1.00
O1518  O     0.92693   0.29275   0.72698   0.00000  Uiso   1.00
O1519  O     0.57308   0.20724   0.27302   0.00000  Uiso   1.00
O1520  O     0.79276   0.07308   0.72698   0.00000  Uiso   1.00
O1521  O     0.70725   0.42692   0.27302   0.00000  Uiso   1.00
O1522  O     0.57308   0.20724   0.72698   0.00000  Uiso   1.00
O1523  O     0.92693   0.29275   0.27302   0.00000  Uiso   1.00
O1524  O     0.95725   0.32307   0.77302   0.00000  Uiso   1.00
O1525  O     0.54276   0.17692   0.22698   0.00000  Uiso   1.00
O1526  O     0.67693   0.45724   0.77302   0.00000  Uiso   1.00
O1527  O     0.50000   0.25000   0.75000   0.00000  Uiso   1.00
O1528  O     0.82308   0.04276   0.22698   0.00000  Uiso   1.00
O1529  O     0.54276   0.17692   0.77302   0.00000  Uiso   1.00
O1530  O     0.95725   0.32307   0.22698   0.00000  Uiso   1.00
O1531  O     0.82308   0.04276   0.77302   0.00000  Uiso   1.00
O1532  O     0.67693   0.45724   0.22698   0.00000  Uiso   1.00
O1533  O     0.95725   0.17693   0.22698   0.00000  Uiso   1.00
O1534  O     0.54276   0.32307   0.77302   0.00000  Uiso   1.00
O1535  O     0.67693   0.04276   0.22698   0.00000  Uiso   1.00
O1536  O     0.82308   0.45724   0.77302   0.00000  Uiso   1.00
O1537  O     0.54276   0.32307   0.22698   0.00000  Uiso   1.00
O1538  O     0.75000   0.46963   0.33755   0.00000  Uiso   1.00
O1539  O     0.95725   0.17693   0.77302   0.00000  Uiso   1.00
O1540  O     0.82308   0.45724   0.22698   0.00000  Uiso   1.00
O1541  O     0.67693   0.04276   0.77302   0.00000  Uiso   1.00
O1542  O     0.50083   0.15027   0.45978   0.00000  Uiso   1.00
O1543  O     0.99174   0.34879   0.54097   0.00000  Uiso   1.00
O1544  O     0.84884   0.49894   0.46012   0.00000  Uiso   1.00
O1545  O     0.64983   0.49219   0.53944   0.00000  Uiso   1.00
O1546  O     0.50059   0.34995   0.46259   0.00000  Uiso   1.00
O1547  O     0.50679   0.15028   0.53799   0.00000  Uiso   1.00
O1548  O     0.64924   0.00053   0.46114   0.00000  Uiso   1.00
O1549  O     0.75000   0.03037   0.66245   0.00000  Uiso   1.00
O1550  O     0.84958   0.00226   0.53835   0.00000  Uiso   1.00
O1551  O     0.74193   0.40091   0.95919   0.00000  Uiso   1.00
O1552  O     0.74398   0.09896   0.04097   0.00000  Uiso   1.00
O1553  O     0.59998   0.25312   0.96211   0.00000  Uiso   1.00
O1554  O     0.90019   0.24457   0.03809   0.00000  Uiso   1.00
O1555  O     0.75312   0.09956   0.96128   0.00000  Uiso   1.00
O1556  O     0.75053   0.40000   0.03731   0.00000  Uiso   1.00
O1557  O     0.90081   0.24962   0.95934   0.00000  Uiso   1.00
O1558  O     0.59909   0.26141   0.04047   0.00000  Uiso   1.00
O1559  O     0.60456   0.44792   0.24116   0.00000  Uiso   1.00
O1560  O     0.53037   0.25000   0.33755   0.00000  Uiso   1.00
O1561  O     0.88277   0.06537   0.79951   0.00000  Uiso   1.00
O1562  O     0.55168   0.10498   0.23639   0.00000  Uiso   1.00
O1563  O     0.94646   0.39362   0.77065   0.00000  Uiso   1.00
O1564  O     0.88738   0.06026   0.20913   0.00000  Uiso   1.00
O1565  O     0.60649   0.44585   0.77192   0.00000  Uiso   1.00
O1566  O     0.94708   0.39522   0.24068   0.00000  Uiso   1.00
O1567  O     0.55756   0.10781   0.78073   0.00000  Uiso   1.00
O1568  O     0.60483   0.05315   0.76126   0.00000  Uiso   1.00
O1569  O     0.89245   0.44239   0.22003   0.00000  Uiso   1.00
O1570  O     0.55224   0.39504   0.76174   0.00000  Uiso   1.00
O1571  O     0.96964   0.25000   0.66245   0.00000  Uiso   1.00
O1572  O     0.93813   0.11419   0.20609   0.00000  Uiso   1.00
O1573  O     0.89387   0.44807   0.76281   0.00000  Uiso   1.00
O1574  O     0.60560   0.05294   0.23172   0.00000  Uiso   1.00
O1575  O     0.93807   0.11435   0.79425   0.00000  Uiso   1.00
O1576  O     0.55394   0.39362   0.22938   0.00000  Uiso   1.00
O1577  O     0.86145   0.19033   0.71078   0.00000  Uiso   1.00
O1578  O     0.64400   0.30403   0.27008   0.00000  Uiso   1.00
O1579  O     0.80224   0.35445   0.74275   0.00000  Uiso   1.00
O1580  O     0.69254   0.14243   0.28019   0.00000  Uiso   1.00
O1581  O     0.64533   0.30208   0.74099   0.00000  Uiso   1.00
O1582  O     0.75000   0.03037   0.33755   0.00000  Uiso   1.00
O1583  O     0.86329   0.18970   0.29154   0.00000  Uiso   1.00
O1584  O     0.69831   0.14490   0.73725   0.00000  Uiso   1.00
O1585  O     0.80291   0.35574   0.26798   0.00000  Uiso   1.00
O1586  O     0.85493   0.30175   0.26262   0.00000  Uiso   1.00
O1587  O     0.64432   0.19694   0.73216   0.00000  Uiso   1.00
O1588  O     0.80986   0.13787   0.29019   0.00000  Uiso   1.00
O1589  O     0.69583   0.35634   0.72887   0.00000  Uiso   1.00
O1590  O     0.64538   0.19701   0.25923   0.00000  Uiso   1.00
O1591  O     0.85650   0.30622   0.72360   0.00000  Uiso   1.00
O1592  O     0.69825   0.35462   0.25747   0.00000  Uiso   1.00
S1593  S     0.96224   0.31739   0.39478   0.00000  Uiso   1.00
S1594  S     0.71135   0.43348   0.10527   0.00000  Uiso   1.00
S1595  S     0.93848   0.20638   0.89658   0.00000  Uiso   1.00
S1596  S     0.56753   0.21606   0.10512   0.00000  Uiso   1.00
S1597  S     0.78686   0.43421   0.89486   0.00000  Uiso   1.00
S1598  S     0.78860   0.06470   0.10436   0.00000  Uiso   1.00
S1599  S     0.56439   0.29219   0.89498   0.00000  Uiso   1.00
S1600  S     0.93114   0.28448   0.10616   0.00000  Uiso   1.00
S1601  S     0.96438   0.18221   0.60460   0.00000  Uiso   1.00
S1602  S     0.68390   0.46066   0.39417   0.00000  Uiso   1.00
S1603  S     0.81523   0.46065   0.60474   0.00000  Uiso   1.00
S1604  S     0.54235   0.18721   0.39492   0.00000  Uiso   1.00
S1605  S     0.53660   0.31600   0.60557   0.00000  Uiso   1.00
S1606  S     0.81177   0.04328   0.39661   0.00000  Uiso   1.00
S1607  S     0.68193   0.03492   0.60561   0.00000  Uiso   1.00
S1608  S     0.71353   0.06799   0.89412   0.00000  Uiso   1.00
Zn1609 Zn    0.70660   0.00000   0.21735   0.00000  Uiso   1.00
Zn1610 Zn    0.54341   0.25000   0.28265   0.00000  Uiso   1.00
Zn1611 Zn    0.75000   0.45659   0.71735   0.00000  Uiso   1.00
Zn1612 Zn    0.75000   0.04341   0.28265   0.00000  Uiso   1.00
Zn1613 Zn    0.54341   0.25000   0.71735   0.00000  Uiso   1.00
Zn1614 Zn    0.95660   0.25000   0.28265   0.00000  Uiso   1.00
Zn1615 Zn    0.75000   0.04341   0.71735   0.00000  Uiso   1.00
Zn1616 Zn    0.75000   0.45659   0.28265   0.00000  Uiso   1.00
Zn1617 Zn    0.79341   0.00000   0.78265   0.00000  Uiso   1.00
Zn1618 Zn    0.50000   0.20660   0.21735   0.00000  Uiso   1.00
Zn1619 Zn    0.50000   0.29340   0.78265   0.00000  Uiso   1.00
Zn1620 Zn    0.79341   0.00000   0.21735   0.00000  Uiso   1.00
Zn1621 Zn    0.70660   0.00000   0.78265   0.00000  Uiso   1.00
Zn1622 Zn    0.50000   0.29340   0.21735   0.00000  Uiso   1.00
Zn1623 Zn    0.50000   0.20660   0.78265   0.00000  Uiso   1.00
Zn1624 Zn    0.95660   0.25000   0.71735   0.00000  Uiso   1.00
C1625  C     0.48789   0.78209   0.41887   0.00000  Uiso   1.00
C1626  C     0.23756   0.96798   0.08111   0.00000  Uiso   1.00
C1627  C     0.21601   0.50204   0.54114   0.00000  Uiso   1.00
C1628  C     0.49504   0.78354   0.45940   0.00000  Uiso   1.00
C1629  C     0.49712   0.71640   0.54062   0.00000  Uiso   1.00
C1630  C     0.21583   0.99516   0.45900   0.00000  Uiso   1.00
C1631  C     0.28271   0.99598   0.54087   0.00000  Uiso   1.00
C1632  C     0.25163   0.96722   0.95848   0.00000  Uiso   1.00
C1633  C     0.25220   0.53278   0.04127   0.00000  Uiso   1.00
C1634  C     0.03332   0.75711   0.95947   0.00000  Uiso   1.00
C1635  C     0.46621   0.75375   0.04093   0.00000  Uiso   1.00
C1636  C     0.24529   0.53379   0.95923   0.00000  Uiso   1.00
C1637  C     0.47000   0.73736   0.91897   0.00000  Uiso   1.00
C1638  C     0.24436   0.96650   0.04052   0.00000  Uiso   1.00
C1639  C     0.46749   0.74606   0.95893   0.00000  Uiso   1.00
C1640  C     0.03306   0.74970   0.04149   0.00000  Uiso   1.00
C1641  C     0.09834   0.84825   0.24995   0.00000  Uiso   1.00
C1642  C     0.40146   0.65221   0.75055   0.00000  Uiso   1.00
C1643  C     0.15079   0.59745   0.25205   0.00000  Uiso   1.00
C1644  C     0.34803   0.90219   0.75067   0.00000  Uiso   1.00
C1645  C     0.40169   0.65214   0.24965   0.00000  Uiso   1.00
C1646  C     0.09792   0.84802   0.75020   0.00000  Uiso   1.00
C1647  C     0.34744   0.90081   0.24788   0.00000  Uiso   1.00
C1648  C     0.03154   0.74096   0.08149   0.00000  Uiso   1.00
C1649  C     0.15253   0.59833   0.75043   0.00000  Uiso   1.00
C1650  C     0.09916   0.65255   0.75217   0.00000  Uiso   1.00
C1651  C     0.40163   0.84743   0.24983   0.00000  Uiso   1.00
C1652  C     0.15171   0.90174   0.75005   0.00000  Uiso   1.00
C1653  C     0.34804   0.59828   0.24992   0.00000  Uiso   1.00
C1654  C     0.40212   0.84877   0.74892   0.00000  Uiso   1.00
C1655  C     0.09742   0.65160   0.25015   0.00000  Uiso   1.00
C1656  C     0.34747   0.59870   0.75102   0.00000  Uiso   1.00
C1657  C     0.15208   0.90201   0.24969   0.00000  Uiso   1.00
C1658  C     0.49957   0.75019   0.47949   0.00000  Uiso   1.00
C1659  C     0.26041   0.96910   0.91851   0.00000  Uiso   1.00
C1660  C     0.49963   0.74982   0.52049   0.00000  Uiso   1.00
C1661  C     0.24901   0.99962   0.47956   0.00000  Uiso   1.00
C1662  C     0.24926   0.99928   0.52051   0.00000  Uiso   1.00
C1663  C     0.24822   0.50029   0.97937   0.00000  Uiso   1.00
C1664  C     0.24813   0.99985   0.02037   0.00000  Uiso   1.00
C1665  C     0.00020   0.75191   0.97973   0.00000  Uiso   1.00
C1666  C     0.49981   0.75189   0.02071   0.00000  Uiso   1.00
C1667  C     0.46753   0.64610   0.43927   0.00000  Uiso   1.00
C1668  C     0.43728   0.63264   0.46632   0.00000  Uiso   1.00
C1669  C     0.40356   0.62157   0.44296   0.00000  Uiso   1.00
C1670  C     0.26067   0.53079   0.08131   0.00000  Uiso   1.00
C1671  C     0.45636   0.84944   0.55758   0.00000  Uiso   1.00
C1672  C     0.43091   0.87286   0.53265   0.00000  Uiso   1.00
C1673  C     0.39212   0.87228   0.54862   0.00000  Uiso   1.00
C1674  C     0.35163   0.96612   0.43834   0.00000  Uiso   1.00
C1675  C     0.36293   0.93419   0.46434   0.00000  Uiso   1.00
C1676  C     0.36937   0.89975   0.44010   0.00000  Uiso   1.00
C1677  C     0.14836   0.95662   0.55526   0.00000  Uiso   1.00
C1678  C     0.13291   0.92967   0.52531   0.00000  Uiso   1.00
C1679  C     0.12696   0.89225   0.54342   0.00000  Uiso   1.00
C1680  C     0.03763   0.85550   0.45326   0.00000  Uiso   1.00
C1681  C     0.03143   0.76396   0.91894   0.00000  Uiso   1.00
C1682  C     0.04222   0.89452   0.43880   0.00000  Uiso   1.00
C1683  C     0.08138   0.90182   0.42626   0.00000  Uiso   1.00
C1684  C     0.04265   0.64784   0.55327   0.00000  Uiso   1.00
C1685  C     0.06897   0.63240   0.52262   0.00000  Uiso   1.00
C1686  C     0.10627   0.62413   0.54037   0.00000  Uiso   1.00
C1687  C     0.14434   0.53691   0.44887   0.00000  Uiso   1.00
C1688  C     0.10630   0.54081   0.43101   0.00000  Uiso   1.00
C1689  C     0.10023   0.57877   0.41412   0.00000  Uiso   1.00
C1690  C     0.35305   0.53576   0.55863   0.00000  Uiso   1.00
C1691  C     0.36715   0.56567   0.53160   0.00000  Uiso   1.00
C1692  C     0.46723   0.76039   0.08155   0.00000  Uiso   1.00
C1693  C     0.37774   0.59960   0.55485   0.00000  Uiso   1.00
C1694  C     0.20814   0.90051   0.93901   0.00000  Uiso   1.00
C1695  C     0.17711   0.88856   0.96588   0.00000  Uiso   1.00
C1696  C     0.14132   0.88551   0.94323   0.00000  Uiso   1.00
C1697  C     0.20781   0.60199   0.05509   0.00000  Uiso   1.00
C1698  C     0.18311   0.62001   0.02454   0.00000  Uiso   1.00
C1699  C     0.14548   0.62857   0.04124   0.00000  Uiso   1.00
C1700  C     0.10564   0.71670   0.95002   0.00000  Uiso   1.00
C1701  C     0.14352   0.71347   0.93174   0.00000  Uiso   1.00
C1702  C     0.15052   0.67527   0.91559   0.00000  Uiso   1.00
C1703  C     0.00018   0.75081   0.39826   0.00000  Uiso   1.00
C1704  C     0.39562   0.70723   0.04617   0.00000  Uiso   1.00
C1705  C     0.35893   0.70198   0.06638   0.00000  Uiso   1.00
C1706  C     0.35335   0.66238   0.07813   0.00000  Uiso   1.00
C1707  C     0.28948   0.61160   0.96547   0.00000  Uiso   1.00
C1708  C     0.29642   0.64175   0.93582   0.00000  Uiso   1.00
C1709  C     0.33460   0.65758   0.94035   0.00000  Uiso   1.00
C1710  C     0.28697   0.89560   0.04997   0.00000  Uiso   1.00
C1711  C     0.29139   0.85748   0.06719   0.00000  Uiso   1.00
C1712  C     0.32914   0.85205   0.08512   0.00000  Uiso   1.00
C1713  C     0.39484   0.78499   0.94419   0.00000  Uiso   1.00
C1714  C     0.49994   0.74943   0.60177   0.00000  Uiso   1.00
C1715  C     0.37464   0.80886   0.97400   0.00000  Uiso   1.00
C1716  C     0.36283   0.84508   0.95619   0.00000  Uiso   1.00
C1717  C     0.09869   0.79544   0.06019   0.00000  Uiso   1.00
C1718  C     0.11053   0.82621   0.03300   0.00000  Uiso   1.00
C1719  C     0.11308   0.86230   0.05516   0.00000  Uiso   1.00
C1720  C     0.10458   0.96447   0.27863   0.00000  Uiso   1.00
C1721  C     0.06681   0.96204   0.29735   0.00000  Uiso   1.00
C1722  C     0.06721   0.97838   0.33835   0.00000  Uiso   1.00
C1723  C     0.36886   0.57470   0.83669   0.00000  Uiso   1.00
C1724  C     0.36693   0.54018   0.86142   0.00000  Uiso   1.00
C1725  C     0.24888   0.50044   0.39830   0.00000  Uiso   1.00
C1726  C     0.34728   0.54713   0.89995   0.00000  Uiso   1.00
C1727  C     0.03142   0.60466   0.27156   0.00000  Uiso   1.00
C1728  C     0.03615   0.56842   0.29303   0.00000  Uiso   1.00
C1729  C     0.00946   0.56561   0.32703   0.00000  Uiso   1.00
C1730  C     0.44805   0.89954   0.81144   0.00000  Uiso   1.00
C1731  C     0.48789   0.90349   0.82382   0.00000  Uiso   1.00
C1732  C     0.49147   0.90977   0.86769   0.00000  Uiso   1.00
C1733  C     0.41358   0.53852   0.22884   0.00000  Uiso   1.00
C1734  C     0.44253   0.52569   0.19964   0.00000  Uiso   1.00
C1735  C     0.46897   0.99861   0.21804   0.00000  Uiso   1.00
C1736  C     0.48964   0.71764   0.58104   0.00000  Uiso   1.00
C1737  C     0.24965   0.99955   0.60174   0.00000  Uiso   1.00
C1738  C     0.10249   0.94638   0.81297   0.00000  Uiso   1.00
C1739  C     0.10260   0.98580   0.82733   0.00000  Uiso   1.00
C1740  C     0.10092   0.98762   0.87178   0.00000  Uiso   1.00
C1741  C     0.46354   0.89382   0.27826   0.00000  Uiso   1.00
C1742  C     0.46224   0.93123   0.29815   0.00000  Uiso   1.00
C1743  C     0.47343   0.92877   0.34099   0.00000  Uiso   1.00
C1744  C     0.05768   0.61685   0.82110   0.00000  Uiso   1.00
C1745  C     0.07106   0.58500   0.84614   0.00000  Uiso   1.00
C1746  C     0.06775   0.59418   0.88951   0.00000  Uiso   1.00
C1747  C     0.10447   0.53633   0.72385   0.00000  Uiso   1.00
C1748  C     0.24997   0.50089   0.89818   0.00000  Uiso   1.00
C1749  C     0.06679   0.53976   0.70475   0.00000  Uiso   1.00
C1750  C     0.06737   0.52579   0.66273   0.00000  Uiso   1.00
C1751  C     0.38377   0.94235   0.17959   0.00000  Uiso   1.00
C1752  C     0.41608   0.92949   0.15479   0.00000  Uiso   1.00
C1753  C     0.40764   0.93369   0.11136   0.00000  Uiso   1.00
C1754  C     0.03486   0.89795   0.72489   0.00000  Uiso   1.00
C1755  C     0.02686   0.93801   0.71612   0.00000  Uiso   1.00
C1756  C     0.00695   0.94226   0.67724   0.00000  Uiso   1.00
C1757  C     0.43220   0.62498   0.16703   0.00000  Uiso   1.00
C1758  C     0.46876   0.62417   0.14553   0.00000  Uiso   1.00
C1759  C     0.24965   0.99930   0.10168   0.00000  Uiso   1.00
C1760  C     0.46604   0.64227   0.10564   0.00000  Uiso   1.00
C1761  C     0.40881   0.96169   0.72780   0.00000  Uiso   1.00
C1762  C     0.40282   0.50285   0.72667   0.00000  Uiso   1.00
C1763  C     0.42048   0.51991   0.69088   0.00000  Uiso   1.00
C1764  C     0.09771   0.54943   0.19136   0.00000  Uiso   1.00
C1765  C     0.06431   0.52506   0.18615   0.00000  Uiso   1.00
C1766  C     0.05687   0.51702   0.14315   0.00000  Uiso   1.00
C1767  C     0.46044   0.58737   0.77655   0.00000  Uiso   1.00
C1768  C     0.47120   0.55888   0.80708   0.00000  Uiso   1.00
C1769  C     0.49664   0.52993   0.79008   0.00000  Uiso   1.00
C1770  C     0.00071   0.75032   0.89841   0.00000  Uiso   1.00
C1771  C     0.05323   0.89832   0.18842   0.00000  Uiso   1.00
C1772  C     0.01383   0.89671   0.17409   0.00000  Uiso   1.00
C1773  C     0.01195   0.89859   0.12966   0.00000  Uiso   1.00
C1774  C     0.33660   0.71196   0.73265   0.00000  Uiso   1.00
C1775  C     0.30502   0.72394   0.70627   0.00000  Uiso   1.00
C1776  C     0.28021   0.75130   0.72677   0.00000  Uiso   1.00
C1777  C     0.15011   0.80375   0.31085   0.00000  Uiso   1.00
C1778  C     0.14941   0.76454   0.32543   0.00000  Uiso   1.00
C1779  C     0.15405   0.76321   0.36966   0.00000  Uiso   1.00
C1780  C     0.28588   0.85761   0.78024   0.00000  Uiso   1.00
C1781  C     0.49929   0.75006   0.10187   0.00000  Uiso   1.00
C1782  C     0.28746   0.82127   0.80201   0.00000  Uiso   1.00
C1783  C     0.27718   0.82591   0.84490   0.00000  Uiso   1.00
C1784  C     0.19268   0.63365   0.32055   0.00000  Uiso   1.00
C1785  C     0.17989   0.66584   0.34562   0.00000  Uiso   1.00
C1786  C     0.18352   0.65695   0.38898   0.00000  Uiso   1.00
C1787  C     0.14603   0.78605   0.77859   0.00000  Uiso   1.00
C1788  C     0.18410   0.78894   0.79675   0.00000  Uiso   1.00
C1789  C     0.18442   0.77374   0.83814   0.00000  Uiso   1.00
C1790  C     0.37207   0.68532   0.33145   0.00000  Uiso   1.00
C1791  C     0.37262   0.72302   0.35076   0.00000  Uiso   1.00
C1792  C     0.00214   0.68370   0.47874   0.00000  Uiso   1.00
C1793  C     0.38440   0.72105   0.39340   0.00000  Uiso   1.00
C1794  C     0.21827   0.64535   0.77272   0.00000  Uiso   1.00
C1795  C     0.21311   0.68154   0.79450   0.00000  Uiso   1.00
C1796  C     0.23979   0.68470   0.82861   0.00000  Uiso   1.00
C1797  C     0.29966   0.84772   0.30826   0.00000  Uiso   1.00
C1798  C     0.27583   0.81396   0.31317   0.00000  Uiso   1.00
C1799  C     0.26851   0.80608   0.35614   0.00000  Uiso   1.00
C1800  C     0.35433   0.78201   0.22699   0.00000  Uiso   1.00
C1801  C     0.31738   0.78607   0.20649   0.00000  Uiso   1.00
C1802  C     0.31458   0.76029   0.17155   0.00000  Uiso   1.00
C1803  C     0.49753   0.81615   0.52145   0.00000  Uiso   1.00
C1804  C     0.15310   0.70027   0.69206   0.00000  Uiso   1.00
C1805  C     0.18734   0.72359   0.68801   0.00000  Uiso   1.00
C1806  C     0.19619   0.73116   0.64533   0.00000  Uiso   1.00
C1807  C     0.28783   0.66362   0.27020   0.00000  Uiso   1.00
C1808  C     0.27493   0.69282   0.29914   0.00000  Uiso   1.00
C1809  C     0.24762   0.71890   0.28056   0.00000  Uiso   1.00
C1810  C     0.19618   0.85130   0.68793   0.00000  Uiso   1.00
C1811  C     0.23548   0.85262   0.67352   0.00000  Uiso   1.00
C1812  C     0.23718   0.84943   0.62915   0.00000  Uiso   1.00
C1813  C     0.14334   0.71333   0.22169   0.00000  Uiso   1.00
C1814  C     0.31553   0.50120   0.47922   0.00000  Uiso   1.00
C1815  C     0.18058   0.71250   0.20157   0.00000  Uiso   1.00
C1816  C     0.17745   0.72312   0.15866   0.00000  Uiso   1.00
C1817  C     0.36400   0.80426   0.68300   0.00000  Uiso   1.00
C1818  C     0.33090   0.81545   0.65850   0.00000  Uiso   1.00
C1819  C     0.33717   0.80611   0.61559   0.00000  Uiso   1.00
C1820  C     0.21416   0.85469   0.21977   0.00000  Uiso   1.00
C1821  C     0.21137   0.81699   0.20077   0.00000  Uiso   1.00
C1822  C     0.22655   0.81746   0.15932   0.00000  Uiso   1.00
C1823  C     0.31455   0.62845   0.66854   0.00000  Uiso   1.00
C1824  C     0.27676   0.62858   0.64941   0.00000  Uiso   1.00
C1825  C     0.18277   0.99748   0.52057   0.00000  Uiso   1.00
C1826  C     0.27854   0.61788   0.60643   0.00000  Uiso   1.00
C1827  C     0.49714   0.81659   0.48074   0.00000  Uiso   1.00
C1828  C     0.21772   0.98786   0.41851   0.00000  Uiso   1.00
C1829  C     0.00170   0.68343   0.51953   0.00000  Uiso   1.00
C1830  C     0.18258   0.99736   0.47981   0.00000  Uiso   1.00
C1831  C     0.31592   0.99991   0.52001   0.00000  Uiso   1.00
C1832  C     0.24683   0.93387   0.97843   0.00000  Uiso   1.00
C1833  C     0.24860   0.56622   0.02128   0.00000  Uiso   1.00
C1834  C     0.06654   0.75579   0.98057   0.00000  Uiso   1.00
C1835  C     0.43334   0.74935   0.01969   0.00000  Uiso   1.00
C1836  C     0.24872   0.56672   0.98042   0.00000  Uiso   1.00
C1837  C     0.24684   0.93342   0.01919   0.00000  Uiso   1.00
C1838  C     0.43387   0.74822   0.97893   0.00000  Uiso   1.00
C1839  C     0.28116   0.98814   0.58116   0.00000  Uiso   1.00
C1840  C     0.06623   0.75558   0.02135   0.00000  Uiso   1.00
C1841  C     0.24955   0.50010   0.35585   0.00000  Uiso   1.00
C1842  C     0.24996   0.99990   0.64417   0.00000  Uiso   1.00
C1843  C     0.00004   0.75050   0.35584   0.00000  Uiso   1.00
C1844  C     0.49997   0.74957   0.64417   0.00000  Uiso   1.00
C1845  C     0.00034   0.75007   0.85589   0.00000  Uiso   1.00
C1846  C     0.49959   0.74997   0.14422   0.00000  Uiso   1.00
C1847  C     0.25002   0.50051   0.85581   0.00000  Uiso   1.00
C1848  C     0.24994   0.99960   0.14413   0.00000  Uiso   1.00
C1849  C     0.17953   0.56978   0.25066   0.00000  Uiso   1.00
C1850  C     0.01288   0.71971   0.41852   0.00000  Uiso   1.00
C1851  C     0.32016   0.93023   0.74984   0.00000  Uiso   1.00
C1852  C     0.42988   0.68002   0.24987   0.00000  Uiso   1.00
C1853  C     0.06989   0.82010   0.74992   0.00000  Uiso   1.00
C1854  C     0.31976   0.92957   0.24932   0.00000  Uiso   1.00
C1855  C     0.18011   0.56998   0.75001   0.00000  Uiso   1.00
C1856  C     0.07014   0.82009   0.25002   0.00000  Uiso   1.00
C1857  C     0.42982   0.68003   0.75010   0.00000  Uiso   1.00
C1858  C     0.17988   0.92988   0.74998   0.00000  Uiso   1.00
C1859  C     0.32005   0.57011   0.25001   0.00000  Uiso   1.00
C1860  C     0.43006   0.82030   0.74964   0.00000  Uiso   1.00
C1861  C     0.01029   0.78126   0.58165   0.00000  Uiso   1.00
C1862  C     0.06984   0.67993   0.25003   0.00000  Uiso   1.00
C1863  C     0.31984   0.57024   0.75037   0.00000  Uiso   1.00
C1864  C     0.18004   0.93001   0.24989   0.00000  Uiso   1.00
C1865  C     0.07043   0.68024   0.75064   0.00000  Uiso   1.00
C1866  C     0.42995   0.81982   0.24998   0.00000  Uiso   1.00
C1867  C     0.11528   0.91179   0.24425   0.00000  Uiso   1.00
C1868  C     0.37857   0.59485   0.77489   0.00000  Uiso   1.00
C1869  C     0.08752   0.61500   0.24362   0.00000  Uiso   1.00
C1870  C     0.41105   0.88461   0.76041   0.00000  Uiso   1.00
C1871  C     0.38099   0.59235   0.22953   0.00000  Uiso   1.00
C1872  C     0.27957   0.51336   0.41912   0.00000  Uiso   1.00
C1873  C     0.11559   0.91078   0.76054   0.00000  Uiso   1.00
C1874  C     0.41104   0.88393   0.24281   0.00000  Uiso   1.00
C1875  C     0.09092   0.61678   0.76461   0.00000  Uiso   1.00
C1876  C     0.11606   0.58908   0.75803   0.00000  Uiso   1.00
C1877  C     0.38338   0.90905   0.23593   0.00000  Uiso   1.00
C1878  C     0.08827   0.88462   0.75695   0.00000  Uiso   1.00
C1879  C     0.40659   0.62015   0.22736   0.00000  Uiso   1.00
C1880  C     0.38451   0.91190   0.75751   0.00000  Uiso   1.00
C1881  C     0.11492   0.58856   0.24061   0.00000  Uiso   1.00
C1882  C     0.40672   0.62001   0.77233   0.00000  Uiso   1.00
C1883  C     0.21762   0.50990   0.58146   0.00000  Uiso   1.00
C1884  C     0.08914   0.88448   0.24030   0.00000  Uiso   1.00
C1885  C     0.36848   0.65792   0.73004   0.00000  Uiso   1.00
C1886  C     0.13473   0.83914   0.25926   0.00000  Uiso   1.00
C1887  C     0.33838   0.86562   0.74436   0.00000  Uiso   1.00
C1888  C     0.15911   0.63338   0.26413   0.00000  Uiso   1.00
C1889  C     0.13462   0.83823   0.74405   0.00000  Uiso   1.00
C1890  C     0.36966   0.65733   0.27176   0.00000  Uiso   1.00
C1891  C     0.16242   0.63489   0.74396   0.00000  Uiso   1.00
C1892  C     0.33854   0.86499   0.25913   0.00000  Uiso   1.00
C1893  C     0.36499   0.83760   0.25607   0.00000  Uiso   1.00
C1894  C     0.23868   0.53260   0.91860   0.00000  Uiso   1.00
C1895  C     0.13502   0.66133   0.74084   0.00000  Uiso   1.00
C1896  C     0.34199   0.63145   0.26997   0.00000  Uiso   1.00
C1897  C     0.16073   0.86552   0.73999   0.00000  Uiso   1.00
C1898  C     0.13399   0.66100   0.25721   0.00000  Uiso   1.00
C1899  C     0.36593   0.84025   0.73773   0.00000  Uiso   1.00
C1900  C     0.16201   0.86527   0.25497   0.00000  Uiso   1.00
C1901  C     0.34268   0.63020   0.72817   0.00000  Uiso   1.00
C1902  C     0.00459   0.71729   0.45859   0.00000  Uiso   1.00
C1903  C     0.00238   0.78290   0.54144   0.00000  Uiso   1.00
C1904  C     0.28192   0.50466   0.45905   0.00000  Uiso   1.00
H1905  H     0.47218   0.62528   0.41616   0.00000  Uiso   1.00
H1906  H     0.44099   0.90138   0.53233   0.00000  Uiso   1.00
H1907  H     0.42035   0.79870   0.93440   0.00000  Uiso   1.00
H1908  H     0.35011   0.79426   0.98465   0.00000  Uiso   1.00
H1909  H     0.39279   0.81444   0.99929   0.00000  Uiso   1.00
H1910  H     0.38699   0.86037   0.94574   0.00000  Uiso   1.00
H1911  H     0.34857   0.86177   0.97858   0.00000  Uiso   1.00
H1912  H     0.34387   0.84035   0.93137   0.00000  Uiso   1.00
H1913  H     0.11862   0.79364   0.08458   0.00000  Uiso   1.00
H1914  H     0.07189   0.80226   0.07372   0.00000  Uiso   1.00
H1915  H     0.13758   0.81950   0.02017   0.00000  Uiso   1.00
H1916  H     0.09042   0.82913   0.00891   0.00000  Uiso   1.00
H1917  H     0.43069   0.86237   0.50221   0.00000  Uiso   1.00
H1918  H     0.08604   0.86992   0.06735   0.00000  Uiso   1.00
H1919  H     0.12203   0.88418   0.03514   0.00000  Uiso   1.00
H1920  H     0.13318   0.86008   0.07935   0.00000  Uiso   1.00
H1921  H     0.11154   0.99365   0.27492   0.00000  Uiso   1.00
H1922  H     0.12558   0.95307   0.29887   0.00000  Uiso   1.00
H1923  H     0.04663   0.97688   0.27903   0.00000  Uiso   1.00
H1924  H     0.05834   0.93308   0.29932   0.00000  Uiso   1.00
H1925  H     0.08643   0.96299   0.35722   0.00000  Uiso   1.00
H1926  H     0.03956   0.97689   0.35130   0.00000  Uiso   1.00
H1927  H     0.07583   0.50732   0.33743   0.00000  Uiso   1.00
H1928  H     0.38038   0.84463   0.54507   0.00000  Uiso   1.00
H1929  H     0.34088   0.58665   0.83448   0.00000  Uiso   1.00
H1930  H     0.38715   0.59468   0.85138   0.00000  Uiso   1.00
H1931  H     0.35214   0.51868   0.84497   0.00000  Uiso   1.00
H1932  H     0.39500   0.53009   0.86747   0.00000  Uiso   1.00
H1933  H     0.36211   0.56795   0.91734   0.00000  Uiso   1.00
H1934  H     0.34610   0.52149   0.91699   0.00000  Uiso   1.00
H1935  H     0.31892   0.55665   0.89447   0.00000  Uiso   1.00
H1936  H     0.00221   0.60807   0.26360   0.00000  Uiso   1.00
H1937  H     0.03820   0.62765   0.29161   0.00000  Uiso   1.00
H1938  H     0.03144   0.54546   0.27249   0.00000  Uiso   1.00
H1939  H     0.37483   0.89170   0.53223   0.00000  Uiso   1.00
H1940  H     0.06446   0.56629   0.30444   0.00000  Uiso   1.00
H1941  H     0.01421   0.58801   0.34832   0.00000  Uiso   1.00
H1942  H     0.01331   0.53923   0.34216   0.00000  Uiso   1.00
H1943  H     0.48089   0.56710   0.31623   0.00000  Uiso   1.00
H1944  H     0.43604   0.87616   0.82763   0.00000  Uiso   1.00
H1945  H     0.43319   0.92498   0.81950   0.00000  Uiso   1.00
H1946  H     0.00306   0.87827   0.81585   0.00000  Uiso   1.00
H1947  H     0.00021   0.92691   0.80827   0.00000  Uiso   1.00
H1948  H     0.47694   0.93515   0.87638   0.00000  Uiso   1.00
H1949  H     0.02074   0.91253   0.87552   0.00000  Uiso   1.00
H1950  H     0.39181   0.88025   0.57994   0.00000  Uiso   1.00
H1951  H     0.47997   0.88635   0.88395   0.00000  Uiso   1.00
H1952  H     0.39935   0.51443   0.24097   0.00000  Uiso   1.00
H1953  H     0.42760   0.55246   0.25374   0.00000  Uiso   1.00
H1954  H     0.42910   0.51279   0.17405   0.00000  Uiso   1.00
H1955  H     0.45832   0.54936   0.18908   0.00000  Uiso   1.00
H1956  H     0.48268   0.51095   0.24375   0.00000  Uiso   1.00
H1957  H     0.48995   0.99041   0.19642   0.00000  Uiso   1.00
H1958  H     0.45416   0.97389   0.22720   0.00000  Uiso   1.00
H1959  H     0.12536   0.93163   0.82778   0.00000  Uiso   1.00
H1960  H     0.07618   0.93359   0.82137   0.00000  Uiso   1.00
H1961  H     0.37310   0.97013   0.41595   0.00000  Uiso   1.00
H1962  H     0.12792   0.99944   0.81739   0.00000  Uiso   1.00
H1963  H     0.07877   0.50050   0.81480   0.00000  Uiso   1.00
H1964  H     0.07492   0.97583   0.88238   0.00000  Uiso   1.00
H1965  H     0.10259   0.51641   0.88143   0.00000  Uiso   1.00
H1966  H     0.12425   0.97253   0.88482   0.00000  Uiso   1.00
H1967  H     0.49256   0.88577   0.27449   0.00000  Uiso   1.00
H1968  H     0.45142   0.87305   0.29803   0.00000  Uiso   1.00
H1969  H     0.48126   0.94990   0.28308   0.00000  Uiso   1.00
H1970  H     0.43418   0.94270   0.29637   0.00000  Uiso   1.00
H1971  H     0.45400   0.91138   0.35729   0.00000  Uiso   1.00
H1972  H     0.32628   0.95914   0.42209   0.00000  Uiso   1.00
H1973  H     0.47318   0.95642   0.35425   0.00000  Uiso   1.00
H1974  H     0.00134   0.91712   0.34360   0.00000  Uiso   1.00
H1975  H     0.02914   0.62346   0.82950   0.00000  Uiso   1.00
H1976  H     0.07408   0.64163   0.82812   0.00000  Uiso   1.00
H1977  H     0.05462   0.56039   0.83975   0.00000  Uiso   1.00
H1978  H     0.10007   0.57891   0.83936   0.00000  Uiso   1.00
H1979  H     0.08438   0.61851   0.89679   0.00000  Uiso   1.00
H1980  H     0.07765   0.57099   0.90733   0.00000  Uiso   1.00
H1981  H     0.03881   0.59967   0.89720   0.00000  Uiso   1.00
H1982  H     0.11074   0.50695   0.72778   0.00000  Uiso   1.00
H1983  H     0.38835   0.94119   0.48039   0.00000  Uiso   1.00
H1984  H     0.12571   0.54692   0.70362   0.00000  Uiso   1.00
H1985  H     0.04676   0.52360   0.72155   0.00000  Uiso   1.00
H1986  H     0.05788   0.56873   0.70476   0.00000  Uiso   1.00
H1987  H     0.08618   0.54243   0.64480   0.00000  Uiso   1.00
H1988  H     0.03955   0.52779   0.65002   0.00000  Uiso   1.00
H1989  H     0.07633   0.99685   0.66179   0.00000  Uiso   1.00
H1990  H     0.37688   0.97082   0.17138   0.00000  Uiso   1.00
H1991  H     0.35925   0.92570   0.17219   0.00000  Uiso   1.00
H1992  H     0.44059   0.94581   0.16201   0.00000  Uiso   1.00
H1993  H     0.42207   0.90039   0.16100   0.00000  Uiso   1.00
H1994  H     0.34099   0.92883   0.48588   0.00000  Uiso   1.00
H1995  H     0.38345   0.91720   0.10322   0.00000  Uiso   1.00
H1996  H     0.43119   0.92424   0.09370   0.00000  Uiso   1.00
H1997  H     0.40222   0.96274   0.10433   0.00000  Uiso   1.00
H1998  H     0.00862   0.88299   0.72646   0.00000  Uiso   1.00
H1999  H     0.05050   0.88563   0.70009   0.00000  Uiso   1.00
H2000  H     0.00979   0.94984   0.73979   0.00000  Uiso   1.00
H2001  H     0.05292   0.95328   0.71498   0.00000  Uiso   1.00
H2002  H     0.02428   0.93207   0.65295   0.00000  Uiso   1.00
H2003  H     0.00075   0.97148   0.67217   0.00000  Uiso   1.00
H2004  H     0.48091   0.92688   0.67751   0.00000  Uiso   1.00
H2005  H     0.34431   0.89246   0.42359   0.00000  Uiso   1.00
H2006  H     0.42071   0.65316   0.16556   0.00000  Uiso   1.00
H2007  H     0.41304   0.60591   0.15223   0.00000  Uiso   1.00
H2008  H     0.48968   0.63871   0.16316   0.00000  Uiso   1.00
H2009  H     0.47790   0.59547   0.14173   0.00000  Uiso   1.00
H2010  H     0.44423   0.62937   0.08783   0.00000  Uiso   1.00
H2011  H     0.49240   0.63932   0.09002   0.00000  Uiso   1.00
H2012  H     0.46009   0.67176   0.10929   0.00000  Uiso   1.00
H2013  H     0.39586   0.94970   0.70113   0.00000  Uiso   1.00
H2014  H     0.43857   0.95579   0.72727   0.00000  Uiso   1.00
H2015  H     0.37306   0.50866   0.72607   0.00000  Uiso   1.00
H2016  H     0.45855   0.67128   0.42401   0.00000  Uiso   1.00
H2017  H     0.37653   0.87672   0.45956   0.00000  Uiso   1.00
H2018  H     0.41454   0.51530   0.75344   0.00000  Uiso   1.00
H2019  H     0.45053   0.51611   0.69193   0.00000  Uiso   1.00
H2020  H     0.41435   0.54956   0.69036   0.00000  Uiso   1.00
H2021  H     0.40957   0.50736   0.66372   0.00000  Uiso   1.00
H2022  H     0.12150   0.53635   0.17684   0.00000  Uiso   1.00
H2023  H     0.09229   0.57581   0.17617   0.00000  Uiso   1.00
H2024  H     0.06868   0.99893   0.20174   0.00000  Uiso   1.00
H2025  H     0.04009   0.53884   0.19897   0.00000  Uiso   1.00
H2026  H     0.05148   0.54274   0.12712   0.00000  Uiso   1.00
H2027  H     0.03259   0.99920   0.14039   0.00000  Uiso   1.00
H2028  H     0.39214   0.90397   0.41927   0.00000  Uiso   1.00
H2029  H     0.08059   0.50276   0.12982   0.00000  Uiso   1.00
H2030  H     0.48546   0.60087   0.76563   0.00000  Uiso   1.00
H2031  H     0.44773   0.57327   0.75104   0.00000  Uiso   1.00
H2032  H     0.48488   0.57250   0.83210   0.00000  Uiso   1.00
H2033  H     0.44646   0.54519   0.81829   0.00000  Uiso   1.00
H2034  H     0.48362   0.51602   0.76483   0.00000  Uiso   1.00
H2035  H     0.00304   0.50926   0.81269   0.00000  Uiso   1.00
H2036  H     0.02246   0.54267   0.78057   0.00000  Uiso   1.00
H2037  H     0.06898   0.87645   0.17300   0.00000  Uiso   1.00
H2038  H     0.06487   0.92531   0.18068   0.00000  Uiso   1.00
H2039  H     0.12968   0.95764   0.58074   0.00000  Uiso   1.00
H2040  H     0.00119   0.87083   0.18377   0.00000  Uiso   1.00
H2041  H     0.49818   0.91979   0.18688   0.00000  Uiso   1.00
H2042  H     0.02222   0.92529   0.11931   0.00000  Uiso   1.00
H2043  H     0.48330   0.89526   0.12000   0.00000  Uiso   1.00
H2044  H     0.02838   0.87629   0.11635   0.00000  Uiso   1.00
H2045  H     0.35145   0.73640   0.74325   0.00000  Uiso   1.00
H2046  H     0.32503   0.69829   0.75896   0.00000  Uiso   1.00
H2047  H     0.31592   0.73617   0.67914   0.00000  Uiso   1.00
H2048  H     0.28835   0.70008   0.69789   0.00000  Uiso   1.00
H2049  H     0.26893   0.73941   0.75388   0.00000  Uiso   1.00
H2050  H     0.17515   0.94664   0.56656   0.00000  Uiso   1.00
H2051  H     0.25740   0.75914   0.70719   0.00000  Uiso   1.00
H2052  H     0.29569   0.77616   0.73415   0.00000  Uiso   1.00
H2053  H     0.12858   0.81939   0.32688   0.00000  Uiso   1.00
H2054  H     0.17726   0.81570   0.31767   0.00000  Uiso   1.00
H2055  H     0.12296   0.75182   0.31744   0.00000  Uiso   1.00
H2056  H     0.17171   0.74876   0.31133   0.00000  Uiso   1.00
H2057  H     0.18124   0.77387   0.37820   0.00000  Uiso   1.00
H2058  H     0.15170   0.73470   0.37972   0.00000  Uiso   1.00
H2059  H     0.13241   0.77956   0.38426   0.00000  Uiso   1.00
H2060  H     0.25680   0.86530   0.77609   0.00000  Uiso   1.00
H2061  H     0.10648   0.94016   0.51392   0.00000  Uiso   1.00
H2062  H     0.29793   0.87940   0.79896   0.00000  Uiso   1.00
H2063  H     0.26801   0.80198   0.78835   0.00000  Uiso   1.00
H2064  H     0.31542   0.80956   0.80025   0.00000  Uiso   1.00
H2065  H     0.29699   0.84404   0.85992   0.00000  Uiso   1.00
H2066  H     0.27771   0.79896   0.85950   0.00000  Uiso   1.00
H2067  H     0.24932   0.83768   0.84753   0.00000  Uiso   1.00
H2068  H     0.22121   0.62676   0.32878   0.00000  Uiso   1.00
H2069  H     0.17603   0.60914   0.32769   0.00000  Uiso   1.00
H2070  H     0.19652   0.69023   0.33905   0.00000  Uiso   1.00
H2071  H     0.15091   0.67214   0.33895   0.00000  Uiso   1.00
H2072  H     0.15219   0.92678   0.50052   0.00000  Uiso   1.00
H2073  H     0.16687   0.63274   0.39634   0.00000  Uiso   1.00
H2074  H     0.17383   0.68028   0.40689   0.00000  Uiso   1.00
H2075  H     0.21250   0.65141   0.39652   0.00000  Uiso   1.00
H2076  H     0.13919   0.75677   0.77521   0.00000  Uiso   1.00
H2077  H     0.12527   0.79760   0.79904   0.00000  Uiso   1.00
H2078  H     0.20395   0.77358   0.77847   0.00000  Uiso   1.00
H2079  H     0.19269   0.81791   0.79796   0.00000  Uiso   1.00
H2080  H     0.16631   0.79026   0.85730   0.00000  Uiso   1.00
H2081  H     0.21251   0.77474   0.85014   0.00000  Uiso   1.00
H2082  H     0.17496   0.74504   0.83816   0.00000  Uiso   1.00
H2083  H     0.15324   0.88089   0.55418   0.00000  Uiso   1.00
H2084  H     0.39946   0.67240   0.33527   0.00000  Uiso   1.00
H2085  H     0.35119   0.66822   0.34607   0.00000  Uiso   1.00
H2086  H     0.39181   0.74091   0.33477   0.00000  Uiso   1.00
H2087  H     0.34503   0.73556   0.34913   0.00000  Uiso   1.00
H2088  H     0.36530   0.70371   0.41015   0.00000  Uiso   1.00
H2089  H     0.38420   0.74883   0.40634   0.00000  Uiso   1.00
H2090  H     0.41248   0.70984   0.39563   0.00000  Uiso   1.00
H2091  H     0.24757   0.64217   0.76511   0.00000  Uiso   1.00
H2092  H     0.21152   0.62228   0.79245   0.00000  Uiso   1.00
H2093  H     0.21750   0.70456   0.77417   0.00000  Uiso   1.00
H2094  H     0.11555   0.87337   0.52118   0.00000  Uiso   1.00
H2095  H     0.18478   0.68337   0.80584   0.00000  Uiso   1.00
H2096  H     0.23520   0.66238   0.84981   0.00000  Uiso   1.00
H2097  H     0.23574   0.71110   0.84385   0.00000  Uiso   1.00
H2098  H     0.26837   0.68339   0.81794   0.00000  Uiso   1.00
H2099  H     0.28622   0.87125   0.32294   0.00000  Uiso   1.00
H2100  H     0.32621   0.84277   0.32351   0.00000  Uiso   1.00
H2101  H     0.24940   0.81806   0.29788   0.00000  Uiso   1.00
H2102  H     0.28980   0.79005   0.29990   0.00000  Uiso   1.00
H2103  H     0.29459   0.80115   0.37187   0.00000  Uiso   1.00
H2104  H     0.25128   0.78141   0.35871   0.00000  Uiso   1.00
H2105  H     0.10747   0.89430   0.56812   0.00000  Uiso   1.00
H2106  H     0.25391   0.82938   0.36991   0.00000  Uiso   1.00
H2107  H     0.35869   0.75281   0.23420   0.00000  Uiso   1.00
H2108  H     0.37666   0.78966   0.20659   0.00000  Uiso   1.00
H2109  H     0.29513   0.77998   0.22733   0.00000  Uiso   1.00
H2110  H     0.31394   0.81456   0.19624   0.00000  Uiso   1.00
H2111  H     0.33586   0.76684   0.14967   0.00000  Uiso   1.00
H2112  H     0.28742   0.76323   0.15757   0.00000  Uiso   1.00
H2113  H     0.31791   0.73155   0.18105   0.00000  Uiso   1.00
H2114  H     0.13001   0.71416   0.67712   0.00000  Uiso   1.00
H2115  H     0.15787   0.67377   0.67665   0.00000  Uiso   1.00
H2116  H     0.04630   0.83625   0.42980   0.00000  Uiso   1.00
H2117  H     0.18336   0.74992   0.70354   0.00000  Uiso   1.00
H2118  H     0.21082   0.70916   0.70155   0.00000  Uiso   1.00
H2119  H     0.20111   0.70519   0.62938   0.00000  Uiso   1.00
H2120  H     0.22118   0.74808   0.64354   0.00000  Uiso   1.00
H2121  H     0.17336   0.74618   0.63126   0.00000  Uiso   1.00
H2122  H     0.26375   0.64907   0.25819   0.00000  Uiso   1.00
H2123  H     0.30157   0.67736   0.24517   0.00000  Uiso   1.00
H2124  H     0.26226   0.67968   0.32487   0.00000  Uiso   1.00
H2125  H     0.29854   0.70889   0.30954   0.00000  Uiso   1.00
H2126  H     0.25956   0.73187   0.25436   0.00000  Uiso   1.00
H2127  H     0.44721   0.60880   0.48327   0.00000  Uiso   1.00
H2128  H     0.05547   0.85168   0.47938   0.00000  Uiso   1.00
H2129  H     0.23997   0.74045   0.30182   0.00000  Uiso   1.00
H2130  H     0.22263   0.70403   0.27216   0.00000  Uiso   1.00
H2131  H     0.18045   0.87312   0.67256   0.00000  Uiso   1.00
H2132  H     0.18438   0.82429   0.68029   0.00000  Uiso   1.00
H2133  H     0.24811   0.87880   0.68259   0.00000  Uiso   1.00
H2134  H     0.25117   0.82995   0.68691   0.00000  Uiso   1.00
H2135  H     0.22732   0.82224   0.61954   0.00000  Uiso   1.00
H2136  H     0.26572   0.85294   0.61935   0.00000  Uiso   1.00
H2137  H     0.22029   0.87102   0.61528   0.00000  Uiso   1.00
H2138  H     0.13490   0.74221   0.22560   0.00000  Uiso   1.00
H2139  H     0.02368   0.89939   0.41363   0.00000  Uiso   1.00
H2140  H     0.12255   0.70089   0.20197   0.00000  Uiso   1.00
H2141  H     0.19906   0.73204   0.21637   0.00000  Uiso   1.00
H2142  H     0.19260   0.68472   0.20349   0.00000  Uiso   1.00
H2143  H     0.16014   0.70326   0.14264   0.00000  Uiso   1.00
H2144  H     0.20498   0.72311   0.14522   0.00000  Uiso   1.00
H2145  H     0.16535   0.75079   0.15588   0.00000  Uiso   1.00
H2146  H     0.37104   0.77546   0.67614   0.00000  Uiso   1.00
H2147  H     0.38803   0.82082   0.67395   0.00000  Uiso   1.00
H2148  H     0.30628   0.80097   0.66869   0.00000  Uiso   1.00
H2149  H     0.32617   0.84524   0.66155   0.00000  Uiso   1.00
H2150  H     0.03470   0.91380   0.46259   0.00000  Uiso   1.00
H2151  H     0.36270   0.81894   0.60526   0.00000  Uiso   1.00
H2152  H     0.31411   0.81618   0.59758   0.00000  Uiso   1.00
H2153  H     0.33936   0.77611   0.61168   0.00000  Uiso   1.00
H2154  H     0.24346   0.86159   0.22314   0.00000  Uiso   1.00
H2155  H     0.20242   0.87572   0.19987   0.00000  Uiso   1.00
H2156  H     0.22684   0.79689   0.21853   0.00000  Uiso   1.00
H2157  H     0.18238   0.80837   0.19952   0.00000  Uiso   1.00
H2158  H     0.21011   0.83605   0.14070   0.00000  Uiso   1.00
H2159  H     0.22536   0.78968   0.14655   0.00000  Uiso   1.00
H2160  H     0.25535   0.82670   0.15946   0.00000  Uiso   1.00
H2161  H     0.10062   0.89569   0.45044   0.00000  Uiso   1.00
H2162  H     0.32725   0.60105   0.66412   0.00000  Uiso   1.00
H2163  H     0.33181   0.64944   0.65433   0.00000  Uiso   1.00
H2164  H     0.25878   0.60910   0.66489   0.00000  Uiso   1.00
H2165  H     0.26439   0.65618   0.65195   0.00000  Uiso   1.00
H2166  H     0.29580   0.63739   0.59014   0.00000  Uiso   1.00
H2167  H     0.25066   0.61841   0.59371   0.00000  Uiso   1.00
H2168  H     0.28974   0.58990   0.60327   0.00000  Uiso   1.00
H2169  H     0.41926   0.82114   0.35171   0.00000  Uiso   1.00
H2170  H     0.41963   0.67916   0.64548   0.00000  Uiso   1.00
H2171  H     0.18362   0.91578   0.35311   0.00000  Uiso   1.00
H2172  H     0.08418   0.93098   0.41845   0.00000  Uiso   1.00
H2173  H     0.31503   0.91474   0.64413   0.00000  Uiso   1.00
H2174  H     0.08748   0.69075   0.35463   0.00000  Uiso   1.00
H2175  H     0.08271   0.81704   0.64503   0.00000  Uiso   1.00
H2176  H     0.30842   0.59103   0.35995   0.00000  Uiso   1.00
H2177  H     0.17846   0.57926   0.64718   0.00000  Uiso   1.00
H2178  H     0.17027   0.57112   0.85130   0.00000  Uiso   1.00
H2179  H     0.16703   0.93215   0.14677   0.00000  Uiso   1.00
H2180  H     0.44207   0.65801   0.86058   0.00000  Uiso   1.00
H2181  H     0.07098   0.67103   0.14549   0.00000  Uiso   1.00
H2182  H     0.33256   0.93289   0.85506   0.00000  Uiso   1.00
H2183  H     0.08853   0.88484   0.40046   0.00000  Uiso   1.00
H2184  H     0.33533   0.56523   0.14296   0.00000  Uiso   1.00
H2185  H     0.06279   0.83772   0.85510   0.00000  Uiso   1.00
H2186  H     0.42673   0.82792   0.14871   0.00000  Uiso   1.00
H2187  H     0.04181   0.62879   0.57836   0.00000  Uiso   1.00
H2188  H     0.05310   0.67422   0.56500   0.00000  Uiso   1.00
H2189  H     0.05753   0.60694   0.50998   0.00000  Uiso   1.00
H2190  H     0.07246   0.65250   0.49883   0.00000  Uiso   1.00
H2191  H     0.42972   0.65470   0.48713   0.00000  Uiso   1.00
H2192  H     0.11861   0.64942   0.55235   0.00000  Uiso   1.00
H2193  H     0.12462   0.61284   0.51753   0.00000  Uiso   1.00
H2194  H     0.10364   0.60379   0.56409   0.00000  Uiso   1.00
H2195  H     0.16499   0.54419   0.42643   0.00000  Uiso   1.00
H2196  H     0.14659   0.55611   0.47408   0.00000  Uiso   1.00
H2197  H     0.10281   0.52028   0.40739   0.00000  Uiso   1.00
H2198  H     0.08545   0.53561   0.45381   0.00000  Uiso   1.00
H2199  H     0.10423   0.59985   0.43706   0.00000  Uiso   1.00
H2200  H     0.07194   0.58102   0.40268   0.00000  Uiso   1.00
H2201  H     0.11949   0.58366   0.38973   0.00000  Uiso   1.00
H2202  H     0.39397   0.64448   0.42454   0.00000  Uiso   1.00
H2203  H     0.37330   0.53148   0.58236   0.00000  Uiso   1.00
H2204  H     0.32741   0.54486   0.57306   0.00000  Uiso   1.00
H2205  H     0.39139   0.55555   0.51534   0.00000  Uiso   1.00
H2206  H     0.34553   0.57297   0.51021   0.00000  Uiso   1.00
H2207  H     0.35423   0.60970   0.57216   0.00000  Uiso   1.00
H2208  H     0.38639   0.62147   0.53470   0.00000  Uiso   1.00
H2209  H     0.40073   0.59330   0.57492   0.00000  Uiso   1.00
H2210  H     0.21061   0.88034   0.91488   0.00000  Uiso   1.00
H2211  H     0.20108   0.92698   0.92505   0.00000  Uiso   1.00
H2212  H     0.18392   0.86170   0.97895   0.00000  Uiso   1.00
H2213  H     0.38125   0.61396   0.46310   0.00000  Uiso   1.00
H2214  H     0.17365   0.90877   0.98982   0.00000  Uiso   1.00
H2215  H     0.13369   0.91231   0.93060   0.00000  Uiso   1.00
H2216  H     0.11918   0.87670   0.96304   0.00000  Uiso   1.00
H2217  H     0.14401   0.86514   0.91933   0.00000  Uiso   1.00
H2218  H     0.20860   0.61967   0.08146   0.00000  Uiso   1.00
H2219  H     0.19601   0.57548   0.06459   0.00000  Uiso   1.00
H2220  H     0.19583   0.64571   0.01433   0.00000  Uiso   1.00
H2221  H     0.17986   0.60145   0.99912   0.00000  Uiso   1.00
H2222  H     0.13194   0.60312   0.05086   0.00000  Uiso   1.00
H2223  H     0.12832   0.64167   0.01849   0.00000  Uiso   1.00
H2224  H     0.40991   0.59779   0.42396   0.00000  Uiso   1.00
H2225  H     0.14790   0.64751   0.06647   0.00000  Uiso   1.00
H2226  H     0.08491   0.70857   0.92784   0.00000  Uiso   1.00
H2227  H     0.10418   0.69782   0.97540   0.00000  Uiso   1.00
H2228  H     0.14602   0.73347   0.90764   0.00000  Uiso   1.00
H2229  H     0.16454   0.71989   0.95415   0.00000  Uiso   1.00
H2230  H     0.14778   0.65468   0.93908   0.00000  Uiso   1.00
H2231  H     0.17860   0.67366   0.90357   0.00000  Uiso   1.00
H2232  H     0.13090   0.66904   0.89176   0.00000  Uiso   1.00
H2233  H     0.41763   0.69739   0.06591   0.00000  Uiso   1.00
H2234  H     0.39586   0.69084   0.01869   0.00000  Uiso   1.00
H2235  H     0.45847   0.86210   0.58699   0.00000  Uiso   1.00
H2236  H     0.35762   0.71942   0.09293   0.00000  Uiso   1.00
H2237  H     0.33659   0.71040   0.04632   0.00000  Uiso   1.00
H2238  H     0.35396   0.64446   0.05193   0.00000  Uiso   1.00
H2239  H     0.32646   0.65958   0.09265   0.00000  Uiso   1.00
H2240  H     0.37497   0.65363   0.09888   0.00000  Uiso   1.00
H2241  H     0.30941   0.58909   0.96019   0.00000  Uiso   1.00
H2242  H     0.29384   0.62282   0.99532   0.00000  Uiso   1.00
H2243  H     0.29333   0.63056   0.90580   0.00000  Uiso   1.00
H2244  H     0.27597   0.66389   0.93989   0.00000  Uiso   1.00
H2245  H     0.33815   0.66953   0.96995   0.00000  Uiso   1.00
H2246  H     0.44410   0.82193   0.56199   0.00000  Uiso   1.00
H2247  H     0.33861   0.67939   0.91841   0.00000  Uiso   1.00
H2248  H     0.35553   0.63607   0.93560   0.00000  Uiso   1.00
H2249  H     0.29378   0.91611   0.07287   0.00000  Uiso   1.00
H2250  H     0.30630   0.89846   0.02508   0.00000  Uiso   1.00
H2251  H     0.27045   0.85324   0.09012   0.00000  Uiso   1.00
H2252  H     0.28713   0.83681   0.04383   0.00000  Uiso   1.00
H2253  H     0.35064   0.85653   0.06287   0.00000  Uiso   1.00
H2254  H     0.33164   0.82379   0.09632   0.00000  Uiso   1.00
H2255  H     0.33318   0.87125   0.10988   0.00000  Uiso   1.00
H2256  H     0.37741   0.78204   0.91781   0.00000  Uiso   1.00
O2257  O     0.25000   0.50000   0.25000   0.00000  Uiso   1.00
O2258  O     0.25000   0.96963   0.66245   0.00000  Uiso   1.00
O2259  O     0.31022   0.63653   0.70861   0.00000  Uiso   1.00
O2260  O     0.44274   0.84161   0.42347   0.00000  Uiso   1.00
O2261  O     0.48789   0.83979   0.37065   0.00000  Uiso   1.00
O2262  O     0.42981   0.79993   0.36558   0.00000  Uiso   1.00
O2263  O     0.44719   0.65670   0.57558   0.00000  Uiso   1.00
O2264  O     0.48953   0.66122   0.63101   0.00000  Uiso   1.00
O2265  O     0.43017   0.70005   0.63123   0.00000  Uiso   1.00
O2266  O     0.15871   0.94246   0.42248   0.00000  Uiso   1.00
O2267  O     0.16221   0.98453   0.36709   0.00000  Uiso   1.00
O2268  O     0.20372   0.92702   0.36826   0.00000  Uiso   1.00
O2269  O     0.46964   0.75000   0.33755   0.00000  Uiso   1.00
O2270  O     0.34138   0.94379   0.57616   0.00000  Uiso   1.00
O2271  O     0.33588   0.98368   0.63358   0.00000  Uiso   1.00
O2272  O     0.29528   0.92604   0.62848   0.00000  Uiso   1.00
O2273  O     0.05971   0.66120   0.42317   0.00000  Uiso   1.00
O2274  O     0.02081   0.66622   0.36506   0.00000  Uiso   1.00
O2275  O     0.07670   0.70902   0.37261   0.00000  Uiso   1.00
O2276  O     0.05225   0.84279   0.57717   0.00000  Uiso   1.00
O2277  O     0.01290   0.83576   0.63456   0.00000  Uiso   1.00
O2278  O     0.07214   0.79705   0.62918   0.00000  Uiso   1.00
O2279  O     0.33734   0.56001   0.42586   0.00000  Uiso   1.00
O2280  O     0.03037   0.75000   0.66245   0.00000  Uiso   1.00
O2281  O     0.33329   0.52248   0.36653   0.00000  Uiso   1.00
O2282  O     0.28947   0.57781   0.37477   0.00000  Uiso   1.00
O2283  O     0.15581   0.55179   0.57701   0.00000  Uiso   1.00
O2284  O     0.16162   0.50967   0.63221   0.00000  Uiso   1.00
O2285  O     0.19934   0.56935   0.63213   0.00000  Uiso   1.00
O2286  O     0.19518   0.59358   0.92229   0.00000  Uiso   1.00
O2287  O     0.23924   0.58893   0.86859   0.00000  Uiso   1.00
O2288  O     0.18012   0.55028   0.86635   0.00000  Uiso   1.00
O2289  O     0.19317   0.90804   0.07688   0.00000  Uiso   1.00
O2290  O     0.23605   0.91217   0.13186   0.00000  Uiso   1.00
O2291  O     0.00000   0.71963   0.83755   0.00000  Uiso   1.00
O2292  O     0.17771   0.95252   0.13179   0.00000  Uiso   1.00
O2293  O     0.41444   0.68846   0.92627   0.00000  Uiso   1.00
O2294  O     0.41535   0.72663   0.86755   0.00000  Uiso   1.00
O2295  O     0.46120   0.67269   0.87360   0.00000  Uiso   1.00
O2296  O     0.09439   0.70068   0.07632   0.00000  Uiso   1.00
O2297  O     0.08690   0.74089   0.13324   0.00000  Uiso   1.00
O2298  O     0.05035   0.68056   0.12980   0.00000  Uiso   1.00
O2299  O     0.30252   0.90737   0.92341   0.00000  Uiso   1.00
O2300  O     0.26312   0.91461   0.86585   0.00000  Uiso   1.00
O2301  O     0.32235   0.95284   0.87132   0.00000  Uiso   1.00
O2302  O     0.00000   0.78037   0.16245   0.00000  Uiso   1.00
O2303  O     0.30559   0.58961   0.07493   0.00000  Uiso   1.00
O2304  O     0.26569   0.58659   0.13231   0.00000  Uiso   1.00
O2305  O     0.32317   0.54500   0.12888   0.00000  Uiso   1.00
O2306  O     0.08966   0.81060   0.92336   0.00000  Uiso   1.00
O2307  O     0.08619   0.76921   0.86701   0.00000  Uiso   1.00
O2308  O     0.04326   0.82566   0.87019   0.00000  Uiso   1.00
O2309  O     0.40517   0.80218   0.07800   0.00000  Uiso   1.00
O2310  O     0.41079   0.75823   0.13158   0.00000  Uiso   1.00
O2311  O     0.44798   0.81821   0.13411   0.00000  Uiso   1.00
O2312  O     0.28037   0.50000   0.83755   0.00000  Uiso   1.00
O2313  O     0.21964   0.50000   0.16245   0.00000  Uiso   1.00
O2314  O     0.00000   0.78036   0.83755   0.00000  Uiso   1.00
O2315  O     0.00000   0.71963   0.16245   0.00000  Uiso   1.00
O2316  O     0.21964   0.50000   0.83755   0.00000  Uiso   1.00
O2317  O     0.25000   0.50000   0.75000   0.00000  Uiso   1.00
O2318  O     0.28037   0.50000   0.16245   0.00000  Uiso   1.00
O2319  O     0.20725   0.57308   0.27302   0.00000  Uiso   1.00
O2320  O     0.29276   0.92692   0.72698   0.00000  Uiso   1.00
O2321  O     0.42693   0.70725   0.27302   0.00000  Uiso   1.00
O2322  O     0.07308   0.79275   0.72698   0.00000  Uiso   1.00
O2323  O     0.29276   0.92692   0.27302   0.00000  Uiso   1.00
O2324  O     0.20725   0.57308   0.72698   0.00000  Uiso   1.00
O2325  O     0.07308   0.79275   0.27302   0.00000  Uiso   1.00
O2326  O     0.42693   0.70725   0.72698   0.00000  Uiso   1.00
O2327  O     0.20725   0.92692   0.72698   0.00000  Uiso   1.00
O2328  O     0.00000   0.75000   0.25000   0.00000  Uiso   1.00
O2329  O     0.29276   0.57308   0.27302   0.00000  Uiso   1.00
O2330  O     0.42693   0.79275   0.72698   0.00000  Uiso   1.00
O2331  O     0.07308   0.70724   0.27302   0.00000  Uiso   1.00
O2332  O     0.29276   0.57308   0.72698   0.00000  Uiso   1.00
O2333  O     0.20725   0.92692   0.27302   0.00000  Uiso   1.00
O2334  O     0.07308   0.70724   0.72698   0.00000  Uiso   1.00
O2335  O     0.42693   0.79275   0.27302   0.00000  Uiso   1.00
O2336  O     0.45725   0.82307   0.77302   0.00000  Uiso   1.00
O2337  O     0.04276   0.67692   0.22698   0.00000  Uiso   1.00
O2338  O     0.17693   0.95724   0.77302   0.00000  Uiso   1.00
O2339  O     0.00000   0.75000   0.75000   0.00000  Uiso   1.00
O2340  O     0.32308   0.54276   0.22698   0.00000  Uiso   1.00
O2341  O     0.04276   0.67692   0.77302   0.00000  Uiso   1.00
O2342  O     0.45725   0.82307   0.22698   0.00000  Uiso   1.00
O2343  O     0.32308   0.54276   0.77302   0.00000  Uiso   1.00
O2344  O     0.17693   0.95724   0.22698   0.00000  Uiso   1.00
O2345  O     0.45725   0.67693   0.22698   0.00000  Uiso   1.00
O2346  O     0.04276   0.82307   0.77302   0.00000  Uiso   1.00
O2347  O     0.17693   0.54276   0.22698   0.00000  Uiso   1.00
O2348  O     0.32308   0.95724   0.77302   0.00000  Uiso   1.00
O2349  O     0.04276   0.82307   0.22698   0.00000  Uiso   1.00
O2350  O     0.25000   0.96963   0.33755   0.00000  Uiso   1.00
O2351  O     0.45725   0.67693   0.77302   0.00000  Uiso   1.00
O2352  O     0.32308   0.95724   0.22698   0.00000  Uiso   1.00
O2353  O     0.17693   0.54276   0.77302   0.00000  Uiso   1.00
O2354  O     0.00083   0.65027   0.45978   0.00000  Uiso   1.00
O2355  O     0.49174   0.84879   0.54097   0.00000  Uiso   1.00
O2356  O     0.34884   0.99894   0.46012   0.00000  Uiso   1.00
O2357  O     0.14983   0.99219   0.53944   0.00000  Uiso   1.00
O2358  O     0.00059   0.84995   0.46259   0.00000  Uiso   1.00
O2359  O     0.00679   0.65028   0.53799   0.00000  Uiso   1.00
O2360  O     0.14924   0.50053   0.46114   0.00000  Uiso   1.00
O2361  O     0.25000   0.53037   0.66245   0.00000  Uiso   1.00
O2362  O     0.34958   0.50226   0.53835   0.00000  Uiso   1.00
O2363  O     0.24193   0.90091   0.95919   0.00000  Uiso   1.00
O2364  O     0.24398   0.59896   0.04097   0.00000  Uiso   1.00
O2365  O     0.09998   0.75312   0.96211   0.00000  Uiso   1.00
O2366  O     0.40019   0.74457   0.03809   0.00000  Uiso   1.00
O2367  O     0.25312   0.59956   0.96128   0.00000  Uiso   1.00
O2368  O     0.25053   0.90000   0.03731   0.00000  Uiso   1.00
O2369  O     0.40081   0.74962   0.95934   0.00000  Uiso   1.00
O2370  O     0.09909   0.76141   0.04047   0.00000  Uiso   1.00
O2371  O     0.10456   0.94792   0.24116   0.00000  Uiso   1.00
O2372  O     0.03037   0.75000   0.33755   0.00000  Uiso   1.00
O2373  O     0.38277   0.56537   0.79951   0.00000  Uiso   1.00
O2374  O     0.05168   0.60498   0.23639   0.00000  Uiso   1.00
O2375  O     0.44646   0.89362   0.77065   0.00000  Uiso   1.00
O2376  O     0.38738   0.56026   0.20913   0.00000  Uiso   1.00
O2377  O     0.10649   0.94585   0.77192   0.00000  Uiso   1.00
O2378  O     0.44708   0.89522   0.24068   0.00000  Uiso   1.00
O2379  O     0.05756   0.60781   0.78073   0.00000  Uiso   1.00
O2380  O     0.10483   0.55315   0.76126   0.00000  Uiso   1.00
O2381  O     0.39245   0.94239   0.22003   0.00000  Uiso   1.00
O2382  O     0.05224   0.89504   0.76174   0.00000  Uiso   1.00
O2383  O     0.46964   0.75000   0.66245   0.00000  Uiso   1.00
O2384  O     0.43813   0.61419   0.20609   0.00000  Uiso   1.00
O2385  O     0.39387   0.94807   0.76281   0.00000  Uiso   1.00
O2386  O     0.10560   0.55294   0.23172   0.00000  Uiso   1.00
O2387  O     0.43807   0.61435   0.79425   0.00000  Uiso   1.00
O2388  O     0.05394   0.89362   0.22938   0.00000  Uiso   1.00
O2389  O     0.36145   0.69033   0.71078   0.00000  Uiso   1.00
O2390  O     0.14400   0.80403   0.27008   0.00000  Uiso   1.00
O2391  O     0.30224   0.85445   0.74275   0.00000  Uiso   1.00
O2392  O     0.19254   0.64243   0.28019   0.00000  Uiso   1.00
O2393  O     0.14533   0.80208   0.74099   0.00000  Uiso   1.00
O2394  O     0.25000   0.53037   0.33755   0.00000  Uiso   1.00
O2395  O     0.36329   0.68970   0.29154   0.00000  Uiso   1.00
O2396  O     0.19831   0.64490   0.73725   0.00000  Uiso   1.00
O2397  O     0.30291   0.85574   0.26798   0.00000  Uiso   1.00
O2398  O     0.35493   0.80175   0.26262   0.00000  Uiso   1.00
O2399  O     0.14432   0.69694   0.73216   0.00000  Uiso   1.00
O2400  O     0.30986   0.63787   0.29019   0.00000  Uiso   1.00
O2401  O     0.19583   0.85634   0.72887   0.00000  Uiso   1.00
O2402  O     0.14538   0.69701   0.25923   0.00000  Uiso   1.00
O2403  O     0.35650   0.80622   0.72360   0.00000  Uiso   1.00
O2404  O     0.19825   0.85462   0.25747   0.00000  Uiso   1.00
S2405  S     0.46224   0.81739   0.39478   0.00000  Uiso   1.00
S2406  S     0.21135   0.93348   0.10527   0.00000  Uiso   1.00
S2407  S     0.43848   0.70638   0.89658   0.00000  Uiso   1.00
S2408  S     0.06753   0.71606   0.10512   0.00000  Uiso   1.00
S2409  S     0.28686   0.93421   0.89486   0.00000  Uiso   1.00
S2410  S     0.28860   0.56470   0.10436   0.00000  Uiso   1.00
S2411  S     0.06439   0.79219   0.89498   0.00000  Uiso   1.00
S2412  S     0.43114   0.78448   0.10616   0.00000  Uiso   1.00
S2413  S     0.46438   0.68221   0.60460   0.00000  Uiso   1.00
S2414  S     0.18390   0.96066   0.39417   0.00000  Uiso   1.00
S2415  S     0.31523   0.96065   0.60474   0.00000  Uiso   1.00
S2416  S     0.04235   0.68721   0.39492   0.00000  Uiso   1.00
S2417  S     0.03660   0.81600   0.60557   0.00000  Uiso   1.00
S2418  S     0.31177   0.54328   0.39661   0.00000  Uiso   1.00
S2419  S     0.18193   0.53492   0.60561   0.00000  Uiso   1.00
S2420  S     0.21353   0.56799   0.89412   0.00000  Uiso   1.00
Zn2421 Zn    0.20660   0.50000   0.21735   0.00000  Uiso   1.00
Zn2422 Zn    0.04341   0.75000   0.28265   0.00000  Uiso   1.00
Zn2423 Zn    0.25000   0.95659   0.71735   0.00000  Uiso   1.00
Zn2424 Zn    0.25000   0.54341   0.28265   0.00000  Uiso   1.00
Zn2425 Zn    0.04341   0.75000   0.71735   0.00000  Uiso   1.00
Zn2426 Zn    0.45660   0.75000   0.28265   0.00000  Uiso   1.00
Zn2427 Zn    0.25000   0.54341   0.71735   0.00000  Uiso   1.00
Zn2428 Zn    0.25000   0.95659   0.28265   0.00000  Uiso   1.00
Zn2429 Zn    0.29341   0.50000   0.78265   0.00000  Uiso   1.00
Zn2430 Zn    0.00000   0.70660   0.21735   0.00000  Uiso   1.00
Zn2431 Zn    0.00000   0.79340   0.78265   0.00000  Uiso   1.00
Zn2432 Zn    0.29341   0.50000   0.21735   0.00000  Uiso   1.00
Zn2433 Zn    0.20660   0.50000   0.78265   0.00000  Uiso   1.00
Zn2434 Zn    0.00000   0.79340   0.21735   0.00000  Uiso   1.00
Zn2435 Zn    0.00000   0.70660   0.78265   0.00000  Uiso   1.00
Zn2436 Zn    0.45660   0.75000   0.71735   0.00000  Uiso   1.00
C2437  C     0.98789   0.78209   0.41887   0.00000  Uiso   1.00
C2438  C     0.73756   0.96798   0.08111   0.00000  Uiso   1.00
C2439  C     0.71601   0.50204   0.54114   0.00000  Uiso   1.00
C2440  C     0.99504   0.78354   0.45940   0.00000  Uiso   1.00
C2441  C     0.99712   0.71640   0.54062   0.00000  Uiso   1.00
C2442  C     0.71583   0.99516   0.45900   0.00000  Uiso   1.00
C2443  C     0.78271   0.99598   0.54087   0.00000  Uiso   1.00
C2444  C     0.75163   0.96722   0.95848   0.00000  Uiso   1.00
C2445  C     0.75220   0.53278   0.04127   0.00000  Uiso   1.00
C2446  C     0.53332   0.75711   0.95947   0.00000  Uiso   1.00
C2447  C     0.96621   0.75375   0.04093   0.00000  Uiso   1.00
C2448  C     0.74529   0.53379   0.95923   0.00000  Uiso   1.00
C2449  C     0.97000   0.73736   0.91897   0.00000  Uiso   1.00
C2450  C     0.74436   0.96650   0.04052   0.00000  Uiso   1.00
C2451  C     0.96749   0.74606   0.95893   0.00000  Uiso   1.00
C2452  C     0.53306   0.74970   0.04149   0.00000  Uiso   1.00
C2453  C     0.59834   0.84825   0.24995   0.00000  Uiso   1.00
C2454  C     0.90146   0.65221   0.75055   0.00000  Uiso   1.00
C2455  C     0.65079   0.59745   0.25205   0.00000  Uiso   1.00
C2456  C     0.84803   0.90219   0.75067   0.00000  Uiso   1.00
C2457  C     0.90169   0.65214   0.24965   0.00000  Uiso   1.00
C2458  C     0.59792   0.84802   0.75020   0.00000  Uiso   1.00
C2459  C     0.84744   0.90081   0.24788   0.00000  Uiso   1.00
C2460  C     0.53154   0.74096   0.08149   0.00000  Uiso   1.00
C2461  C     0.65253   0.59833   0.75043   0.00000  Uiso   1.00
C2462  C     0.59916   0.65255   0.75217   0.00000  Uiso   1.00
C2463  C     0.90163   0.84743   0.24983   0.00000  Uiso   1.00
C2464  C     0.65171   0.90174   0.75005   0.00000  Uiso   1.00
C2465  C     0.84804   0.59828   0.24992   0.00000  Uiso   1.00
C2466  C     0.90212   0.84877   0.74892   0.00000  Uiso   1.00
C2467  C     0.59742   0.65160   0.25015   0.00000  Uiso   1.00
C2468  C     0.84747   0.59870   0.75102   0.00000  Uiso   1.00
C2469  C     0.65208   0.90201   0.24969   0.00000  Uiso   1.00
C2470  C     0.99957   0.75019   0.47949   0.00000  Uiso   1.00
C2471  C     0.76041   0.96910   0.91851   0.00000  Uiso   1.00
C2472  C     0.99963   0.74982   0.52049   0.00000  Uiso   1.00
C2473  C     0.74901   0.99962   0.47956   0.00000  Uiso   1.00
C2474  C     0.74926   0.99928   0.52051   0.00000  Uiso   1.00
C2475  C     0.74822   0.50029   0.97937   0.00000  Uiso   1.00
C2476  C     0.74813   0.99985   0.02037   0.00000  Uiso   1.00
C2477  C     0.50020   0.75191   0.97973   0.00000  Uiso   1.00
C2478  C     0.99981   0.75189   0.02071   0.00000  Uiso   1.00
C2479  C     0.96753   0.64610   0.43927   0.00000  Uiso   1.00
C2480  C     0.93728   0.63264   0.46632   0.00000  Uiso   1.00
C2481  C     0.90356   0.62157   0.44296   0.00000  Uiso   1.00
C2482  C     0.76067   0.53079   0.08131   0.00000  Uiso   1.00
C2483  C     0.95636   0.84944   0.55758   0.00000  Uiso   1.00
C2484  C     0.93091   0.87286   0.53265   0.00000  Uiso   1.00
C2485  C     0.89212   0.87228   0.54862   0.00000  Uiso   1.00
C2486  C     0.85163   0.96612   0.43834   0.00000  Uiso   1.00
C2487  C     0.86293   0.93419   0.46434   0.00000  Uiso   1.00
C2488  C     0.86937   0.89975   0.44010   0.00000  Uiso   1.00
C2489  C     0.64836   0.95662   0.55526   0.00000  Uiso   1.00
C2490  C     0.63291   0.92967   0.52531   0.00000  Uiso   1.00
C2491  C     0.62696   0.89225   0.54342   0.00000  Uiso   1.00
C2492  C     0.53763   0.85550   0.45326   0.00000  Uiso   1.00
C2493  C     0.53143   0.76396   0.91894   0.00000  Uiso   1.00
C2494  C     0.54222   0.89452   0.43880   0.00000  Uiso   1.00
C2495  C     0.58138   0.90182   0.42626   0.00000  Uiso   1.00
C2496  C     0.54265   0.64784   0.55327   0.00000  Uiso   1.00
C2497  C     0.56897   0.63240   0.52262   0.00000  Uiso   1.00
C2498  C     0.60627   0.62413   0.54037   0.00000  Uiso   1.00
C2499  C     0.64434   0.53691   0.44887   0.00000  Uiso   1.00
C2500  C     0.60630   0.54081   0.43101   0.00000  Uiso   1.00
C2501  C     0.60023   0.57877   0.41412   0.00000  Uiso   1.00
C2502  C     0.85305   0.53576   0.55863   0.00000  Uiso   1.00
C2503  C     0.86715   0.56567   0.53160   0.00000  Uiso   1.00
C2504  C     0.96723   0.76039   0.08155   0.00000  Uiso   1.00
C2505  C     0.87774   0.59960   0.55485   0.00000  Uiso   1.00
C2506  C     0.70814   0.90051   0.93901   0.00000  Uiso   1.00
C2507  C     0.67711   0.88856   0.96588   0.00000  Uiso   1.00
C2508  C     0.64132   0.88551   0.94323   0.00000  Uiso   1.00
C2509  C     0.70781   0.60199   0.05509   0.00000  Uiso   1.00
C2510  C     0.68311   0.62001   0.02454   0.00000  Uiso   1.00
C2511  C     0.64548   0.62857   0.04124   0.00000  Uiso   1.00
C2512  C     0.60564   0.71670   0.95002   0.00000  Uiso   1.00
C2513  C     0.64352   0.71347   0.93174   0.00000  Uiso   1.00
C2514  C     0.65052   0.67527   0.91559   0.00000  Uiso   1.00
C2515  C     0.50018   0.75081   0.39826   0.00000  Uiso   1.00
C2516  C     0.89562   0.70723   0.04617   0.00000  Uiso   1.00
C2517  C     0.85893   0.70198   0.06638   0.00000  Uiso   1.00
C2518  C     0.85335   0.66238   0.07813   0.00000  Uiso   1.00
C2519  C     0.78948   0.61160   0.96547   0.00000  Uiso   1.00
C2520  C     0.79642   0.64175   0.93582   0.00000  Uiso   1.00
C2521  C     0.83460   0.65758   0.94035   0.00000  Uiso   1.00
C2522  C     0.78697   0.89560   0.04997   0.00000  Uiso   1.00
C2523  C     0.79139   0.85748   0.06719   0.00000  Uiso   1.00
C2524  C     0.82914   0.85205   0.08512   0.00000  Uiso   1.00
C2525  C     0.89484   0.78499   0.94419   0.00000  Uiso   1.00
C2526  C     0.99994   0.74943   0.60177   0.00000  Uiso   1.00
C2527  C     0.87464   0.80886   0.97400   0.00000  Uiso   1.00
C2528  C     0.86283   0.84508   0.95619   0.00000  Uiso   1.00
C2529  C     0.59869   0.79544   0.06019   0.00000  Uiso   1.00
C2530  C     0.61053   0.82621   0.03300   0.00000  Uiso   1.00
C2531  C     0.61308   0.86230   0.05516   0.00000  Uiso   1.00
C2532  C     0.60458   0.96447   0.27863   0.00000  Uiso   1.00
C2533  C     0.56681   0.96204   0.29735   0.00000  Uiso   1.00
C2534  C     0.56721   0.97838   0.33835   0.00000  Uiso   1.00
C2535  C     0.86886   0.57470   0.83669   0.00000  Uiso   1.00
C2536  C     0.86693   0.54018   0.86142   0.00000  Uiso   1.00
C2537  C     0.74888   0.50044   0.39830   0.00000  Uiso   1.00
C2538  C     0.84728   0.54713   0.89995   0.00000  Uiso   1.00
C2539  C     0.53142   0.60466   0.27156   0.00000  Uiso   1.00
C2540  C     0.53615   0.56842   0.29303   0.00000  Uiso   1.00
C2541  C     0.50946   0.56561   0.32703   0.00000  Uiso   1.00
C2542  C     0.94805   0.89954   0.81144   0.00000  Uiso   1.00
C2543  C     0.98789   0.90349   0.82382   0.00000  Uiso   1.00
C2544  C     0.99147   0.90977   0.86769   0.00000  Uiso   1.00
C2545  C     0.91358   0.53852   0.22884   0.00000  Uiso   1.00
C2546  C     0.94253   0.52569   0.19964   0.00000  Uiso   1.00
C2547  C     0.96897   0.99861   0.21804   0.00000  Uiso   1.00
C2548  C     0.98964   0.71764   0.58104   0.00000  Uiso   1.00
C2549  C     0.74965   0.99955   0.60174   0.00000  Uiso   1.00
C2550  C     0.60249   0.94638   0.81297   0.00000  Uiso   1.00
C2551  C     0.60260   0.98580   0.82733   0.00000  Uiso   1.00
C2552  C     0.60092   0.98762   0.87178   0.00000  Uiso   1.00
C2553  C     0.96354   0.89382   0.27826   0.00000  Uiso   1.00
C2554  C     0.96224   0.93123   0.29815   0.00000  Uiso   1.00
C2555  C     0.97343   0.92877   0.34099   0.00000  Uiso   1.00
C2556  C     0.55768   0.61685   0.82110   0.00000  Uiso   1.00
C2557  C     0.57106   0.58500   0.84614   0.00000  Uiso   1.00
C2558  C     0.56775   0.59418   0.88951   0.00000  Uiso   1.00
C2559  C     0.60447   0.53633   0.72385   0.00000  Uiso   1.00
C2560  C     0.74997   0.50089   0.89818   0.00000  Uiso   1.00
C2561  C     0.56679   0.53976   0.70475   0.00000  Uiso   1.00
C2562  C     0.56737   0.52579   0.66273   0.00000  Uiso   1.00
C2563  C     0.88377   0.94235   0.17959   0.00000  Uiso   1.00
C2564  C     0.91608   0.92949   0.15479   0.00000  Uiso   1.00
C2565  C     0.90764   0.93369   0.11136   0.00000  Uiso   1.00
C2566  C     0.53486   0.89795   0.72489   0.00000  Uiso   1.00
C2567  C     0.52686   0.93801   0.71612   0.00000  Uiso   1.00
C2568  C     0.50695   0.94226   0.67724   0.00000  Uiso   1.00
C2569  C     0.93220   0.62498   0.16703   0.00000  Uiso   1.00
C2570  C     0.96876   0.62417   0.14553   0.00000  Uiso   1.00
C2571  C     0.74965   0.99930   0.10168   0.00000  Uiso   1.00
C2572  C     0.96604   0.64227   0.10564   0.00000  Uiso   1.00
C2573  C     0.90881   0.96169   0.72780   0.00000  Uiso   1.00
C2574  C     0.90282   0.50285   0.72667   0.00000  Uiso   1.00
C2575  C     0.92048   0.51991   0.69088   0.00000  Uiso   1.00
C2576  C     0.59771   0.54943   0.19136   0.00000  Uiso   1.00
C2577  C     0.56431   0.52506   0.18615   0.00000  Uiso   1.00
C2578  C     0.55687   0.51702   0.14315   0.00000  Uiso   1.00
C2579  C     0.96044   0.58737   0.77655   0.00000  Uiso   1.00
C2580  C     0.97120   0.55888   0.80708   0.00000  Uiso   1.00
C2581  C     0.99664   0.52993   0.79008   0.00000  Uiso   1.00
C2582  C     0.50071   0.75032   0.89841   0.00000  Uiso   1.00
C2583  C     0.55323   0.89832   0.18842   0.00000  Uiso   1.00
C2584  C     0.51383   0.89671   0.17409   0.00000  Uiso   1.00
C2585  C     0.51195   0.89859   0.12966   0.00000  Uiso   1.00
C2586  C     0.83660   0.71196   0.73265   0.00000  Uiso   1.00
C2587  C     0.80502   0.72394   0.70627   0.00000  Uiso   1.00
C2588  C     0.78021   0.75130   0.72677   0.00000  Uiso   1.00
C2589  C     0.65011   0.80375   0.31085   0.00000  Uiso   1.00
C2590  C     0.64941   0.76454   0.32543   0.00000  Uiso   1.00
C2591  C     0.65405   0.76321   0.36966   0.00000  Uiso   1.00
C2592  C     0.78588   0.85761   0.78024   0.00000  Uiso   1.00
C2593  C     0.99929   0.75006   0.10187   0.00000  Uiso   1.00
C2594  C     0.78746   0.82127   0.80201   0.00000  Uiso   1.00
C2595  C     0.77718   0.82591   0.84490   0.00000  Uiso   1.00
C2596  C     0.69268   0.63365   0.32055   0.00000  Uiso   1.00
C2597  C     0.67989   0.66584   0.34562   0.00000  Uiso   1.00
C2598  C     0.68352   0.65695   0.38898   0.00000  Uiso   1.00
C2599  C     0.64603   0.78605   0.77859   0.00000  Uiso   1.00
C2600  C     0.68410   0.78894   0.79675   0.00000  Uiso   1.00
C2601  C     0.68442   0.77374   0.83814   0.00000  Uiso   1.00
C2602  C     0.87207   0.68532   0.33145   0.00000  Uiso   1.00
C2603  C     0.87262   0.72302   0.35076   0.00000  Uiso   1.00
C2604  C     0.50214   0.68370   0.47874   0.00000  Uiso   1.00
C2605  C     0.88440   0.72105   0.39340   0.00000  Uiso   1.00
C2606  C     0.71827   0.64535   0.77272   0.00000  Uiso   1.00
C2607  C     0.71311   0.68154   0.79450   0.00000  Uiso   1.00
C2608  C     0.73979   0.68470   0.82861   0.00000  Uiso   1.00
C2609  C     0.79966   0.84772   0.30826   0.00000  Uiso   1.00
C2610  C     0.77583   0.81396   0.31317   0.00000  Uiso   1.00
C2611  C     0.76851   0.80608   0.35614   0.00000  Uiso   1.00
C2612  C     0.85433   0.78201   0.22699   0.00000  Uiso   1.00
C2613  C     0.81738   0.78607   0.20649   0.00000  Uiso   1.00
C2614  C     0.81458   0.76029   0.17155   0.00000  Uiso   1.00
C2615  C     0.99753   0.81615   0.52145   0.00000  Uiso   1.00
C2616  C     0.65310   0.70027   0.69206   0.00000  Uiso   1.00
C2617  C     0.68734   0.72359   0.68801   0.00000  Uiso   1.00
C2618  C     0.69619   0.73116   0.64533   0.00000  Uiso   1.00
C2619  C     0.78783   0.66362   0.27020   0.00000  Uiso   1.00
C2620  C     0.77493   0.69282   0.29914   0.00000  Uiso   1.00
C2621  C     0.74762   0.71890   0.28056   0.00000  Uiso   1.00
C2622  C     0.69618   0.85130   0.68793   0.00000  Uiso   1.00
C2623  C     0.73548   0.85262   0.67352   0.00000  Uiso   1.00
C2624  C     0.73718   0.84943   0.62915   0.00000  Uiso   1.00
C2625  C     0.64334   0.71333   0.22169   0.00000  Uiso   1.00
C2626  C     0.81553   0.50120   0.47922   0.00000  Uiso   1.00
C2627  C     0.68058   0.71250   0.20157   0.00000  Uiso   1.00
C2628  C     0.67745   0.72312   0.15866   0.00000  Uiso   1.00
C2629  C     0.86400   0.80426   0.68300   0.00000  Uiso   1.00
C2630  C     0.83090   0.81545   0.65850   0.00000  Uiso   1.00
C2631  C     0.83717   0.80611   0.61559   0.00000  Uiso   1.00
C2632  C     0.71416   0.85469   0.21977   0.00000  Uiso   1.00
C2633  C     0.71137   0.81699   0.20077   0.00000  Uiso   1.00
C2634  C     0.72655   0.81746   0.15932   0.00000  Uiso   1.00
C2635  C     0.81455   0.62845   0.66854   0.00000  Uiso   1.00
C2636  C     0.77676   0.62858   0.64941   0.00000  Uiso   1.00
C2637  C     0.68277   0.99748   0.52057   0.00000  Uiso   1.00
C2638  C     0.77854   0.61788   0.60643   0.00000  Uiso   1.00
C2639  C     0.99714   0.81659   0.48074   0.00000  Uiso   1.00
C2640  C     0.71772   0.98786   0.41851   0.00000  Uiso   1.00
C2641  C     0.50170   0.68343   0.51953   0.00000  Uiso   1.00
C2642  C     0.68258   0.99736   0.47981   0.00000  Uiso   1.00
C2643  C     0.81592   0.99991   0.52001   0.00000  Uiso   1.00
C2644  C     0.74683   0.93387   0.97843   0.00000  Uiso   1.00
C2645  C     0.74860   0.56622   0.02128   0.00000  Uiso   1.00
C2646  C     0.56654   0.75579   0.98057   0.00000  Uiso   1.00
C2647  C     0.93334   0.74935   0.01969   0.00000  Uiso   1.00
C2648  C     0.74872   0.56672   0.98042   0.00000  Uiso   1.00
C2649  C     0.74684   0.93342   0.01919   0.00000  Uiso   1.00
C2650  C     0.93387   0.74822   0.97893   0.00000  Uiso   1.00
C2651  C     0.78116   0.98814   0.58116   0.00000  Uiso   1.00
C2652  C     0.56623   0.75558   0.02135   0.00000  Uiso   1.00
C2653  C     0.74955   0.50010   0.35585   0.00000  Uiso   1.00
C2654  C     0.74996   0.99990   0.64417   0.00000  Uiso   1.00
C2655  C     0.50004   0.75050   0.35584   0.00000  Uiso   1.00
C2656  C     0.99997   0.74957   0.64417   0.00000  Uiso   1.00
C2657  C     0.50034   0.75007   0.85589   0.00000  Uiso   1.00
C2658  C     0.99959   0.74997   0.14422   0.00000  Uiso   1.00
C2659  C     0.75002   0.50051   0.85581   0.00000  Uiso   1.00
C2660  C     0.74994   0.99960   0.14413   0.00000  Uiso   1.00
C2661  C     0.67953   0.56978   0.25066   0.00000  Uiso   1.00
C2662  C     0.51288   0.71971   0.41852   0.00000  Uiso   1.00
C2663  C     0.82016   0.93023   0.74984   0.00000  Uiso   1.00
C2664  C     0.92988   0.68002   0.24987   0.00000  Uiso   1.00
C2665  C     0.56989   0.82010   0.74992   0.00000  Uiso   1.00
C2666  C     0.81976   0.92957   0.24932   0.00000  Uiso   1.00
C2667  C     0.68011   0.56998   0.75001   0.00000  Uiso   1.00
C2668  C     0.57014   0.82009   0.25002   0.00000  Uiso   1.00
C2669  C     0.92982   0.68003   0.75010   0.00000  Uiso   1.00
C2670  C     0.67988   0.92988   0.74998   0.00000  Uiso   1.00
C2671  C     0.82005   0.57011   0.25001   0.00000  Uiso   1.00
C2672  C     0.93006   0.82030   0.74964   0.00000  Uiso   1.00
C2673  C     0.51029   0.78126   0.58165   0.00000  Uiso   1.00
C2674  C     0.56984   0.67993   0.25003   0.00000  Uiso   1.00
C2675  C     0.81984   0.57024   0.75037   0.00000  Uiso   1.00
C2676  C     0.68004   0.93001   0.24989   0.00000  Uiso   1.00
C2677  C     0.57043   0.68024   0.75064   0.00000  Uiso   1.00
C2678  C     0.92995   0.81982   0.24998   0.00000  Uiso   1.00
C2679  C     0.61528   0.91179   0.24425   0.00000  Uiso   1.00
C2680  C     0.87857   0.59485   0.77489   0.00000  Uiso   1.00
C2681  C     0.58752   0.61500   0.24362   0.00000  Uiso   1.00
C2682  C     0.91105   0.88461   0.76041   0.00000  Uiso   1.00
C2683  C     0.88099   0.59235   0.22953   0.00000  Uiso   1.00
C2684  C     0.77957   0.51336   0.41912   0.00000  Uiso   1.00
C2685  C     0.61559   0.91078   0.76054   0.00000  Uiso   1.00
C2686  C     0.91104   0.88393   0.24281   0.00000  Uiso   1.00
C2687  C     0.59092   0.61678   0.76461   0.00000  Uiso   1.00
C2688  C     0.61606   0.58908   0.75803   0.00000  Uiso   1.00
C2689  C     0.88338   0.90905   0.23593   0.00000  Uiso   1.00
C2690  C     0.58827   0.88462   0.75695   0.00000  Uiso   1.00
C2691  C     0.90659   0.62015   0.22736   0.00000  Uiso   1.00
C2692  C     0.88451   0.91190   0.75751   0.00000  Uiso   1.00
C2693  C     0.61492   0.58856   0.24061   0.00000  Uiso   1.00
C2694  C     0.90672   0.62001   0.77233   0.00000  Uiso   1.00
C2695  C     0.71762   0.50990   0.58146   0.00000  Uiso   1.00
C2696  C     0.58914   0.88448   0.24030   0.00000  Uiso   1.00
C2697  C     0.86848   0.65792   0.73004   0.00000  Uiso   1.00
C2698  C     0.63473   0.83914   0.25926   0.00000  Uiso   1.00
C2699  C     0.83838   0.86562   0.74436   0.00000  Uiso   1.00
C2700  C     0.65911   0.63338   0.26413   0.00000  Uiso   1.00
C2701  C     0.63462   0.83823   0.74405   0.00000  Uiso   1.00
C2702  C     0.86966   0.65733   0.27176   0.00000  Uiso   1.00
C2703  C     0.66242   0.63489   0.74396   0.00000  Uiso   1.00
C2704  C     0.83854   0.86499   0.25913   0.00000  Uiso   1.00
C2705  C     0.86499   0.83760   0.25607   0.00000  Uiso   1.00
C2706  C     0.73868   0.53260   0.91860   0.00000  Uiso   1.00
C2707  C     0.63502   0.66133   0.74084   0.00000  Uiso   1.00
C2708  C     0.84199   0.63145   0.26997   0.00000  Uiso   1.00
C2709  C     0.66073   0.86552   0.73999   0.00000  Uiso   1.00
C2710  C     0.63399   0.66100   0.25721   0.00000  Uiso   1.00
C2711  C     0.86593   0.84025   0.73773   0.00000  Uiso   1.00
C2712  C     0.66201   0.86527   0.25497   0.00000  Uiso   1.00
C2713  C     0.84268   0.63020   0.72817   0.00000  Uiso   1.00
C2714  C     0.50459   0.71729   0.45859   0.00000  Uiso   1.00
C2715  C     0.50238   0.78290   0.54144   0.00000  Uiso   1.00
C2716  C     0.78192   0.50466   0.45905   0.00000  Uiso   1.00
H2717  H     0.97218   0.62528   0.41616   0.00000  Uiso   1.00
H2718  H     0.94099   0.90138   0.53233   0.00000  Uiso   1.00
H2719  H     0.92035   0.79870   0.93440   0.00000  Uiso   1.00
H2720  H     0.85011   0.79426   0.98465   0.00000  Uiso   1.00
H2721  H     0.89279   0.81444   0.99929   0.00000  Uiso   1.00
H2722  H     0.88699   0.86037   0.94574   0.00000  Uiso   1.00
H2723  H     0.84857   0.86177   0.97858   0.00000  Uiso   1.00
H2724  H     0.84387   0.84035   0.93137   0.00000  Uiso   1.00
H2725  H     0.61862   0.79364   0.08458   0.00000  Uiso   1.00
H2726  H     0.57189   0.80226   0.07372   0.00000  Uiso   1.00
H2727  H     0.63758   0.81950   0.02017   0.00000  Uiso   1.00
H2728  H     0.59042   0.82913   0.00891   0.00000  Uiso   1.00
H2729  H     0.93069   0.86237   0.50221   0.00000  Uiso   1.00
H2730  H     0.58604   0.86992   0.06735   0.00000  Uiso   1.00
H2731  H     0.62203   0.88418   0.03514   0.00000  Uiso   1.00
H2732  H     0.63318   0.86008   0.07935   0.00000  Uiso   1.00
H2733  H     0.61154   0.99365   0.27492   0.00000  Uiso   1.00
H2734  H     0.62558   0.95307   0.29887   0.00000  Uiso   1.00
H2735  H     0.54663   0.97688   0.27903   0.00000  Uiso   1.00
H2736  H     0.55834   0.93308   0.29932   0.00000  Uiso   1.00
H2737  H     0.58643   0.96299   0.35722   0.00000  Uiso   1.00
H2738  H     0.53956   0.97689   0.35130   0.00000  Uiso   1.00
H2739  H     0.57583   0.50732   0.33743   0.00000  Uiso   1.00
H2740  H     0.88038   0.84463   0.54507   0.00000  Uiso   1.00
H2741  H     0.84088   0.58665   0.83448   0.00000  Uiso   1.00
H2742  H     0.88715   0.59468   0.85138   0.00000  Uiso   1.00
H2743  H     0.85214   0.51868   0.84497   0.00000  Uiso   1.00
H2744  H     0.89500   0.53009   0.86747   0.00000  Uiso   1.00
H2745  H     0.86211   0.56795   0.91734   0.00000  Uiso   1.00
H2746  H     0.84610   0.52149   0.91699   0.00000  Uiso   1.00
H2747  H     0.81892   0.55665   0.89447   0.00000  Uiso   1.00
H2748  H     0.50221   0.60807   0.26360   0.00000  Uiso   1.00
H2749  H     0.53820   0.62765   0.29161   0.00000  Uiso   1.00
H2750  H     0.53144   0.54546   0.27249   0.00000  Uiso   1.00
H2751  H     0.87483   0.89170   0.53223   0.00000  Uiso   1.00
H2752  H     0.56446   0.56629   0.30444   0.00000  Uiso   1.00
H2753  H     0.51421   0.58801   0.34832   0.00000  Uiso   1.00
H2754  H     0.51331   0.53923   0.34216   0.00000  Uiso   1.00
H2755  H     0.98089   0.56710   0.31623   0.00000  Uiso   1.00
H2756  H     0.93604   0.87616   0.82763   0.00000  Uiso   1.00
H2757  H     0.93319   0.92498   0.81950   0.00000  Uiso   1.00
H2758  H     0.50306   0.87827   0.81585   0.00000  Uiso   1.00
H2759  H     0.50021   0.92691   0.80827   0.00000  Uiso   1.00
H2760  H     0.97694   0.93515   0.87638   0.00000  Uiso   1.00
H2761  H     0.52074   0.91253   0.87552   0.00000  Uiso   1.00
H2762  H     0.89181   0.88025   0.57994   0.00000  Uiso   1.00
H2763  H     0.97997   0.88635   0.88395   0.00000  Uiso   1.00
H2764  H     0.89935   0.51443   0.24097   0.00000  Uiso   1.00
H2765  H     0.92760   0.55246   0.25374   0.00000  Uiso   1.00
H2766  H     0.92910   0.51279   0.17405   0.00000  Uiso   1.00
H2767  H     0.95832   0.54936   0.18908   0.00000  Uiso   1.00
H2768  H     0.98268   0.51095   0.24375   0.00000  Uiso   1.00
H2769  H     0.98995   0.99041   0.19642   0.00000  Uiso   1.00
H2770  H     0.95416   0.97389   0.22720   0.00000  Uiso   1.00
H2771  H     0.62536   0.93163   0.82778   0.00000  Uiso   1.00
H2772  H     0.57618   0.93359   0.82137   0.00000  Uiso   1.00
H2773  H     0.87310   0.97013   0.41595   0.00000  Uiso   1.00
H2774  H     0.62792   0.99944   0.81739   0.00000  Uiso   1.00
H2775  H     0.57877   0.50050   0.81480   0.00000  Uiso   1.00
H2776  H     0.57492   0.97583   0.88238   0.00000  Uiso   1.00
H2777  H     0.60259   0.51641   0.88143   0.00000  Uiso   1.00
H2778  H     0.62425   0.97253   0.88482   0.00000  Uiso   1.00
H2779  H     0.99256   0.88577   0.27449   0.00000  Uiso   1.00
H2780  H     0.95142   0.87305   0.29803   0.00000  Uiso   1.00
H2781  H     0.98126   0.94990   0.28308   0.00000  Uiso   1.00
H2782  H     0.93418   0.94270   0.29637   0.00000  Uiso   1.00
H2783  H     0.95400   0.91138   0.35729   0.00000  Uiso   1.00
H2784  H     0.82628   0.95914   0.42209   0.00000  Uiso   1.00
H2785  H     0.97318   0.95642   0.35425   0.00000  Uiso   1.00
H2786  H     0.50134   0.91712   0.34360   0.00000  Uiso   1.00
H2787  H     0.52914   0.62346   0.82950   0.00000  Uiso   1.00
H2788  H     0.57408   0.64163   0.82812   0.00000  Uiso   1.00
H2789  H     0.55462   0.56039   0.83975   0.00000  Uiso   1.00
H2790  H     0.60007   0.57891   0.83936   0.00000  Uiso   1.00
H2791  H     0.58438   0.61851   0.89679   0.00000  Uiso   1.00
H2792  H     0.57765   0.57099   0.90733   0.00000  Uiso   1.00
H2793  H     0.53881   0.59967   0.89720   0.00000  Uiso   1.00
H2794  H     0.61074   0.50695   0.72778   0.00000  Uiso   1.00
H2795  H     0.88835   0.94119   0.48039   0.00000  Uiso   1.00
H2796  H     0.62571   0.54692   0.70362   0.00000  Uiso   1.00
H2797  H     0.54676   0.52360   0.72155   0.00000  Uiso   1.00
H2798  H     0.55788   0.56873   0.70476   0.00000  Uiso   1.00
H2799  H     0.58618   0.54243   0.64480   0.00000  Uiso   1.00
H2800  H     0.53955   0.52779   0.65002   0.00000  Uiso   1.00
H2801  H     0.57633   0.99685   0.66179   0.00000  Uiso   1.00
H2802  H     0.87688   0.97082   0.17138   0.00000  Uiso   1.00
H2803  H     0.85925   0.92570   0.17219   0.00000  Uiso   1.00
H2804  H     0.94059   0.94581   0.16201   0.00000  Uiso   1.00
H2805  H     0.92207   0.90039   0.16100   0.00000  Uiso   1.00
H2806  H     0.84099   0.92883   0.48588   0.00000  Uiso   1.00
H2807  H     0.88345   0.91720   0.10322   0.00000  Uiso   1.00
H2808  H     0.93119   0.92424   0.09370   0.00000  Uiso   1.00
H2809  H     0.90222   0.96274   0.10433   0.00000  Uiso   1.00
H2810  H     0.50862   0.88299   0.72646   0.00000  Uiso   1.00
H2811  H     0.55050   0.88563   0.70009   0.00000  Uiso   1.00
H2812  H     0.50979   0.94984   0.73979   0.00000  Uiso   1.00
H2813  H     0.55292   0.95328   0.71498   0.00000  Uiso   1.00
H2814  H     0.52428   0.93207   0.65295   0.00000  Uiso   1.00
H2815  H     0.50075   0.97148   0.67217   0.00000  Uiso   1.00
H2816  H     0.98091   0.92688   0.67751   0.00000  Uiso   1.00
H2817  H     0.84431   0.89246   0.42359   0.00000  Uiso   1.00
H2818  H     0.92071   0.65316   0.16556   0.00000  Uiso   1.00
H2819  H     0.91304   0.60591   0.15223   0.00000  Uiso   1.00
H2820  H     0.98968   0.63871   0.16316   0.00000  Uiso   1.00
H2821  H     0.97790   0.59547   0.14173   0.00000  Uiso   1.00
H2822  H     0.94423   0.62937   0.08783   0.00000  Uiso   1.00
H2823  H     0.99240   0.63932   0.09002   0.00000  Uiso   1.00
H2824  H     0.96009   0.67176   0.10929   0.00000  Uiso   1.00
H2825  H     0.89586   0.94970   0.70113   0.00000  Uiso   1.00
H2826  H     0.93857   0.95579   0.72727   0.00000  Uiso   1.00
H2827  H     0.87306   0.50866   0.72607   0.00000  Uiso   1.00
H2828  H     0.95855   0.67128   0.42401   0.00000  Uiso   1.00
H2829  H     0.87653   0.87672   0.45956   0.00000  Uiso   1.00
H2830  H     0.91454   0.51530   0.75344   0.00000  Uiso   1.00
H2831  H     0.95053   0.51611   0.69193   0.00000  Uiso   1.00
H2832  H     0.91435   0.54956   0.69036   0.00000  Uiso   1.00
H2833  H     0.90957   0.50736   0.66372   0.00000  Uiso   1.00
H2834  H     0.62150   0.53635   0.17684   0.00000  Uiso   1.00
H2835  H     0.59229   0.57581   0.17617   0.00000  Uiso   1.00
H2836  H     0.56868   0.99893   0.20174   0.00000  Uiso   1.00
H2837  H     0.54009   0.53884   0.19897   0.00000  Uiso   1.00
H2838  H     0.55148   0.54274   0.12712   0.00000  Uiso   1.00
H2839  H     0.53259   0.99920   0.14039   0.00000  Uiso   1.00
H2840  H     0.89214   0.90397   0.41927   0.00000  Uiso   1.00
H2841  H     0.58059   0.50276   0.12982   0.00000  Uiso   1.00
H2842  H     0.98546   0.60087   0.76563   0.00000  Uiso   1.00
H2843  H     0.94773   0.57327   0.75104   0.00000  Uiso   1.00
H2844  H     0.98488   0.57250   0.83210   0.00000  Uiso   1.00
H2845  H     0.94646   0.54519   0.81829   0.00000  Uiso   1.00
H2846  H     0.98362   0.51602   0.76483   0.00000  Uiso   1.00
H2847  H     0.50304   0.50926   0.81269   0.00000  Uiso   1.00
H2848  H     0.52246   0.54267   0.78057   0.00000  Uiso   1.00
H2849  H     0.56898   0.87645   0.17300   0.00000  Uiso   1.00
H2850  H     0.56487   0.92531   0.18068   0.00000  Uiso   1.00
H2851  H     0.62968   0.95764   0.58074   0.00000  Uiso   1.00
H2852  H     0.50119   0.87083   0.18377   0.00000  Uiso   1.00
H2853  H     0.99818   0.91979   0.18688   0.00000  Uiso   1.00
H2854  H     0.52222   0.92529   0.11931   0.00000  Uiso   1.00
H2855  H     0.98330   0.89526   0.12000   0.00000  Uiso   1.00
H2856  H     0.52838   0.87629   0.11635   0.00000  Uiso   1.00
H2857  H     0.85145   0.73640   0.74325   0.00000  Uiso   1.00
H2858  H     0.82503   0.69829   0.75896   0.00000  Uiso   1.00
H2859  H     0.81592   0.73617   0.67914   0.00000  Uiso   1.00
H2860  H     0.78835   0.70008   0.69789   0.00000  Uiso   1.00
H2861  H     0.76893   0.73941   0.75388   0.00000  Uiso   1.00
H2862  H     0.67515   0.94664   0.56656   0.00000  Uiso   1.00
H2863  H     0.75740   0.75914   0.70719   0.00000  Uiso   1.00
H2864  H     0.79569   0.77616   0.73415   0.00000  Uiso   1.00
H2865  H     0.62858   0.81939   0.32688   0.00000  Uiso   1.00
H2866  H     0.67726   0.81570   0.31767   0.00000  Uiso   1.00
H2867  H     0.62296   0.75182   0.31744   0.00000  Uiso   1.00
H2868  H     0.67171   0.74876   0.31133   0.00000  Uiso   1.00
H2869  H     0.68124   0.77387   0.37820   0.00000  Uiso   1.00
H2870  H     0.65170   0.73470   0.37972   0.00000  Uiso   1.00
H2871  H     0.63241   0.77956   0.38426   0.00000  Uiso   1.00
H2872  H     0.75680   0.86530   0.77609   0.00000  Uiso   1.00
H2873  H     0.60648   0.94016   0.51392   0.00000  Uiso   1.00
H2874  H     0.79793   0.87940   0.79896   0.00000  Uiso   1.00
H2875  H     0.76801   0.80198   0.78835   0.00000  Uiso   1.00
H2876  H     0.81542   0.80956   0.80025   0.00000  Uiso   1.00
H2877  H     0.79699   0.84404   0.85992   0.00000  Uiso   1.00
H2878  H     0.77771   0.79896   0.85950   0.00000  Uiso   1.00
H2879  H     0.74932   0.83768   0.84753   0.00000  Uiso   1.00
H2880  H     0.72121   0.62676   0.32878   0.00000  Uiso   1.00
H2881  H     0.67603   0.60914   0.32769   0.00000  Uiso   1.00
H2882  H     0.69652   0.69023   0.33905   0.00000  Uiso   1.00
H2883  H     0.65091   0.67214   0.33895   0.00000  Uiso   1.00
H2884  H     0.65219   0.92678   0.50052   0.00000  Uiso   1.00
H2885  H     0.66687   0.63274   0.39634   0.00000  Uiso   1.00
H2886  H     0.67383   0.68028   0.40689   0.00000  Uiso   1.00
H2887  H     0.71250   0.65141   0.39652   0.00000  Uiso   1.00
H2888  H     0.63919   0.75677   0.77521   0.00000  Uiso   1.00
H2889  H     0.62527   0.79760   0.79904   0.00000  Uiso   1.00
H2890  H     0.70395   0.77358   0.77847   0.00000  Uiso   1.00
H2891  H     0.69269   0.81791   0.79796   0.00000  Uiso   1.00
H2892  H     0.66631   0.79026   0.85730   0.00000  Uiso   1.00
H2893  H     0.71251   0.77474   0.85014   0.00000  Uiso   1.00
H2894  H     0.67496   0.74504   0.83816   0.00000  Uiso   1.00
H2895  H     0.65324   0.88089   0.55418   0.00000  Uiso   1.00
H2896  H     0.89946   0.67240   0.33527   0.00000  Uiso   1.00
H2897  H     0.85119   0.66822   0.34607   0.00000  Uiso   1.00
H2898  H     0.89181   0.74091   0.33477   0.00000  Uiso   1.00
H2899  H     0.84503   0.73556   0.34913   0.00000  Uiso   1.00
H2900  H     0.86530   0.70371   0.41015   0.00000  Uiso   1.00
H2901  H     0.88420   0.74883   0.40634   0.00000  Uiso   1.00
H2902  H     0.91248   0.70984   0.39563   0.00000  Uiso   1.00
H2903  H     0.74757   0.64217   0.76511   0.00000  Uiso   1.00
H2904  H     0.71152   0.62228   0.79245   0.00000  Uiso   1.00
H2905  H     0.71750   0.70456   0.77417   0.00000  Uiso   1.00
H2906  H     0.61555   0.87337   0.52118   0.00000  Uiso   1.00
H2907  H     0.68478   0.68337   0.80584   0.00000  Uiso   1.00
H2908  H     0.73520   0.66238   0.84981   0.00000  Uiso   1.00
H2909  H     0.73574   0.71110   0.84385   0.00000  Uiso   1.00
H2910  H     0.76837   0.68339   0.81794   0.00000  Uiso   1.00
H2911  H     0.78622   0.87125   0.32294   0.00000  Uiso   1.00
H2912  H     0.82621   0.84277   0.32351   0.00000  Uiso   1.00
H2913  H     0.74940   0.81806   0.29788   0.00000  Uiso   1.00
H2914  H     0.78980   0.79005   0.29990   0.00000  Uiso   1.00
H2915  H     0.79459   0.80115   0.37187   0.00000  Uiso   1.00
H2916  H     0.75128   0.78141   0.35871   0.00000  Uiso   1.00
H2917  H     0.60747   0.89430   0.56812   0.00000  Uiso   1.00
H2918  H     0.75391   0.82938   0.36991   0.00000  Uiso   1.00
H2919  H     0.85869   0.75281   0.23420   0.00000  Uiso   1.00
H2920  H     0.87666   0.78966   0.20659   0.00000  Uiso   1.00
H2921  H     0.79513   0.77998   0.22733   0.00000  Uiso   1.00
H2922  H     0.81394   0.81456   0.19624   0.00000  Uiso   1.00
H2923  H     0.83586   0.76684   0.14967   0.00000  Uiso   1.00
H2924  H     0.78742   0.76323   0.15757   0.00000  Uiso   1.00
H2925  H     0.81791   0.73155   0.18105   0.00000  Uiso   1.00
H2926  H     0.63001   0.71416   0.67712   0.00000  Uiso   1.00
H2927  H     0.65787   0.67377   0.67665   0.00000  Uiso   1.00
H2928  H     0.54630   0.83625   0.42980   0.00000  Uiso   1.00
H2929  H     0.68336   0.74992   0.70354   0.00000  Uiso   1.00
H2930  H     0.71082   0.70916   0.70155   0.00000  Uiso   1.00
H2931  H     0.70111   0.70519   0.62938   0.00000  Uiso   1.00
H2932  H     0.72118   0.74808   0.64354   0.00000  Uiso   1.00
H2933  H     0.67336   0.74618   0.63126   0.00000  Uiso   1.00
H2934  H     0.76375   0.64907   0.25819   0.00000  Uiso   1.00
H2935  H     0.80157   0.67736   0.24517   0.00000  Uiso   1.00
H2936  H     0.76226   0.67968   0.32487   0.00000  Uiso   1.00
H2937  H     0.79854   0.70889   0.30954   0.00000  Uiso   1.00
H2938  H     0.75956   0.73187   0.25436   0.00000  Uiso   1.00
H2939  H     0.94721   0.60880   0.48327   0.00000  Uiso   1.00
H2940  H     0.55547   0.85168   0.47938   0.00000  Uiso   1.00
H2941  H     0.73997   0.74045   0.30182   0.00000  Uiso   1.00
H2942  H     0.72263   0.70403   0.27216   0.00000  Uiso   1.00
H2943  H     0.68045   0.87312   0.67256   0.00000  Uiso   1.00
H2944  H     0.68438   0.82429   0.68029   0.00000  Uiso   1.00
H2945  H     0.74811   0.87880   0.68259   0.00000  Uiso   1.00
H2946  H     0.75117   0.82995   0.68691   0.00000  Uiso   1.00
H2947  H     0.72732   0.82224   0.61954   0.00000  Uiso   1.00
H2948  H     0.76572   0.85294   0.61935   0.00000  Uiso   1.00
H2949  H     0.72029   0.87102   0.61528   0.00000  Uiso   1.00
H2950  H     0.63490   0.74221   0.22560   0.00000  Uiso   1.00
H2951  H     0.52368   0.89939   0.41363   0.00000  Uiso   1.00
H2952  H     0.62255   0.70089   0.20197   0.00000  Uiso   1.00
H2953  H     0.69906   0.73204   0.21637   0.00000  Uiso   1.00
H2954  H     0.69260   0.68472   0.20349   0.00000  Uiso   1.00
H2955  H     0.66014   0.70326   0.14264   0.00000  Uiso   1.00
H2956  H     0.70498   0.72311   0.14522   0.00000  Uiso   1.00
H2957  H     0.66535   0.75079   0.15588   0.00000  Uiso   1.00
H2958  H     0.87104   0.77546   0.67614   0.00000  Uiso   1.00
H2959  H     0.88803   0.82082   0.67395   0.00000  Uiso   1.00
H2960  H     0.80628   0.80097   0.66869   0.00000  Uiso   1.00
H2961  H     0.82617   0.84524   0.66155   0.00000  Uiso   1.00
H2962  H     0.53470   0.91380   0.46259   0.00000  Uiso   1.00
H2963  H     0.86270   0.81894   0.60526   0.00000  Uiso   1.00
H2964  H     0.81411   0.81618   0.59758   0.00000  Uiso   1.00
H2965  H     0.83936   0.77611   0.61168   0.00000  Uiso   1.00
H2966  H     0.74346   0.86159   0.22314   0.00000  Uiso   1.00
H2967  H     0.70242   0.87572   0.19987   0.00000  Uiso   1.00
H2968  H     0.72684   0.79689   0.21853   0.00000  Uiso   1.00
H2969  H     0.68238   0.80837   0.19952   0.00000  Uiso   1.00
H2970  H     0.71011   0.83605   0.14070   0.00000  Uiso   1.00
H2971  H     0.72536   0.78968   0.14655   0.00000  Uiso   1.00
H2972  H     0.75535   0.82670   0.15946   0.00000  Uiso   1.00
H2973  H     0.60062   0.89569   0.45044   0.00000  Uiso   1.00
H2974  H     0.82725   0.60105   0.66412   0.00000  Uiso   1.00
H2975  H     0.83181   0.64944   0.65433   0.00000  Uiso   1.00
H2976  H     0.75878   0.60910   0.66489   0.00000  Uiso   1.00
H2977  H     0.76439   0.65618   0.65195   0.00000  Uiso   1.00
H2978  H     0.79580   0.63739   0.59014   0.00000  Uiso   1.00
H2979  H     0.75066   0.61841   0.59371   0.00000  Uiso   1.00
H2980  H     0.78974   0.58990   0.60327   0.00000  Uiso   1.00
H2981  H     0.91926   0.82114   0.35171   0.00000  Uiso   1.00
H2982  H     0.91963   0.67916   0.64548   0.00000  Uiso   1.00
H2983  H     0.68362   0.91578   0.35311   0.00000  Uiso   1.00
H2984  H     0.58418   0.93098   0.41845   0.00000  Uiso   1.00
H2985  H     0.81503   0.91474   0.64413   0.00000  Uiso   1.00
H2986  H     0.58748   0.69075   0.35463   0.00000  Uiso   1.00
H2987  H     0.58271   0.81704   0.64503   0.00000  Uiso   1.00
H2988  H     0.80842   0.59103   0.35995   0.00000  Uiso   1.00
H2989  H     0.67846   0.57926   0.64718   0.00000  Uiso   1.00
H2990  H     0.67027   0.57112   0.85130   0.00000  Uiso   1.00
H2991  H     0.66703   0.93215   0.14677   0.00000  Uiso   1.00
H2992  H     0.94207   0.65801   0.86058   0.00000  Uiso   1.00
H2993  H     0.57098   0.67103   0.14549   0.00000  Uiso   1.00
H2994  H     0.83256   0.93289   0.85506   0.00000  Uiso   1.00
H2995  H     0.58853   0.88484   0.40046   0.00000  Uiso   1.00
H2996  H     0.83533   0.56523   0.14296   0.00000  Uiso   1.00
H2997  H     0.56279   0.83772   0.85510   0.00000  Uiso   1.00
H2998  H     0.92673   0.82792   0.14871   0.00000  Uiso   1.00
H2999  H     0.54181   0.62879   0.57836   0.00000  Uiso   1.00
H3000  H     0.55310   0.67422   0.56500   0.00000  Uiso   1.00
H3001  H     0.55753   0.60694   0.50998   0.00000  Uiso   1.00
H3002  H     0.57246   0.65250   0.49883   0.00000  Uiso   1.00
H3003  H     0.92972   0.65470   0.48713   0.00000  Uiso   1.00
H3004  H     0.61861   0.64942   0.55235   0.00000  Uiso   1.00
H3005  H     0.62462   0.61284   0.51753   0.00000  Uiso   1.00
H3006  H     0.60364   0.60379   0.56409   0.00000  Uiso   1.00
H3007  H     0.66499   0.54419   0.42643   0.00000  Uiso   1.00
H3008  H     0.64659   0.55611   0.47408   0.00000  Uiso   1.00
H3009  H     0.60281   0.52028   0.40739   0.00000  Uiso   1.00
H3010  H     0.58545   0.53561   0.45381   0.00000  Uiso   1.00
H3011  H     0.60423   0.59985   0.43706   0.00000  Uiso   1.00
H3012  H     0.57194   0.58102   0.40268   0.00000  Uiso   1.00
H3013  H     0.61949   0.58366   0.38973   0.00000  Uiso   1.00
H3014  H     0.89397   0.64448   0.42454   0.00000  Uiso   1.00
H3015  H     0.87330   0.53148   0.58236   0.00000  Uiso   1.00
H3016  H     0.82741   0.54486   0.57306   0.00000  Uiso   1.00
H3017  H     0.89139   0.55555   0.51534   0.00000  Uiso   1.00
H3018  H     0.84553   0.57297   0.51021   0.00000  Uiso   1.00
H3019  H     0.85423   0.60970   0.57216   0.00000  Uiso   1.00
H3020  H     0.88639   0.62147   0.53470   0.00000  Uiso   1.00
H3021  H     0.90073   0.59330   0.57492   0.00000  Uiso   1.00
H3022  H     0.71061   0.88034   0.91488   0.00000  Uiso   1.00
H3023  H     0.70108   0.92698   0.92505   0.00000  Uiso   1.00
H3024  H     0.68392   0.86170   0.97895   0.00000  Uiso   1.00
H3025  H     0.88125   0.61396   0.46310   0.00000  Uiso   1.00
H3026  H     0.67365   0.90877   0.98982   0.00000  Uiso   1.00
H3027  H     0.63369   0.91231   0.93060   0.00000  Uiso   1.00
H3028  H     0.61918   0.87670   0.96304   0.00000  Uiso   1.00
H3029  H     0.64401   0.86514   0.91933   0.00000  Uiso   1.00
H3030  H     0.70860   0.61967   0.08146   0.00000  Uiso   1.00
H3031  H     0.69601   0.57548   0.06459   0.00000  Uiso   1.00
H3032  H     0.69583   0.64571   0.01433   0.00000  Uiso   1.00
H3033  H     0.67986   0.60145   0.99912   0.00000  Uiso   1.00
H3034  H     0.63194   0.60312   0.05086   0.00000  Uiso   1.00
H3035  H     0.62832   0.64167   0.01849   0.00000  Uiso   1.00
H3036  H     0.90991   0.59779   0.42396   0.00000  Uiso   1.00
H3037  H     0.64790   0.64751   0.06647   0.00000  Uiso   1.00
H3038  H     0.58491   0.70857   0.92784   0.00000  Uiso   1.00
H3039  H     0.60418   0.69782   0.97540   0.00000  Uiso   1.00
H3040  H     0.64602   0.73347   0.90764   0.00000  Uiso   1.00
H3041  H     0.66454   0.71989   0.95415   0.00000  Uiso   1.00
H3042  H     0.64778   0.65468   0.93908   0.00000  Uiso   1.00
H3043  H     0.67860   0.67366   0.90357   0.00000  Uiso   1.00
H3044  H     0.63090   0.66904   0.89176   0.00000  Uiso   1.00
H3045  H     0.91763   0.69739   0.06591   0.00000  Uiso   1.00
H3046  H     0.89586   0.69084   0.01869   0.00000  Uiso   1.00
H3047  H     0.95847   0.86210   0.58699   0.00000  Uiso   1.00
H3048  H     0.85762   0.71942   0.09293   0.00000  Uiso   1.00
H3049  H     0.83659   0.71040   0.04632   0.00000  Uiso   1.00
H3050  H     0.85396   0.64446   0.05193   0.00000  Uiso   1.00
H3051  H     0.82646   0.65958   0.09265   0.00000  Uiso   1.00
H3052  H     0.87497   0.65363   0.09888   0.00000  Uiso   1.00
H3053  H     0.80941   0.58909   0.96019   0.00000  Uiso   1.00
H3054  H     0.79384   0.62282   0.99532   0.00000  Uiso   1.00
H3055  H     0.79333   0.63056   0.90580   0.00000  Uiso   1.00
H3056  H     0.77597   0.66389   0.93989   0.00000  Uiso   1.00
H3057  H     0.83815   0.66953   0.96995   0.00000  Uiso   1.00
H3058  H     0.94410   0.82193   0.56199   0.00000  Uiso   1.00
H3059  H     0.83861   0.67939   0.91841   0.00000  Uiso   1.00
H3060  H     0.85553   0.63607   0.93560   0.00000  Uiso   1.00
H3061  H     0.79378   0.91611   0.07287   0.00000  Uiso   1.00
H3062  H     0.80630   0.89846   0.02508   0.00000  Uiso   1.00
H3063  H     0.77045   0.85324   0.09012   0.00000  Uiso   1.00
H3064  H     0.78713   0.83681   0.04383   0.00000  Uiso   1.00
H3065  H     0.85064   0.85653   0.06287   0.00000  Uiso   1.00
H3066  H     0.83164   0.82379   0.09632   0.00000  Uiso   1.00
H3067  H     0.83318   0.87125   0.10988   0.00000  Uiso   1.00
H3068  H     0.87741   0.78204   0.91781   0.00000  Uiso   1.00
O3069  O     0.75000   0.50000   0.25000   0.00000  Uiso   1.00
O3070  O     0.75000   0.96963   0.66245   0.00000  Uiso   1.00
O3071  O     0.81022   0.63653   0.70861   0.00000  Uiso   1.00
O3072  O     0.94274   0.84161   0.42347   0.00000  Uiso   1.00
O3073  O     0.98789   0.83979   0.37065   0.00000  Uiso   1.00
O3074  O     0.92981   0.79993   0.36558   0.00000  Uiso   1.00
O3075  O     0.94719   0.65670   0.57558   0.00000  Uiso   1.00
O3076  O     0.98953   0.66122   0.63101   0.00000  Uiso   1.00
O3077  O     0.93017   0.70005   0.63123   0.00000  Uiso   1.00
O3078  O     0.65871   0.94246   0.42248   0.00000  Uiso   1.00
O3079  O     0.66221   0.98453   0.36709   0.00000  Uiso   1.00
O3080  O     0.70372   0.92702   0.36826   0.00000  Uiso   1.00
O3081  O     0.96964   0.75000   0.33755   0.00000  Uiso   1.00
O3082  O     0.84138   0.94379   0.57616   0.00000  Uiso   1.00
O3083  O     0.83588   0.98368   0.63358   0.00000  Uiso   1.00
O3084  O     0.79528   0.92604   0.62848   0.00000  Uiso   1.00
O3085  O     0.55971   0.66120   0.42317   0.00000  Uiso   1.00
O3086  O     0.52081   0.66622   0.36506   0.00000  Uiso   1.00
O3087  O     0.57670   0.70902   0.37261   0.00000  Uiso   1.00
O3088  O     0.55225   0.84279   0.57717   0.00000  Uiso   1.00
O3089  O     0.51290   0.83576   0.63456   0.00000  Uiso   1.00
O3090  O     0.57214   0.79705   0.62918   0.00000  Uiso   1.00
O3091  O     0.83734   0.56001   0.42586   0.00000  Uiso   1.00
O3092  O     0.53037   0.75000   0.66245   0.00000  Uiso   1.00
O3093  O     0.83329   0.52248   0.36653   0.00000  Uiso   1.00
O3094  O     0.78947   0.57781   0.37477   0.00000  Uiso   1.00
O3095  O     0.65581   0.55179   0.57701   0.00000  Uiso   1.00
O3096  O     0.66162   0.50967   0.63221   0.00000  Uiso   1.00
O3097  O     0.69934   0.56935   0.63213   0.00000  Uiso   1.00
O3098  O     0.69518   0.59358   0.92229   0.00000  Uiso   1.00
O3099  O     0.73924   0.58893   0.86859   0.00000  Uiso   1.00
O3100  O     0.68012   0.55028   0.86635   0.00000  Uiso   1.00
O3101  O     0.69317   0.90804   0.07688   0.00000  Uiso   1.00
O3102  O     0.73605   0.91217   0.13186   0.00000  Uiso   1.00
O3103  O     0.50000   0.71963   0.83755   0.00000  Uiso   1.00
O3104  O     0.67771   0.95252   0.13179   0.00000  Uiso   1.00
O3105  O     0.91444   0.68846   0.92627   0.00000  Uiso   1.00
O3106  O     0.91535   0.72663   0.86755   0.00000  Uiso   1.00
O3107  O     0.96120   0.67269   0.87360   0.00000  Uiso   1.00
O3108  O     0.59439   0.70068   0.07632   0.00000  Uiso   1.00
O3109  O     0.58690   0.74089   0.13324   0.00000  Uiso   1.00
O3110  O     0.55035   0.68056   0.12980   0.00000  Uiso   1.00
O3111  O     0.80252   0.90737   0.92341   0.00000  Uiso   1.00
O3112  O     0.76312   0.91461   0.86585   0.00000  Uiso   1.00
O3113  O     0.82235   0.95284   0.87132   0.00000  Uiso   1.00
O3114  O     0.50000   0.78037   0.16245   0.00000  Uiso   1.00
O3115  O     0.80559   0.58961   0.07493   0.00000  Uiso   1.00
O3116  O     0.76569   0.58659   0.13231   0.00000  Uiso   1.00
O3117  O     0.82317   0.54500   0.12888   0.00000  Uiso   1.00
O3118  O     0.58966   0.81060   0.92336   0.00000  Uiso   1.00
O3119  O     0.58619   0.76921   0.86701   0.00000  Uiso   1.00
O3120  O     0.54326   0.82566   0.87019   0.00000  Uiso   1.00
O3121  O     0.90517   0.80218   0.07800   0.00000  Uiso   1.00
O3122  O     0.91079   0.75823   0.13158   0.00000  Uiso   1.00
O3123  O     0.94798   0.81821   0.13411   0.00000  Uiso   1.00
O3124  O     0.78037   0.50000   0.83755   0.00000  Uiso   1.00
O3125  O     0.71964   0.50000   0.16245   0.00000  Uiso   1.00
O3126  O     0.50000   0.78036   0.83755   0.00000  Uiso   1.00
O3127  O     0.50000   0.71963   0.16245   0.00000  Uiso   1.00
O3128  O     0.71964   0.50000   0.83755   0.00000  Uiso   1.00
O3129  O     0.75000   0.50000   0.75000   0.00000  Uiso   1.00
O3130  O     0.78037   0.50000   0.16245   0.00000  Uiso   1.00
O3131  O     0.70725   0.57308   0.27302   0.00000  Uiso   1.00
O3132  O     0.79276   0.92692   0.72698   0.00000  Uiso   1.00
O3133  O     0.92693   0.70725   0.27302   0.00000  Uiso   1.00
O3134  O     0.57308   0.79275   0.72698   0.00000  Uiso   1.00
O3135  O     0.79276   0.92692   0.27302   0.00000  Uiso   1.00
O3136  O     0.70725   0.57308   0.72698   0.00000  Uiso   1.00
O3137  O     0.57308   0.79275   0.27302   0.00000  Uiso   1.00
O3138  O     0.92693   0.70725   0.72698   0.00000  Uiso   1.00
O3139  O     0.70725   0.92692   0.72698   0.00000  Uiso   1.00
O3140  O     0.50000   0.75000   0.25000   0.00000  Uiso   1.00
O3141  O     0.79276   0.57308   0.27302   0.00000  Uiso   1.00
O3142  O     0.92693   0.79275   0.72698   0.00000  Uiso   1.00
O3143  O     0.57308   0.70724   0.27302   0.00000  Uiso   1.00
O3144  O     0.79276   0.57308   0.72698   0.00000  Uiso   1.00
O3145  O     0.70725   0.92692   0.27302   0.00000  Uiso   1.00
O3146  O     0.57308   0.70724   0.72698   0.00000  Uiso   1.00
O3147  O     0.92693   0.79275   0.27302   0.00000  Uiso   1.00
O3148  O     0.95725   0.82307   0.77302   0.00000  Uiso   1.00
O3149  O     0.54276   0.67692   0.22698   0.00000  Uiso   1.00
O3150  O     0.67693   0.95724   0.77302   0.00000  Uiso   1.00
O3151  O     0.50000   0.75000   0.75000   0.00000  Uiso   1.00
O3152  O     0.82308   0.54276   0.22698   0.00000  Uiso   1.00
O3153  O     0.54276   0.67692   0.77302   0.00000  Uiso   1.00
O3154  O     0.95725   0.82307   0.22698   0.00000  Uiso   1.00
O3155  O     0.82308   0.54276   0.77302   0.00000  Uiso   1.00
O3156  O     0.67693   0.95724   0.22698   0.00000  Uiso   1.00
O3157  O     0.95725   0.67693   0.22698   0.00000  Uiso   1.00
O3158  O     0.54276   0.82307   0.77302   0.00000  Uiso   1.00
O3159  O     0.67693   0.54276   0.22698   0.00000  Uiso   1.00
O3160  O     0.82308   0.95724   0.77302   0.00000  Uiso   1.00
O3161  O     0.54276   0.82307   0.22698   0.00000  Uiso   1.00
O3162  O     0.75000   0.96963   0.33755   0.00000  Uiso   1.00
O3163  O     0.95725   0.67693   0.77302   0.00000  Uiso   1.00
O3164  O     0.82308   0.95724   0.22698   0.00000  Uiso   1.00
O3165  O     0.67693   0.54276   0.77302   0.00000  Uiso   1.00
O3166  O     0.50083   0.65027   0.45978   0.00000  Uiso   1.00
O3167  O     0.99174   0.84879   0.54097   0.00000  Uiso   1.00
O3168  O     0.84884   0.99894   0.46012   0.00000  Uiso   1.00
O3169  O     0.64983   0.99219   0.53944   0.00000  Uiso   1.00
O3170  O     0.50059   0.84995   0.46259   0.00000  Uiso   1.00
O3171  O     0.50679   0.65028   0.53799   0.00000  Uiso   1.00
O3172  O     0.64924   0.50053   0.46114   0.00000  Uiso   1.00
O3173  O     0.75000   0.53037   0.66245   0.00000  Uiso   1.00
O3174  O     0.84958   0.50226   0.53835   0.00000  Uiso   1.00
O3175  O     0.74193   0.90091   0.95919   0.00000  Uiso   1.00
O3176  O     0.74398   0.59896   0.04097   0.00000  Uiso   1.00
O3177  O     0.59998   0.75312   0.96211   0.00000  Uiso   1.00
O3178  O     0.90019   0.74457   0.03809   0.00000  Uiso   1.00
O3179  O     0.75312   0.59956   0.96128   0.00000  Uiso   1.00
O3180  O     0.75053   0.90000   0.03731   0.00000  Uiso   1.00
O3181  O     0.90081   0.74962   0.95934   0.00000  Uiso   1.00
O3182  O     0.59909   0.76141   0.04047   0.00000  Uiso   1.00
O3183  O     0.60456   0.94792   0.24116   0.00000  Uiso   1.00
O3184  O     0.53037   0.75000   0.33755   0.00000  Uiso   1.00
O3185  O     0.88277   0.56537   0.79951   0.00000  Uiso   1.00
O3186  O     0.55168   0.60498   0.23639   0.00000  Uiso   1.00
O3187  O     0.94646   0.89362   0.77065   0.00000  Uiso   1.00
O3188  O     0.88738   0.56026   0.20913   0.00000  Uiso   1.00
O3189  O     0.60649   0.94585   0.77192   0.00000  Uiso   1.00
O3190  O     0.94708   0.89522   0.24068   0.00000  Uiso   1.00
O3191  O     0.55756   0.60781   0.78073   0.00000  Uiso   1.00
O3192  O     0.60483   0.55315   0.76126   0.00000  Uiso   1.00
O3193  O     0.89245   0.94239   0.22003   0.00000  Uiso   1.00
O3194  O     0.55224   0.89504   0.76174   0.00000  Uiso   1.00
O3195  O     0.96964   0.75000   0.66245   0.00000  Uiso   1.00
O3196  O     0.93813   0.61419   0.20609   0.00000  Uiso   1.00
O3197  O     0.89387   0.94807   0.76281   0.00000  Uiso   1.00
O3198  O     0.60560   0.55294   0.23172   0.00000  Uiso   1.00
O3199  O     0.93807   0.61435   0.79425   0.00000  Uiso   1.00
O3200  O     0.55394   0.89362   0.22938   0.00000  Uiso   1.00
O3201  O     0.86145   0.69033   0.71078   0.00000  Uiso   1.00
O3202  O     0.64400   0.80403   0.27008   0.00000  Uiso   1.00
O3203  O     0.80224   0.85445   0.74275   0.00000  Uiso   1.00
O3204  O     0.69254   0.64243   0.28019   0.00000  Uiso   1.00
O3205  O     0.64533   0.80208   0.74099   0.00000  Uiso   1.00
O3206  O     0.75000   0.53037   0.33755   0.00000  Uiso   1.00
O3207  O     0.86329   0.68970   0.29154   0.00000  Uiso   1.00
O3208  O     0.69831   0.64490   0.73725   0.00000  Uiso   1.00
O3209  O     0.80291   0.85574   0.26798   0.00000  Uiso   1.00
O3210  O     0.85493   0.80175   0.26262   0.00000  Uiso   1.00
O3211  O     0.64432   0.69694   0.73216   0.00000  Uiso   1.00
O3212  O     0.80986   0.63787   0.29019   0.00000  Uiso   1.00
O3213  O     0.69583   0.85634   0.72887   0.00000  Uiso   1.00
O3214  O     0.64538   0.69701   0.25923   0.00000  Uiso   1.00
O3215  O     0.85650   0.80622   0.72360   0.00000  Uiso   1.00
O3216  O     0.69825   0.85462   0.25747   0.00000  Uiso   1.00
S3217  S     0.96224   0.81739   0.39478   0.00000  Uiso   1.00
S3218  S     0.71135   0.93348   0.10527   0.00000  Uiso   1.00
S3219  S     0.93848   0.70638   0.89658   0.00000  Uiso   1.00
S3220  S     0.56753   0.71606   0.10512   0.00000  Uiso   1.00
S3221  S     0.78686   0.93421   0.89486   0.00000  Uiso   1.00
S3222  S     0.78860   0.56470   0.10436   0.00000  Uiso   1.00
S3223  S     0.56439   0.79219   0.89498   0.00000  Uiso   1.00
S3224  S     0.93114   0.78448   0.10616   0.00000  Uiso   1.00
S3225  S     0.96438   0.68221   0.60460   0.00000  Uiso   1.00
S3226  S     0.68390   0.96066   0.39417   0.00000  Uiso   1.00
S3227  S     0.81523   0.96065   0.60474   0.00000  Uiso   1.00
S3228  S     0.54235   0.68721   0.39492   0.00000  Uiso   1.00
S3229  S     0.53660   0.81600   0.60557   0.00000  Uiso   1.00
S3230  S     0.81177   0.54328   0.39661   0.00000  Uiso   1.00
S3231  S     0.68193   0.53492   0.60561   0.00000  Uiso   1.00
S3232  S     0.71353   0.56799   0.89412   0.00000  Uiso   1.00
Zn3233 Zn    0.70660   0.50000   0.21735   0.00000  Uiso   1.00
Zn3234 Zn    0.54341   0.75000   0.28265   0.00000  Uiso   1.00
Zn3235 Zn    0.75000   0.95659   0.71735   0.00000  Uiso   1.00
Zn3236 Zn    0.75000   0.54341   0.28265   0.00000  Uiso   1.00
Zn3237 Zn    0.54341   0.75000   0.71735   0.00000  Uiso   1.00
Zn3238 Zn    0.95660   0.75000   0.28265   0.00000  Uiso   1.00
Zn3239 Zn    0.75000   0.54341   0.71735   0.00000  Uiso   1.00
Zn3240 Zn    0.75000   0.95659   0.28265   0.00000  Uiso   1.00
Zn3241 Zn    0.79341   0.50000   0.78265   0.00000  Uiso   1.00
Zn3242 Zn    0.50000   0.70660   0.21735   0.00000  Uiso   1.00
Zn3243 Zn    0.50000   0.79340   0.78265   0.00000  Uiso   1.00
Zn3244 Zn    0.79341   0.50000   0.21735   0.00000  Uiso   1.00
Zn3245 Zn    0.70660   0.50000   0.78265   0.00000  Uiso   1.00
Zn3246 Zn    0.50000   0.79340   0.21735   0.00000  Uiso   1.00
Zn3247 Zn    0.50000   0.70660   0.78265   0.00000  Uiso   1.00
Zn3248 Zn    0.95660   0.75000   0.71735   0.00000  Uiso   1.00
loop_
_geom_bond_atom_site_label_1
_geom_bond_atom_site_label_2
_geom_bond_distance
_geom_bond_site_symmetry_2
_ccdc_geom_bond_type
C1     S781    1.800   .     S
C1     C4      1.413   .     A
C1     C891    1.418   .     S
C2     S782    1.798   .     S
C2     C14     1.414   .     A
C2     C135    1.418   .     A
C3     C259    1.411   .     A
C3     C1662   1.413   1_545 S
C3     C1825   1.416   1_545 S
C4     C203    1.416   .     A
C4     C34     1.416   .     A
C5     C36     1.413   .     A
C5     C112    1.413   .     A
C5     C1017   1.416   .     S
C6     C204    1.414   .     A
C6     C206    1.415   .     A
C6     C37     1.414   .     A
C7     C207    1.421   .     A
C7     C215    1.413   .     A
C7     C38     1.415   .     A
C8     C35     1.409   .     A
C8     C208    1.416   .     A
C8     C1663   1.412   .     S
C9     C46     1.408   .     A
C9     C209    1.413   .     A
C9     C1664   1.411   1_545 S
C10    C41     1.414   .     A
C10    C210    1.416   .     A
C10    C57     1.414   .     A
C11    C68     1.413   .     A
C11    C42     1.416   .     A
C11    C211    1.416   .     A
C12    C212    1.413   .     A
C12    C39     1.416   .     A
C12    C270    1.413   .     A
C13    S783    1.794   .     S
C13    C15     1.408   .     A
C13    C958    1.414   .     S
C14    C213    1.417   .     A
C14    C40     1.415   .     A
C15    C214    1.413   .     A
C15    C853    1.410   .     S
C16    C216    1.417   .     A
C16    C24     1.410   .     A
C16    C854    1.412   1_455 S
C17    C260    1.411   .     A
C17    C262    1.410   .     A
C17    C232    1.465   .     S
C18    C261    1.413   .     A
C18    C258    1.413   .     A
C18    C233    1.460   .     S
C19    C257    1.411   .     A
C19    C264    1.415   .     A
C19    C225    1.461   .     S
C20    C227    1.447   .     S
C20    C256    1.404   .     A
C20    C263    1.405   .     A
C21    C266    1.410   .     A
C21    C228    1.457   .     S
C21    C255    1.409   .     A
C22    C265    1.407   .     A
C22    C229    1.454   .     S
C22    C254    1.406   .     A
C23    C253    1.415   .     A
C23    C268    1.411   .     A
C23    C230    1.462   .     S
C24    S784    1.795   .     S
C24    C969    1.412   1_455 S
C25    C267    1.410   .     A
C25    C231    1.448   .     S
C25    C252    1.406   .     A
C26    C241    1.462   .     S
C26    C251    1.416   .     A
C26    C271    1.410   .     A
C27    C242    1.448   .     S
C27    C269    1.409   .     A
C27    C250    1.406   .     A
C28    C273    1.410   .     A
C28    C249    1.410   .     A
C28    C234    1.464   .     S
C29    C235    1.460   .     S
C29    C247    1.412   .     A
C29    C272    1.412   .     A
C30    C275    1.416   .     A
C30    C246    1.411   .     A
C30    C236    1.460   .     S
C31    C238    1.447   .     S
C31    C274    1.406   .     A
C31    C245    1.410   .     A
C32    C277    1.409   .     A
C32    C244    1.409   .     A
C32    C239    1.458   .     S
C33    C276    1.407   .     A
C33    C243    1.407   .     A
C33    C240    1.454   .     S
C34    C36     1.405   .     A
C34    C1090   1.413   .     S
C35    S785    1.795   .     S
C35    C1748   1.412   .     S
C36    C1091   1.412   .     S
C37    C38     1.404   .     A
C37    C1904   1.411   .     S
C38    C1627   1.413   .     S
C39    C1632   1.412   1_545 S
C39    C1664   1.405   1_546 S
C40    C1633   1.411   .     S
C40    C1663   1.405   1_554 S
C41    C827    1.410   1_455 S
C41    C854    1.404   1_456 S
C42    C828    1.412   .     S
C42    C853    1.404   1_554 S
C43    C44     1.531   .     S
C43    H281    1.111   .     S
C43    H392    1.112   .     S
C43    O1542   1.416   .     S
C44    C45     1.527   .     S
C44    H503    1.112   .     S
C44    H567    1.111   .     S
C45    H600    1.111   .     S
C45    H589    1.108   .     S
C45    H578    1.109   .     S
C46    S786    1.794   .     S
C46    C1759   1.413   1_545 S
C47    O731    1.417   .     S
C47    H622    1.118   .     S
C47    H611    1.111   .     S
C47    C48     1.528   .     S
C48    C49     1.525   .     S
C48    H293    1.110   .     S
C48    H282    1.112   .     S
C49    H315    1.106   .     S
C49    H304    1.110   .     S
C49    H326    1.111   .     S
C50    H348    1.112   .     S
C50    H337    1.111   .     S
C50    C51     1.530   .     S
C50    O732    1.418   .     S
C51    C52     1.527   .     S
C51    H370    1.111   .     S
C51    H359    1.112   .     S
C52    H393    1.109   .     S
C52    H381    1.111   .     S
C52    H404    1.111   .     S
C53    C54     1.532   .     S
C53    O733    1.417   .     S
C53    H426    1.116   .     S
C53    H415    1.111   .     S
C54    H437    1.112   .     S
C54    C55     1.526   .     S
C54    H448    1.110   .     S
C55    H481    1.111   .     S
C55    H470    1.110   .     S
C55    H459    1.111   .     S
C56    H492    1.114   .     S
C56    C58     1.527   .     S
C56    H504    1.116   .     S
C56    O734    1.411   .     S
C57    S787    1.797   .     S
C57    C146    1.418   .     A
C58    H526    1.112   .     S
C58    H515    1.111   .     S
C58    C59     1.524   .     S
C59    H559    1.111   .     S
C59    H537    1.110   .     S
C59    H548    1.109   .     S
C60    H563    1.111   .     S
C60    O735    1.417   .     S
C60    C61     1.533   .     S
C60    H564    1.116   .     S
C61    H565    1.112   .     S
C61    C62     1.525   .     S
C61    H566    1.110   .     S
C62    H569    1.110   .     S
C62    H570    1.110   .     S
C62    H568    1.111   .     S
C63    O736    1.412   .     S
C63    H572    1.115   .     S
C63    H571    1.114   .     S
C63    C64     1.528   .     S
C64    H573    1.111   .     S
C64    H574    1.112   .     S
C64    C65     1.526   .     S
C65    H575    1.111   .     S
C65    H577    1.111   .     S
C65    H576    1.111   .     S
C66    H580    1.112   .     S
C66    H579    1.111   .     S
C66    C67     1.531   .     S
C66    O738    1.416   .     S
C67    H581    1.112   .     S
C67    H582    1.111   .     S
C67    C69     1.527   .     S
C68    C157    1.416   .     A
C68    S788    1.798   .     S
C69    H583    1.109   .     S
C69    H584    1.109   .     S
C69    H585    1.111   .     S
C70    H587    1.114   .     S
C70    O739    1.418   .     S
C70    C71     1.531   .     S
C70    H586    1.111   .     S
C71    H588    1.111   .     S
C71    C72     1.527   .     S
C71    H590    1.111   .     S
C72    H591    1.111   .     S
C72    H593    1.111   .     S
C72    H592    1.109   .     S
C73    C74     1.533   .     S
C73    H594    1.111   .     S
C73    O740    1.416   .     S
C73    H595    1.116   .     S
C74    H596    1.112   .     S
C74    C75     1.526   .     S
C74    H597    1.110   1_554 S
C75    H599    1.110   .     S
C75    H601    1.111   .     S
C75    H598    1.111   .     S
C76    C77     1.529   .     S
C76    H603    1.115   .     S
C76    O741    1.413   .     S
C76    H602    1.114   .     S
C77    H604    1.111   .     S
C77    C78     1.526   .     S
C77    H605    1.112   .     S
C78    H608    1.111   .     S
C78    H606    1.111   .     S
C78    H607    1.111   .     S
C79    C219    1.453   .     S
C79    C226    1.415   .     A
C79    C813    1.418   1_455 S
C80    H609    1.112   .     S
C80    H610    1.115   .     S
C80    O742    1.410   .     S
C80    C81     1.527   .     S
C81    H613    1.112   .     S
C81    C82     1.524   .     S
C81    H612    1.111   .     S
C82    H614    1.111   .     S
C82    H615    1.110   .     S
C82    H616    1.111   .     S
C83    O743    1.413   .     S
C83    H617    1.115   .     S
C83    C84     1.528   .     S
C83    H618    1.112   .     S
C84    H619    1.112   .     S
C84    H620    1.112   .     S
C84    C85     1.525   .     S
C85    H624    1.111   .     S
C85    H621    1.111   .     S
C85    H623    1.110   .     S
C86    O744    1.412   .     S
C86    H625    1.114   .     S
C86    H626    1.115   .     S
C86    C87     1.529   .     S
C87    H628    1.112   .     S
C87    C88     1.526   .     S
C87    H627    1.111   .     S
C88    H631    1.111   .     S
C88    H629    1.111   .     S
C88    H630    1.111   .     S
C89    O745    1.416   .     S
C89    C91     1.533   .     S
C89    H283    1.116   .     S
C89    H632    1.111   .     S
C90    C220    1.453   .     S
C90    C112    1.416   .     A
C90    C1049   1.412   .     S
C91    H285    1.110   .     S
C91    C92     1.526   .     S
C91    H284    1.112   .     S
C92    H287    1.110   .     S
C92    H286    1.111   .     S
C92    H288    1.111   .     S
C93    H289    1.111   .     S
C93    H290    1.114   .     S
C93    C94     1.531   .     S
C93    O746    1.418   .     S
C94    H291    1.111   .     S
C94    C95     1.527   .     S
C94    H292    1.111   .     S
C95    H296    1.111   .     S
C95    H294    1.111   .     S
C95    H295    1.109   .     S
C96    O747    1.418   .     S
C96    H297    1.110   .     S
C96    H298    1.116   .     S
C96    C97     1.530   .     S
C97    C98     1.525   .     S
C97    H300    1.111   .     S
C97    H299    1.111   .     S
C98    H302    1.109   .     S
C98    H301    1.110   .     S
C98    H1927   1.110   .     S
C99    H305    1.117   .     S
C99    H306    1.114   .     S
C99    O749    1.414   .     S
C99    C100    1.529   .     S
C100   H307    1.111   .     S
C100   C102    1.525   .     S
C100   H308    1.111   .     S
C101   C248    1.413   .     A
C101   C217    1.455   .     S
C101   C1828   1.417   1_545 S
C102   H310    1.110   .     S
C102   H311    1.111   .     S
C102   H309    1.110   .     S
C103   O750    1.417   .     S
C103   H313    1.114   .     S
C103   H312    1.111   .     S
C103   C104    1.531   .     S
C104   H314    1.109   .     S
C104   C105    1.527   .     S
C104   H316    1.111   .     S
C105   H318    1.109   .     S
C105   H317    1.111   .     S
C105   H1131   1.111   1_455 S
C106   C107    1.527   .     S
C106   H320    1.116   .     S
C106   O751    1.415   .     S
C106   H321    1.113   .     S
C107   C108    1.525   .     S
C107   H1134   1.111   .     S
C107   H1135   1.111   .     S
C108   H324    1.111   .     S
C108   H327    1.111   .     S
C108   H1137   1.111   .     S
C109   H328    1.111   .     S
C109   O752    1.418   .     S
C109   H329    1.118   .     S
C109   C110    1.531   .     S
C110   H330    1.110   .     S
C110   H331    1.108   .     S
C110   C1735   1.523   1_545 S
C111   H334    1.106   .     S
C111   H333    1.109   .     S
C111   C1734   1.523   .     S
C111   H1956   1.109   .     S
C112   S789    1.795   .     S
C113   C218    1.454   .     S
C113   C215    1.415   .     A
C113   C1883   1.414   .     S
C114   C115    1.526   .     S
C114   H336    1.113   .     S
C114   H335    1.118   .     S
C114   O753    1.415   .     S
C115   H338    1.111   .     S
C115   C116    1.526   .     S
C115   H1963   1.111   .     S
C116   H340    1.111   .     S
C116   H342    1.111   .     S
C116   H1965   1.108   .     S
C117   H344    1.116   .     S
C117   C118    1.531   .     S
C117   O754    1.422   .     S
C117   H343    1.111   .     S
C118   H346    1.111   .     S
C118   H345    1.109   .     S
C118   C119    1.526   .     S
C119   H347    1.111   .     S
C119   H349    1.110   .     S
C119   H1162   1.111   .     S
C120   H351    1.111   .     S
C120   O755    1.421   .     S
C120   H352    1.117   .     S
C120   C121    1.531   .     S
C121   H354    1.110   .     S
C121   C122    1.528   .     S
C121   H353    1.109   .     S
C122   H356    1.109   .     S
C122   H357    1.111   .     S
C122   H355    1.110   .     S
C123   C125    1.532   .     S
C123   O756    1.421   .     S
C123   H360    1.116   .     S
C123   H358    1.110   .     S
C124   C270    1.416   .     A
C124   C223    1.452   .     S
C124   C1659   1.412   1_545 S
C125   H362    1.111   .     S
C125   H361    1.109   .     S
C125   C126    1.527   .     S
C126   H363    1.111   .     S
C126   H364    1.110   .     S
C126   H1989   1.111   1_545 S
C127   O757    1.421   .     S
C127   H366    1.111   .     S
C127   C128    1.531   .     S
C127   H367    1.117   .     S
C128   C129    1.528   .     S
C128   H369    1.111   .     S
C128   H368    1.109   .     S
C129   H371    1.110   .     S
C129   H373    1.111   .     S
C129   H372    1.109   .     S
C130   O758    1.417   .     S
C130   C131    1.529   .     S
C130   H374    1.111   .     S
C130   H375    1.119   .     S
C131   H377    1.110   .     S
C131   H376    1.111   .     S
C131   C132    1.526   .     S
C132   H379    1.110   .     S
C132   H378    1.111   .     S
C132   H1192   1.111   1_455 S
C133   H383    1.114   .     S
C133   C134    1.531   .     S
C133   O760    1.414   .     S
C133   H382    1.116   .     S
C134   H384    1.112   .     S
C134   H385    1.111   .     S
C134   C136    1.525   .     S
C135   C224    1.455   .     S
C135   C1670   1.413   .     S
C136   H388    1.110   .     S
C136   H386    1.111   .     S
C136   H387    1.110   .     S
C137   H390    1.111   .     S
C137   H389    1.118   .     S
C137   O761    1.414   .     S
C137   C1762   1.526   .     S
C138   H394    1.110   .     S
C138   C139    1.526   .     S
C138   H391    1.111   .     S
C138   C1761   1.526   1_545 S
C139   H397    1.111   .     S
C139   H396    1.111   .     S
C139   H395    1.111   .     S
C140   O762    1.418   .     S
C140   C141    1.529   .     S
C140   H399    1.118   .     S
C140   H398    1.111   .     S
C141   H401    1.111   .     S
C141   C142    1.526   .     S
C141   H2024   1.110   1_545 S
C142   H402    1.111   .     S
C142   H405    1.111   .     S
C142   H2027   1.110   1_545 S
C143   C144    1.532   .     S
C143   H406    1.110   .     S
C143   O763    1.418   .     S
C143   H407    1.116   .     S
C144   H408    1.111   .     S
C144   C145    1.525   .     S
C144   H409    1.109   .     S
C145   H410    1.111   .     S
C145   H1223   1.111   .     S
C145   H1224   1.108   .     S
C146   C221    1.457   .     S
C146   C825    1.414   1_455 S
C147   O764    1.415   .     S
C147   H414    1.113   .     S
C147   C148    1.526   .     S
C147   H413    1.118   .     S
C148   H416    1.111   .     S
C148   C149    1.526   .     S
C148   H1229   1.110   1_455 S
C149   H420    1.111   .     S
C149   H418    1.111   .     S
C149   H1231   1.107   1_455 S
C150   O765    1.419   .     S
C150   H422    1.119   .     S
C150   C151    1.532   .     S
C150   H421    1.110   .     S
C151   C152    1.522   .     S
C151   H424    1.107   .     S
C151   H423    1.110   .     S
C152   H425    1.109   .     S
C152   H427    1.109   .     S
C152   H428    1.105   .     S
C153   O766    1.415   .     S
C153   H430    1.113   .     S
C153   H429    1.118   .     S
C153   C154    1.525   .     S
C154   C155    1.526   .     S
C154   H431    1.111   .     S
C154   H432    1.110   .     S
C155   H433    1.111   .     S
C155   H434    1.107   .     S
C155   H435    1.111   .     S
C156   C158    1.532   .     S
C156   O767    1.423   .     S
C156   H436    1.111   .     S
C156   H438    1.115   .     S
C157   C222    1.451   .     S
C157   C836    1.412   .     S
C158   H440    1.111   .     S
C158   C159    1.526   .     S
C158   H439    1.109   .     S
C159   H441    1.111   .     S
C159   H442    1.110   .     S
C159   H443    1.111   .     S
C160   H444    1.111   .     S
C160   H445    1.117   .     S
C160   C161    1.530   .     S
C160   O768    1.421   .     S
C161   H446    1.109   .     S
C161   C162    1.528   .     S
C161   H447    1.110   .     S
C162   H449    1.110   .     S
C162   H450    1.109   .     S
C162   H451    1.111   .     S
C163   O769    1.419   .     S
C163   H452    1.110   .     S
C163   C164    1.531   .     S
C163   H453    1.117   .     S
C164   C165    1.526   .     S
C164   H455    1.111   .     S
C164   H454    1.111   .     S
C165   H458    1.110   .     S
C165   H456    1.111   .     S
C165   H457    1.109   .     S
C166   H460    1.116   .     S
C166   C167    1.531   .     S
C166   H461    1.113   .     S
C166   O771    1.414   .     S
C167   H462    1.111   .     S
C167   C169    1.525   .     S
C167   H463    1.111   .     S
C168   C278    1.418   .     A
C168   C205    1.398   .     A
C168   O730    1.387   .     S
C169   H466    1.110   .     S
C169   H464    1.110   .     S
C169   H465    1.110   .     S
C170   C171    1.532   .     S
C170   H467    1.111   .     S
C170   O772    1.417   .     S
C170   H468    1.114   .     S
C171   H469    1.109   .     S
C171   H471    1.111   .     S
C171   C172    1.527   .     S
C172   H473    1.109   .     S
C172   H474    1.111   .     S
C172   H472    1.110   .     S
C173   O773    1.418   .     S
C173   H475    1.111   .     S
C173   C174    1.529   .     S
C173   H476    1.118   .     S
C174   H478    1.111   .     S
C174   C175    1.526   .     S
C174   H477    1.110   .     S
C175   H479    1.111   .     S
C175   H482    1.111   .     S
C175   H480    1.110   .     S
C176   O774    1.417   .     S
C176   H483    1.111   .     S
C176   C177    1.532   .     S
C176   H484    1.115   .     S
C177   H485    1.109   .     S
C177   C178    1.527   .     S
C177   H486    1.111   .     S
C178   H487    1.111   .     S
C178   H489    1.111   .     S
C178   H488    1.109   .     S
C179   C203    1.395   .     A
C179   O731    1.386   .     S
C179   C1091   1.412   .     S
C180   O775    1.418   .     S
C180   H491    1.118   .     S
C180   H490    1.111   .     S
C180   C181    1.529   .     S
C181   C182    1.526   .     S
C181   H494    1.110   .     S
C181   H493    1.110   .     S
C182   H496    1.111   .     S
C182   H495    1.111   .     S
C182   H497    1.111   .     S
C183   O776    1.418   .     S
C183   H498    1.111   .     S
C183   H499    1.118   .     S
C183   C184    1.531   .     S
C184   H500    1.110   .     S
C184   H501    1.107   .     S
C184   C185    1.522   .     S
C185   H502    1.109   .     S
C185   H506    1.105   .     S
C185   H505    1.109   .     S
C186   H508    1.113   .     S
C186   C187    1.525   .     S
C186   O777    1.414   .     S
C186   H507    1.118   .     S
C187   H510    1.110   .     S
C187   H509    1.111   .     S
C187   C188    1.526   .     S
C188   H511    1.111   .     S
C188   H513    1.111   .     S
C188   H512    1.108   .     S
C189   H514    1.111   .     S
C189   O778    1.423   .     S
C189   C191    1.531   .     S
C189   H516    1.116   .     S
C190   C280    1.417   .     A
C190   C1831   1.399   1_545 S
C190   O2356   1.389   1_545 S
C191   H518    1.111   .     S
C191   C192    1.526   .     S
C191   H517    1.109   .     S
C192   H521    1.111   .     S
C192   H519    1.111   .     S
C192   H520    1.110   .     S
C193   H523    1.117   .     S
C193   C194    1.530   .     S
C193   H522    1.111   .     S
C193   O779    1.420   .     S
C194   C195    1.526   .     S
C194   H524    1.107   .     S
C194   H525    1.111   .     S
C195   H529    1.111   .     S
C195   H527    1.109   .     S
C195   H528    1.109   .     S
C196   H530    1.110   .     S
C196   O780    1.418   .     S
C196   H531    1.116   .     S
C196   C197    1.531   .     S
C197   H533    1.111   .     S
C197   H532    1.111   .     S
C197   C198    1.526   .     S
C198   H534    1.111   .     S
C198   H536    1.110   .     S
C198   H535    1.109   .     S
C199   H539    1.113   .     S
C199   O635    1.413   .     S
C199   H538    1.116   .     S
C199   C200    1.531   .     S
C200   H540    1.111   .     S
C200   C202    1.524   .     S
C200   H541    1.111   .     S
C201   C206    1.397   .     A
C201   O733    1.386   .     S
C201   C1627   1.416   .     S
C202   H543    1.110   .     S
C202   H544    1.109   .     S
C202   H542    1.110   .     S
C203   O1546   1.382   .     S
C204   S790    1.797   .     S
C204   C1725   1.417   .     S
C205   O735    1.385   .     S
C205   C817    1.416   1_455 S
C206   O2360   1.383   .     S
C207   C1814   1.399   .     S
C207   O2362   1.387   .     S
C208   O739    1.388   .     S
C208   C213    1.397   1_556 S
C209   O740    1.386   .     S
C209   C212    1.401   1_554 S
C210   O741    1.383   .     S
C210   C216    1.398   1_556 S
C211   O742    1.382   .     S
C211   C214    1.397   1_554 S
C212   O743    1.384   .     S
C212   C209    1.401   1_556 S
C213   O744    1.383   .     S
C213   C208    1.397   1_554 S
C214   O745    1.385   .     S
C214   C211    1.397   1_556 S
C215   S791    1.795   .     S
C216   O746    1.387   .     S
C216   C210    1.398   1_554 S
C217   O770    1.278   .     A
C217   O2350   1.280   1_545 S
C218   O634    1.277   .     A
C218   O2361   1.279   .     S
C219   O748    1.277   .     A
C219   O1457   1.278   1_455 S
C220   O759    1.277   .     A
C220   O1468   1.277   .     S
C221   O690    1.279   .     A
C221   O667    1.280   .     A
C222   O1490   1.277   .     A
C222   O1503   1.279   .     S
C223   O692    1.277   .     A
C223   O688    1.277   .     A
C224   O2313   1.277   .     S
C224   O2318   1.279   .     S
C225   O695    1.277   .     A
C225   O723    1.283   .     A
C226   C278    1.410   .     A
C226   S792    1.797   .     S
C227   O724    1.273   .     A
C227   O696    1.279   .     A
C228   O721    1.279   .     A
C228   O697    1.278   .     A
C229   O698    1.277   .     A
C229   O722    1.277   .     A
C230   O699    1.286   .     A
C230   O728    1.281   .     A
C231   O700    1.277   .     A
C231   O729    1.281   .     A
C232   O701    1.282   .     A
C232   O725    1.281   .     A
C233   O702    1.281   .     A
C233   O727    1.279   .     A
C234   O703    1.281   .     A
C234   O714    1.279   .     A
C235   O705    1.279   .     A
C235   O716    1.279   .     A
C236   O706    1.278   .     A
C236   O712    1.282   .     A
C237   S793    1.796   .     S
C237   C279    1.409   .     A
C237   C902    1.412   1_455 S
C238   O707    1.278   .     A
C238   O713    1.272   .     A
C239   O708    1.279   .     A
C239   O719    1.280   .     A
C240   O709    1.278   .     A
C240   O720    1.278   .     A
C241   O717    1.279   .     A
C241   O710    1.287   .     A
C242   O718    1.281   .     A
C242   O711    1.277   .     A
C243   C260    1.396   .     A
C243   O747    1.386   .     S
C244   C258    1.391   .     A
C244   O749    1.383   .     S
C245   O750    1.387   .     S
C245   C257    1.397   .     A
C246   O751    1.385   .     S
C246   C256    1.397   .     A
C247   C255    1.391   .     A
C247   O752    1.386   .     S
C248   S794    1.793   .     S
C248   C280    1.409   .     A
C249   C254    1.395   .     A
C249   O753    1.383   .     S
C250   C253    1.388   .     A
C250   O754    1.389   .     S
C251   C252    1.387   .     A
C251   O755    1.384   .     S
C252   O756    1.388   .     S
C253   O757    1.383   .     S
C254   O758    1.383   .     S
C255   O760    1.384   .     S
C256   O761    1.384   .     S
C257   O762    1.385   .     S
C258   O763    1.387   .     S
C259   S795    1.797   .     S
C259   C1737   1.414   1_545 S
C260   O764    1.383   .     S
C261   C277    1.393   .     A
C261   O765    1.386   .     S
C262   O766    1.383   .     S
C262   C276    1.397   .     A
C263   C275    1.389   .     A
C263   O767    1.389   .     S
C264   C274    1.388   .     A
C264   O768    1.383   .     S
C265   O769    1.386   .     S
C265   C273    1.396   .     A
C266   O771    1.385   .     S
C266   C272    1.393   .     A
C267   C271    1.398   .     A
C267   O772    1.387   .     S
C268   O773    1.385   .     S
C268   C269    1.398   .     A
C269   O774    1.387   .     S
C270   S796    1.799   .     S
C271   O775    1.385   .     S
C272   O776    1.386   .     S
C273   O777    1.383   .     S
C274   O778    1.389   .     S
C275   O779    1.382   .     S
C276   O780    1.386   .     S
C277   O635    1.384   .     S
C278   C846    1.413   1_455 S
C279   C848    1.412   1_455 S
C279   C991    1.412   1_455 S
C280   C1661   1.411   1_545 S
H303   C1722   1.110   1_545 S
H319   C917    1.111   .     S
H322   C919    1.111   1_455 S
H323   C919    1.111   1_455 S
H325   C920    1.111   1_455 S
H332   C1735   1.109   1_545 S
H339   C1739   1.111   1_545 S
H341   C1740   1.108   1_545 S
H350   C931    1.111   1_455 S
H365   C1750   1.111   .     S
H380   C944    1.111   .     S
H400   C1765   1.110   .     S
H403   C1766   1.110   .     S
H411   C957    1.111   1_455 S
H412   C957    1.108   1_455 S
H417   C960    1.110   .     S
H419   C961    1.107   .     S
H545   O638    0.991   .     S
H546   O641    0.991   .     S
H547   O644    0.991   .     S
H549   O648    0.991   .     S
H550   O651    0.990   .     S
H551   O654    0.991   .     S
H552   O658    0.991   .     S
H553   O661    0.991   .     S
H554   O664    0.991   .     S
H555   O668    0.991   .     S
H556   O671    0.991   .     S
H557   O674    0.991   .     S
H558   O677    0.991   .     S
H560   O681    0.991   .     S
H561   O684    0.991   .     S
H562   O687    0.991   .     S
H597   C74     1.110   1_556 S
O633   Zn797   1.943   .     S
O633   Zn800   1.943   .     S
O633   Zn808   1.947   .     S
O633   Zn2428  1.950   1_545 S
O634   Zn799   1.943   .     S
O636   S781    1.503   .     D
O637   S781    1.503   .     D
O638   S781    1.680   .     S
O639   S789    1.503   .     D
O640   S789    1.503   .     D
O641   S789    1.681   .     S
O642   S790    1.501   .     D
O643   S790    1.503   .     D
O644   S790    1.681   .     S
O645   Zn802   1.940   .     S
O645   C1031   1.278   .     S
O646   S791    1.502   .     D
O647   S791    1.503   .     D
O648   S791    1.682   .     S
O649   S792    1.501   .     D
O650   S792    1.503   .     D
O651   S792    1.681   .     S
O652   S793    1.502   .     D
O653   S793    1.503   .     D
O654   S793    1.682   .     S
O655   S794    1.502   .     D
O656   Zn801   1.940   .     S
O656   C1032   1.277   1_455 S
O657   S794    1.503   .     D
O658   S794    1.682   .     S
O659   S795    1.502   .     D
O660   S795    1.503   .     D
O661   S795    1.681   .     S
O662   S796    1.502   .     D
O663   S796    1.503   .     D
O664   S796    1.681   .     S
O665   S782    1.502   .     D
O666   S782    1.503   .     D
O667   Zn811   1.939   .     S
O668   S782    1.681   .     S
O669   S783    1.502   .     D
O670   S783    1.503   .     D
O671   S783    1.682   .     S
O672   S784    1.502   .     D
O673   S784    1.503   .     D
O674   S784    1.681   .     S
O675   S785    1.502   .     D
O676   S785    1.503   .     D
O677   S785    1.681   .     S
O678   C1034   1.277   1_455 A
O678   Zn810   1.939   .     S
O679   S786    1.502   .     D
O680   S786    1.503   .     D
O681   S786    1.682   .     S
O682   S787    1.502   .     D
O683   S787    1.503   .     D
O684   S787    1.682   .     S
O685   S788    1.502   .     D
O686   S788    1.503   .     D
O687   S788    1.681   .     S
O688   Zn805   1.942   .     S
O689   Zn797   1.942   .     S
O689   C1848   1.277   1_545 S
O690   Zn807   1.943   .     S
O691   C1034   1.279   1_455 S
O691   Zn806   1.943   .     S
O692   Zn809   1.940   .     S
O693   Zn803   1.950   .     S
O693   Zn809   1.947   .     S
O693   Zn805   1.943   .     S
O693   Zn2423  1.943   1_545 S
O694   Zn808   1.940   .     S
O694   C1848   1.279   1_545 S
O695   Zn800   1.933   .     S
O696   Zn799   1.933   .     S
O697   Zn802   1.940   .     S
O698   Zn801   1.940   .     S
O699   Zn804   1.933   .     S
O700   Zn803   1.933   .     S
O701   Zn798   1.942   .     S
O702   Zn812   1.942   .     S
O703   Zn799   1.942   .     S
O704   Zn810   1.950   .     S
O704   Zn798   1.943   .     S
O704   Zn1614  1.947   1_455 S
O704   Zn806   1.943   .     S
O705   Zn800   1.942   .     S
O706   Zn812   1.933   .     S
O707   Zn798   1.933   .     S
O708   Zn803   1.939   .     S
O709   Zn804   1.939   .     S
O710   Zn801   1.935   .     S
O711   Zn802   1.935   .     S
O712   Zn1619  1.933   .     S
O713   Zn806   1.933   .     S
O714   Zn2433  1.940   .     S
O715   Zn801   1.947   .     S
O715   Zn807   1.943   .     S
O715   Zn811   1.950   .     S
O715   Zn1624  1.943   1_455 S
O716   Zn808   1.940   .     S
O717   Zn811   1.933   .     S
O718   Zn1622  1.933   .     S
O719   Zn805   1.942   .     S
O720   Zn2421  1.942   .     S
O721   Zn1618  1.942   .     S
O722   Zn807   1.942   .     S
O723   Zn797   1.933   .     S
O724   Zn2429  1.933   .     S
O725   Zn810   1.939   .     S
O726   Zn804   1.939   .     S
O726   C1841   1.280   .     S
O727   Zn1623  1.939   .     S
O728   Zn2432  1.935   .     S
O729   Zn809   1.935   .     S
O730   C855    1.416   1_455 S
O732   C1814   1.389   .     S
O734   C1015   1.382   1_455 S
O736   C1830   1.383   1_545 S
O737   Zn803   1.939   .     S
O737   C1842   1.279   1_545 S
O738   C1831   1.387   1_545 S
O748   Zn798   1.942   .     S
O759   Zn812   1.942   .     S
O770   Zn800   1.943   .     S
Zn797  O2344   1.942   1_545 S
Zn799  O2317   1.943   .     S
Zn802  O1516   1.947   .     S
Zn804  O2257   1.950   .     S
Zn805  O2348   1.933   1_545 S
Zn806  O1533   1.942   1_455 S
Zn807  O1524   1.933   1_455 S
Zn808  O2352   1.935   1_545 S
Zn809  O2338   1.940   1_545 S
Zn810  O1530   1.933   1_455 S
Zn811  O1539   1.939   1_455 S
Zn812  O1527   1.943   .     S
C813   S1593   1.800   .     S
C813   C816    1.413   .     A
C813   C79     1.418   1_655 S
C814   S1594   1.798   .     S
C814   C826    1.414   .     A
C814   C947    1.418   .     A
C815   C1071   1.411   .     A
C815   C2474   1.413   1_545 S
C815   C2637   1.416   1_545 S
C816   C1015   1.416   .     A
C816   C846    1.416   .     A
C817   C848    1.413   .     A
C817   C924    1.413   .     A
C817   C205    1.416   1_655 S
C818   C1016   1.414   .     A
C818   C1018   1.415   .     A
C818   C849    1.414   .     A
C819   C1019   1.421   .     A
C819   C1027   1.413   .     A
C819   C850    1.415   .     A
C820   C847    1.409   .     A
C820   C1020   1.416   .     A
C820   C2475   1.412   .     S
C821   C858    1.408   .     A
C821   C1021   1.413   .     A
C821   C2476   1.411   1_545 S
C822   C853    1.414   .     A
C822   C1022   1.416   .     A
C822   C869    1.414   .     A
C823   C880    1.413   .     A
C823   C854    1.416   .     A
C823   C1023   1.416   .     A
C824   C1024   1.413   .     A
C824   C851    1.416   .     A
C824   C1082   1.413   .     A
C825   S1595   1.794   .     S
C825   C827    1.408   .     A
C825   C146    1.414   1_655 S
C826   C1025   1.417   .     A
C826   C852    1.415   .     A
C827   C1026   1.413   .     A
C827   C41     1.410   1_655 S
C828   C1028   1.417   .     A
C828   C836    1.410   .     A
C829   C1072   1.411   .     A
C829   C1074   1.410   .     A
C829   C1044   1.465   .     S
C830   C1073   1.413   .     A
C830   C1070   1.413   .     A
C830   C1045   1.460   .     S
C831   C1069   1.411   .     A
C831   C1076   1.415   .     A
C831   C1037   1.461   .     S
C832   C1039   1.447   .     S
C832   C1068   1.404   .     A
C832   C1075   1.405   .     A
C833   C1078   1.410   .     A
C833   C1040   1.457   .     S
C833   C1067   1.409   .     A
C834   C1077   1.407   .     A
C834   C1041   1.454   .     S
C834   C1066   1.406   .     A
C835   C1065   1.415   .     A
C835   C1080   1.411   .     A
C835   C1042   1.462   .     S
C836   S1596   1.795   .     S
C837   C1079   1.410   .     A
C837   C1043   1.448   .     S
C837   C1064   1.406   .     A
C838   C1053   1.462   .     S
C838   C1063   1.416   .     A
C838   C1083   1.410   .     A
C839   C1054   1.448   .     S
C839   C1081   1.409   .     A
C839   C1062   1.406   .     A
C840   C1085   1.410   .     A
C840   C1061   1.410   .     A
C840   C1046   1.464   .     S
C841   C1047   1.460   .     S
C841   C1059   1.412   .     A
C841   C1084   1.412   .     A
C842   C1087   1.416   .     A
C842   C1058   1.411   .     A
C842   C1048   1.460   .     S
C843   C1050   1.447   .     S
C843   C1086   1.406   .     A
C843   C1057   1.410   .     A
C844   C1089   1.409   .     A
C844   C1056   1.409   .     A
C844   C1051   1.458   .     S
C845   C1088   1.407   .     A
C845   C1055   1.407   .     A
C845   C1052   1.454   .     S
C846   C848    1.405   .     A
C846   C278    1.413   1_655 S
C847   S1597   1.795   .     S
C847   C2560   1.412   .     S
C848   C279    1.412   1_655 S
C849   C850    1.404   .     A
C849   C2716   1.411   .     S
C850   C2439   1.413   .     S
C851   C2444   1.412   1_545 S
C851   C2476   1.405   1_546 S
C852   C2445   1.411   .     S
C852   C2475   1.405   1_554 S
C853   C42     1.404   1_556 S
C854   C16     1.412   1_655 S
C854   C41     1.404   1_654 S
C855   C856    1.531   .     S
C855   H1093   1.111   .     S
C855   H1204   1.112   .     S
C855   O730    1.416   1_655 S
C856   C857    1.527   .     S
C856   H1315   1.112   .     S
C856   H1379   1.111   .     S
C857   H1412   1.111   .     S
C857   H1401   1.108   .     S
C857   H1390   1.109   .     S
C858   S1598   1.794   .     S
C858   C2571   1.413   1_545 S
C859   O1543   1.417   .     S
C859   H1434   1.118   .     S
C859   H1423   1.111   .     S
C859   C860    1.528   .     S
C860   C861    1.525   .     S
C860   H1105   1.110   .     S
C860   H1094   1.112   .     S
C861   H1127   1.106   .     S
C861   H1116   1.110   .     S
C861   H1138   1.111   .     S
C862   H1160   1.112   .     S
C862   H1149   1.111   .     S
C862   C863    1.530   .     S
C862   O1544   1.418   .     S
C863   C864    1.527   .     S
C863   H1182   1.111   .     S
C863   H1171   1.112   .     S
C864   H1205   1.109   .     S
C864   H1193   1.111   .     S
C864   H1216   1.111   .     S
C865   C866    1.532   .     S
C865   O1545   1.417   .     S
C865   H1238   1.116   .     S
C865   H1227   1.111   .     S
C866   H1249   1.112   .     S
C866   C867    1.526   .     S
C866   H1260   1.110   .     S
C867   H1293   1.111   .     S
C867   H1282   1.110   .     S
C867   H1271   1.111   .     S
C868   H1304   1.114   .     S
C868   C870    1.527   .     S
C868   H1316   1.116   .     S
C868   O1546   1.411   .     S
C869   S1599   1.797   .     S
C869   C958    1.418   .     A
C870   H1338   1.112   .     S
C870   H1327   1.111   .     S
C870   C871    1.524   .     S
C871   H1371   1.111   .     S
C871   H1349   1.110   .     S
C871   H1360   1.109   .     S
C872   H1375   1.111   .     S
C872   O1547   1.417   .     S
C872   C873    1.533   .     S
C872   H1376   1.116   .     S
C873   H1377   1.112   .     S
C873   C874    1.525   .     S
C873   H1378   1.110   .     S
C874   H1381   1.110   .     S
C874   H1382   1.110   .     S
C874   H1380   1.111   .     S
C875   O1548   1.412   .     S
C875   H1384   1.115   .     S
C875   H1383   1.114   .     S
C875   C876    1.528   .     S
C876   H1385   1.111   .     S
C876   H1386   1.112   .     S
C876   C877    1.526   .     S
C877   H1387   1.111   .     S
C877   H1389   1.111   .     S
C877   H1388   1.111   .     S
C878   H1392   1.112   .     S
C878   H1391   1.111   .     S
C878   C879    1.531   .     S
C878   O1550   1.416   .     S
C879   H1393   1.112   .     S
C879   H1394   1.111   .     S
C879   C881    1.527   .     S
C880   C969    1.416   .     A
C880   S1600   1.798   .     S
C881   H1395   1.109   .     S
C881   H1396   1.109   .     S
C881   H1397   1.111   .     S
C882   H1399   1.114   .     S
C882   O1551   1.418   .     S
C882   C883    1.531   .     S
C882   H1398   1.111   .     S
C883   H1400   1.111   .     S
C883   C884    1.527   .     S
C883   H1402   1.111   .     S
C884   H1403   1.111   .     S
C884   H1405   1.111   .     S
C884   H1404   1.109   .     S
C885   C886    1.533   .     S
C885   H1406   1.111   .     S
C885   O1552   1.416   .     S
C885   H1407   1.116   .     S
C886   H1408   1.112   .     S
C886   C887    1.526   .     S
C886   H1409   1.110   1_554 S
C887   H1411   1.110   .     S
C887   H1413   1.111   .     S
C887   H1410   1.111   .     S
C888   C889    1.529   .     S
C888   H1415   1.115   .     S
C888   O1553   1.413   .     S
C888   H1414   1.114   .     S
C889   H1416   1.111   .     S
C889   C890    1.526   .     S
C889   H1417   1.112   .     S
C890   H1420   1.111   .     S
C890   H1418   1.111   .     S
C890   H1419   1.111   .     S
C891   C1031   1.453   .     S
C891   C1038   1.415   .     A
C892   H1421   1.112   .     S
C892   H1422   1.115   .     S
C892   O1554   1.410   .     S
C892   C893    1.527   .     S
C893   H1425   1.112   .     S
C893   C894    1.524   .     S
C893   H1424   1.111   .     S
C894   H1426   1.111   .     S
C894   H1427   1.110   .     S
C894   H1428   1.111   .     S
C895   O1555   1.413   .     S
C895   H1429   1.115   .     S
C895   C896    1.528   .     S
C895   H1430   1.112   .     S
C896   H1431   1.112   .     S
C896   H1432   1.112   .     S
C896   C897    1.525   .     S
C897   H1436   1.111   .     S
C897   H1433   1.111   .     S
C897   H1435   1.110   .     S
C898   O1556   1.412   .     S
C898   H1437   1.114   .     S
C898   H1438   1.115   .     S
C898   C899    1.529   .     S
C899   H1440   1.112   .     S
C899   C900    1.526   .     S
C899   H1439   1.111   .     S
C900   H1443   1.111   .     S
C900   H1441   1.111   .     S
C900   H1442   1.111   .     S
C901   O1557   1.416   .     S
C901   C903    1.533   .     S
C901   H1095   1.116   .     S
C901   H1444   1.111   .     S
C902   C1032   1.453   .     S
C902   C924    1.416   .     A
C902   C237    1.412   1_655 S
C903   H1097   1.110   .     S
C903   C904    1.526   .     S
C903   H1096   1.112   .     S
C904   H1099   1.110   .     S
C904   H1098   1.111   .     S
C904   H1100   1.111   .     S
C905   H1101   1.111   .     S
C905   H1102   1.114   .     S
C905   C906    1.531   .     S
C905   O1558   1.418   .     S
C906   H1103   1.111   .     S
C906   C907    1.527   .     S
C906   H1104   1.111   .     S
C907   H1108   1.111   .     S
C907   H1106   1.111   .     S
C907   H1107   1.109   .     S
C908   O1559   1.418   .     S
C908   H1109   1.110   .     S
C908   H1110   1.116   .     S
C908   C909    1.530   .     S
C909   C910    1.525   .     S
C909   H1112   1.111   .     S
C909   H1111   1.111   .     S
C910   H1114   1.109   .     S
C910   H1113   1.110   .     S
C910   H2739   1.110   .     S
C911   H1117   1.117   .     S
C911   H1118   1.114   .     S
C911   O1561   1.414   .     S
C911   C912    1.529   .     S
C912   H1119   1.111   .     S
C912   C914    1.525   .     S
C912   H1120   1.111   .     S
C913   C1060   1.413   .     A
C913   C1029   1.455   .     S
C913   C2640   1.417   1_545 S
C914   H1122   1.110   .     S
C914   H1123   1.111   .     S
C914   H1121   1.110   .     S
C915   O1562   1.417   .     S
C915   H1125   1.114   .     S
C915   H1124   1.111   .     S
C915   C916    1.531   .     S
C916   H1126   1.109   .     S
C916   C917    1.527   .     S
C916   H1128   1.111   .     S
C917   H1130   1.109   .     S
C917   H1129   1.111   .     S
C918   C919    1.527   .     S
C918   H1132   1.116   .     S
C918   O1563   1.415   .     S
C918   H1133   1.113   .     S
C919   C920    1.525   .     S
C919   H322    1.111   1_655 S
C919   H323    1.111   1_655 S
C920   H1136   1.111   .     S
C920   H1139   1.111   .     S
C920   H325    1.111   1_655 S
C921   H1140   1.111   .     S
C921   O1564   1.418   .     S
C921   H1141   1.118   .     S
C921   C922    1.531   .     S
C922   H1142   1.110   .     S
C922   H1143   1.108   .     S
C922   C2547   1.523   1_545 S
C923   H1146   1.106   .     S
C923   H1145   1.109   .     S
C923   C2546   1.523   .     S
C923   H2768   1.109   .     S
C924   S1601   1.795   .     S
C925   C1030   1.454   .     S
C925   C1027   1.415   .     A
C925   C2695   1.414   .     S
C926   C927    1.526   .     S
C926   H1148   1.113   .     S
C926   H1147   1.118   .     S
C926   O1565   1.415   .     S
C927   H1150   1.111   .     S
C927   C928    1.526   .     S
C927   H2775   1.111   .     S
C928   H1152   1.111   .     S
C928   H1154   1.111   .     S
C928   H2777   1.108   .     S
C929   H1156   1.116   .     S
C929   C930    1.531   .     S
C929   O1566   1.422   .     S
C929   H1155   1.111   .     S
C930   H1158   1.111   .     S
C930   H1157   1.109   .     S
C930   C931    1.526   .     S
C931   H1159   1.111   .     S
C931   H1161   1.110   .     S
C931   H350    1.111   1_655 S
C932   H1163   1.111   .     S
C932   O1567   1.421   .     S
C932   H1164   1.117   .     S
C932   C933    1.531   .     S
C933   H1166   1.110   .     S
C933   C934    1.528   .     S
C933   H1165   1.109   .     S
C934   H1168   1.109   .     S
C934   H1169   1.111   .     S
C934   H1167   1.110   .     S
C935   C937    1.532   .     S
C935   O1568   1.421   .     S
C935   H1172   1.116   .     S
C935   H1170   1.110   .     S
C936   C1082   1.416   .     A
C936   C1035   1.452   .     S
C936   C2471   1.412   1_545 S
C937   H1174   1.111   .     S
C937   H1173   1.109   .     S
C937   C938    1.527   .     S
C938   H1175   1.111   .     S
C938   H1176   1.110   .     S
C938   H2801   1.111   1_545 S
C939   O1569   1.421   .     S
C939   H1178   1.111   .     S
C939   C940    1.531   .     S
C939   H1179   1.117   .     S
C940   C941    1.528   .     S
C940   H1181   1.111   .     S
C940   H1180   1.109   .     S
C941   H1183   1.110   .     S
C941   H1185   1.111   .     S
C941   H1184   1.109   .     S
C942   O1570   1.417   .     S
C942   C943    1.529   .     S
C942   H1186   1.111   .     S
C942   H1187   1.119   .     S
C943   H1189   1.110   .     S
C943   H1188   1.111   .     S
C943   C944    1.526   .     S
C944   H1191   1.110   .     S
C944   H1190   1.111   .     S
C945   H1195   1.114   .     S
C945   C946    1.531   .     S
C945   O1572   1.414   .     S
C945   H1194   1.116   .     S
C946   H1196   1.112   .     S
C946   H1197   1.111   .     S
C946   C948    1.525   .     S
C947   C1036   1.455   .     S
C947   C2482   1.413   .     S
C948   H1200   1.110   .     S
C948   H1198   1.111   .     S
C948   H1199   1.110   .     S
C949   H1202   1.111   .     S
C949   H1201   1.118   .     S
C949   O1573   1.414   .     S
C949   C2574   1.526   .     S
C950   H1206   1.110   .     S
C950   C951    1.526   .     S
C950   H1203   1.111   .     S
C950   C2573   1.526   1_545 S
C951   H1209   1.111   .     S
C951   H1208   1.111   .     S
C951   H1207   1.111   .     S
C952   O1574   1.418   .     S
C952   C953    1.529   .     S
C952   H1211   1.118   .     S
C952   H1210   1.111   .     S
C953   H1213   1.111   .     S
C953   C954    1.526   .     S
C953   H2836   1.110   1_545 S
C954   H1214   1.111   .     S
C954   H1217   1.111   .     S
C954   H2839   1.110   1_545 S
C955   C956    1.532   .     S
C955   H1218   1.110   .     S
C955   O1575   1.418   .     S
C955   H1219   1.116   .     S
C956   H1220   1.111   .     S
C956   C957    1.525   .     S
C956   H1221   1.109   .     S
C957   H1222   1.111   .     S
C957   H411    1.111   1_655 S
C957   H412    1.108   1_655 S
C958   C1033   1.457   .     S
C959   O1576   1.415   .     S
C959   H1226   1.113   .     S
C959   C960    1.526   .     S
C959   H1225   1.118   .     S
C960   H1228   1.111   .     S
C960   C961    1.526   .     S
C961   H1232   1.111   .     S
C961   H1230   1.111   .     S
C962   O1577   1.419   .     S
C962   H1234   1.119   .     S
C962   C963    1.532   .     S
C962   H1233   1.110   .     S
C963   C964    1.522   .     S
C963   H1236   1.107   .     S
C963   H1235   1.110   .     S
C964   H1237   1.109   .     S
C964   H1239   1.109   .     S
C964   H1240   1.105   .     S
C965   O1578   1.415   .     S
C965   H1242   1.113   .     S
C965   H1241   1.118   .     S
C965   C966    1.525   .     S
C966   C967    1.526   .     S
C966   H1243   1.111   .     S
C966   H1244   1.110   .     S
C967   H1245   1.111   .     S
C967   H1246   1.107   .     S
C967   H1247   1.111   .     S
C968   C970    1.532   .     S
C968   O1579   1.423   .     S
C968   H1248   1.111   .     S
C968   H1250   1.115   .     S
C969   C1034   1.451   .     S
C969   C24     1.412   1_655 S
C970   H1252   1.111   .     S
C970   C971    1.526   .     S
C970   H1251   1.109   .     S
C971   H1253   1.111   .     S
C971   H1254   1.110   .     S
C971   H1255   1.111   .     S
C972   H1256   1.111   .     S
C972   H1257   1.117   .     S
C972   C973    1.530   .     S
C972   O1580   1.421   .     S
C973   H1258   1.109   .     S
C973   C974    1.528   .     S
C973   H1259   1.110   .     S
C974   H1261   1.110   .     S
C974   H1262   1.109   .     S
C974   H1263   1.111   .     S
C975   O1581   1.419   .     S
C975   H1264   1.110   .     S
C975   C976    1.531   .     S
C975   H1265   1.117   .     S
C976   C977    1.526   .     S
C976   H1267   1.111   .     S
C976   H1266   1.111   .     S
C977   H1270   1.110   .     S
C977   H1268   1.111   .     S
C977   H1269   1.109   .     S
C978   H1272   1.116   .     S
C978   C979    1.531   .     S
C978   H1273   1.113   .     S
C978   O1583   1.414   .     S
C979   H1274   1.111   .     S
C979   C981    1.525   .     S
C979   H1275   1.111   .     S
C980   C1090   1.418   .     A
C980   C1017   1.398   .     A
C980   O1542   1.387   .     S
C981   H1278   1.110   .     S
C981   H1276   1.110   .     S
C981   H1277   1.110   .     S
C982   C983    1.532   .     S
C982   H1279   1.111   .     S
C982   O1584   1.417   .     S
C982   H1280   1.114   .     S
C983   H1281   1.109   .     S
C983   H1283   1.111   .     S
C983   C984    1.527   .     S
C984   H1285   1.109   .     S
C984   H1286   1.111   .     S
C984   H1284   1.110   .     S
C985   O1585   1.418   .     S
C985   H1287   1.111   .     S
C985   C986    1.529   .     S
C985   H1288   1.118   .     S
C986   H1290   1.111   .     S
C986   C987    1.526   .     S
C986   H1289   1.110   .     S
C987   H1291   1.111   .     S
C987   H1294   1.111   .     S
C987   H1292   1.110   .     S
C988   O1586   1.417   .     S
C988   H1295   1.111   .     S
C988   C989    1.532   .     S
C988   H1296   1.115   .     S
C989   H1297   1.109   .     S
C989   C990    1.527   .     S
C989   H1298   1.111   .     S
C990   H1299   1.111   .     S
C990   H1301   1.111   .     S
C990   H1300   1.109   .     S
C991   C1015   1.395   .     A
C991   O1543   1.386   .     S
C991   C279    1.412   1_655 S
C992   O1587   1.418   .     S
C992   H1303   1.118   .     S
C992   H1302   1.111   .     S
C992   C993    1.529   .     S
C993   C994    1.526   .     S
C993   H1306   1.110   .     S
C993   H1305   1.110   .     S
C994   H1308   1.111   .     S
C994   H1307   1.111   .     S
C994   H1309   1.111   .     S
C995   O1588   1.418   .     S
C995   H1310   1.111   .     S
C995   H1311   1.118   .     S
C995   C996    1.531   .     S
C996   H1312   1.110   .     S
C996   H1313   1.107   .     S
C996   C997    1.522   .     S
C997   H1314   1.109   .     S
C997   H1318   1.105   .     S
C997   H1317   1.109   .     S
C998   H1320   1.113   .     S
C998   C999    1.525   .     S
C998   O1589   1.414   .     S
C998   H1319   1.118   .     S
C999   H1322   1.110   .     S
C999   H1321   1.111   .     S
C999   C1000   1.526   .     S
C1000  H1323   1.111   .     S
C1000  H1325   1.111   .     S
C1000  H1324   1.108   .     S
C1001  H1326   1.111   .     S
C1001  O1590   1.423   .     S
C1001  C1003   1.531   .     S
C1001  H1328   1.116   .     S
C1002  C1092   1.417   .     A
C1002  C2643   1.399   1_545 S
C1002  O3168   1.389   1_545 S
C1003  H1330   1.111   .     S
C1003  C1004   1.526   .     S
C1003  H1329   1.109   .     S
C1004  H1333   1.111   .     S
C1004  H1331   1.111   .     S
C1004  H1332   1.110   .     S
C1005  H1335   1.117   .     S
C1005  C1006   1.530   .     S
C1005  H1334   1.111   .     S
C1005  O1591   1.420   .     S
C1006  C1007   1.526   .     S
C1006  H1336   1.107   .     S
C1006  H1337   1.111   .     S
C1007  H1341   1.111   .     S
C1007  H1339   1.109   .     S
C1007  H1340   1.109   .     S
C1008  H1342   1.110   .     S
C1008  O1592   1.418   .     S
C1008  H1343   1.116   .     S
C1008  C1009   1.531   .     S
C1009  H1345   1.111   .     S
C1009  H1344   1.111   .     S
C1009  C1010   1.526   .     S
C1010  H1346   1.111   .     S
C1010  H1348   1.110   .     S
C1010  H1347   1.109   .     S
C1011  H1351   1.113   .     S
C1011  O1447   1.413   .     S
C1011  H1350   1.116   .     S
C1011  C1012   1.531   .     S
C1012  H1352   1.111   .     S
C1012  C1014   1.524   .     S
C1012  H1353   1.111   .     S
C1013  C1018   1.397   .     A
C1013  O1545   1.386   .     S
C1013  C2439   1.416   .     S
C1014  H1355   1.110   .     S
C1014  H1356   1.109   .     S
C1014  H1354   1.110   .     S
C1015  O734    1.382   1_655 S
C1016  S1602   1.797   .     S
C1016  C2537   1.417   .     S
C1017  O1547   1.385   .     S
C1018  O3172   1.383   .     S
C1019  C2626   1.399   .     S
C1019  O3174   1.387   .     S
C1020  O1551   1.388   .     S
C1020  C1025   1.397   1_556 S
C1021  O1552   1.386   .     S
C1021  C1024   1.401   1_554 S
C1022  O1553   1.383   .     S
C1022  C1028   1.398   1_556 S
C1023  O1554   1.382   .     S
C1023  C1026   1.397   1_554 S
C1024  O1555   1.384   .     S
C1024  C1021   1.401   1_556 S
C1025  O1556   1.383   .     S
C1025  C1020   1.397   1_554 S
C1026  O1557   1.385   .     S
C1026  C1023   1.397   1_556 S
C1027  S1603   1.795   .     S
C1028  O1558   1.387   .     S
C1028  C1022   1.398   1_554 S
C1029  O1582   1.278   .     A
C1029  O3162   1.280   1_545 S
C1030  O1446   1.277   .     A
C1030  O3173   1.279   .     S
C1031  O1560   1.277   .     A
C1032  O1571   1.277   .     A
C1032  O656    1.277   1_655 S
C1033  O1502   1.279   .     A
C1033  O1479   1.280   .     A
C1034  O678    1.277   1_655 A
C1034  O691    1.279   1_655 S
C1035  O1504   1.277   .     A
C1035  O1500   1.277   .     A
C1036  O3125   1.277   .     S
C1036  O3130   1.279   .     S
C1037  O1507   1.277   .     A
C1037  O1535   1.283   .     A
C1038  C1090   1.410   .     A
C1038  S1604   1.797   .     S
C1039  O1536   1.273   .     A
C1039  O1508   1.279   .     A
C1040  O1533   1.279   .     A
C1040  O1509   1.278   .     A
C1041  O1510   1.277   .     A
C1041  O1534   1.277   .     A
C1042  O1511   1.286   .     A
C1042  O1540   1.281   .     A
C1043  O1512   1.277   .     A
C1043  O1541   1.281   .     A
C1044  O1513   1.282   .     A
C1044  O1537   1.281   .     A
C1045  O1514   1.281   .     A
C1045  O1539   1.279   .     A
C1046  O1515   1.281   .     A
C1046  O1526   1.279   .     A
C1047  O1517   1.279   .     A
C1047  O1528   1.279   .     A
C1048  O1518   1.278   .     A
C1048  O1524   1.282   .     A
C1049  S1605   1.796   .     S
C1049  C1091   1.409   .     A
C1050  O1519   1.278   .     A
C1050  O1525   1.272   .     A
C1051  O1520   1.279   .     A
C1051  O1531   1.280   .     A
C1052  O1521   1.278   .     A
C1052  O1532   1.278   .     A
C1053  O1529   1.279   .     A
C1053  O1522   1.287   .     A
C1054  O1530   1.281   .     A
C1054  O1523   1.277   .     A
C1055  C1072   1.396   .     A
C1055  O1559   1.386   .     S
C1056  C1070   1.391   .     A
C1056  O1561   1.383   .     S
C1057  O1562   1.387   .     S
C1057  C1069   1.397   .     A
C1058  O1563   1.385   .     S
C1058  C1068   1.397   .     A
C1059  C1067   1.391   .     A
C1059  O1564   1.386   .     S
C1060  S1606   1.793   .     S
C1060  C1092   1.409   .     A
C1061  C1066   1.395   .     A
C1061  O1565   1.383   .     S
C1062  C1065   1.388   .     A
C1062  O1566   1.389   .     S
C1063  C1064   1.387   .     A
C1063  O1567   1.384   .     S
C1064  O1568   1.388   .     S
C1065  O1569   1.383   .     S
C1066  O1570   1.383   .     S
C1067  O1572   1.384   .     S
C1068  O1573   1.384   .     S
C1069  O1574   1.385   .     S
C1070  O1575   1.387   .     S
C1071  S1607   1.797   .     S
C1071  C2549   1.414   1_545 S
C1072  O1576   1.383   .     S
C1073  C1089   1.393   .     A
C1073  O1577   1.386   .     S
C1074  O1578   1.383   .     S
C1074  C1088   1.397   .     A
C1075  C1087   1.389   .     A
C1075  O1579   1.389   .     S
C1076  C1086   1.388   .     A
C1076  O1580   1.383   .     S
C1077  O1581   1.386   .     S
C1077  C1085   1.396   .     A
C1078  O1583   1.385   .     S
C1078  C1084   1.393   .     A
C1079  C1083   1.398   .     A
C1079  O1584   1.387   .     S
C1080  O1585   1.385   .     S
C1080  C1081   1.398   .     A
C1081  O1586   1.387   .     S
C1082  S1608   1.799   .     S
C1083  O1587   1.385   .     S
C1084  O1588   1.386   .     S
C1085  O1589   1.383   .     S
C1086  O1590   1.389   .     S
C1087  O1591   1.382   .     S
C1088  O1592   1.386   .     S
C1089  O1447   1.384   .     S
C1092  C2473   1.411   1_545 S
H1115  C2534   1.110   1_545 S
H1131  C105    1.111   1_655 S
H1144  C2547   1.109   1_545 S
H1151  C2551   1.111   1_545 S
H1153  C2552   1.108   1_545 S
H1177  C2562   1.111   .     S
H1192  C132    1.111   1_655 S
H1212  C2577   1.110   .     S
H1215  C2578   1.110   .     S
H1229  C148    1.110   1_655 S
H1231  C149    1.107   1_655 S
H1357  O1450   0.991   .     S
H1358  O1453   0.991   .     S
H1359  O1456   0.991   .     S
H1361  O1460   0.991   .     S
H1362  O1463   0.990   .     S
H1363  O1466   0.991   .     S
H1364  O1470   0.991   .     S
H1365  O1473   0.991   .     S
H1366  O1476   0.991   .     S
H1367  O1480   0.991   .     S
H1368  O1483   0.991   .     S
H1369  O1486   0.991   .     S
H1370  O1489   0.991   .     S
H1372  O1493   0.991   .     S
H1373  O1496   0.991   .     S
H1374  O1499   0.991   .     S
H1409  C886    1.110   1_556 S
O1445  Zn1609  1.943   .     S
O1445  Zn1612  1.943   .     S
O1445  Zn1620  1.947   .     S
O1445  Zn3240  1.950   1_545 S
O1446  Zn1611  1.943   .     S
O1448  S1593   1.503   .     D
O1449  S1593   1.503   .     D
O1450  S1593   1.680   .     S
O1451  S1601   1.503   .     D
O1452  S1601   1.503   .     D
O1453  S1601   1.681   .     S
O1454  S1602   1.501   .     D
O1455  S1602   1.503   .     D
O1456  S1602   1.681   .     S
O1457  Zn1614  1.940   .     S
O1457  C219    1.278   1_655 S
O1458  S1603   1.502   .     D
O1459  S1603   1.503   .     D
O1460  S1603   1.682   .     S
O1461  S1604   1.501   .     D
O1462  S1604   1.503   .     D
O1463  S1604   1.681   .     S
O1464  S1605   1.502   .     D
O1465  S1605   1.503   .     D
O1466  S1605   1.682   .     S
O1467  S1606   1.502   .     D
O1468  Zn1613  1.940   .     S
O1469  S1606   1.503   .     D
O1470  S1606   1.682   .     S
O1471  S1607   1.502   .     D
O1472  S1607   1.503   .     D
O1473  S1607   1.681   .     S
O1474  S1608   1.502   .     D
O1475  S1608   1.503   .     D
O1476  S1608   1.681   .     S
O1477  S1594   1.502   .     D
O1478  S1594   1.503   .     D
O1479  Zn1623  1.939   .     S
O1480  S1594   1.681   .     S
O1481  S1595   1.502   .     D
O1482  S1595   1.503   .     D
O1483  S1595   1.682   .     S
O1484  S1596   1.502   .     D
O1485  S1596   1.503   .     D
O1486  S1596   1.681   .     S
O1487  S1597   1.502   .     D
O1488  S1597   1.503   .     D
O1489  S1597   1.681   .     S
O1490  Zn1622  1.939   .     S
O1491  S1598   1.502   .     D
O1492  S1598   1.503   .     D
O1493  S1598   1.682   .     S
O1494  S1599   1.502   .     D
O1495  S1599   1.503   .     D
O1496  S1599   1.682   .     S
O1497  S1600   1.502   .     D
O1498  S1600   1.503   .     D
O1499  S1600   1.681   .     S
O1500  Zn1617  1.942   .     S
O1501  Zn1609  1.942   .     S
O1501  C2660   1.277   1_545 S
O1502  Zn1619  1.943   .     S
O1503  Zn1618  1.943   .     S
O1504  Zn1621  1.940   .     S
O1505  Zn1615  1.950   .     S
O1505  Zn1621  1.947   .     S
O1505  Zn1617  1.943   .     S
O1505  Zn3235  1.943   1_545 S
O1506  Zn1620  1.940   .     S
O1506  C2660   1.279   1_545 S
O1507  Zn1612  1.933   .     S
O1508  Zn1611  1.933   .     S
O1509  Zn1614  1.940   .     S
O1510  Zn1613  1.940   .     S
O1511  Zn1616  1.933   .     S
O1512  Zn1615  1.933   .     S
O1513  Zn1610  1.942   .     S
O1514  Zn1624  1.942   .     S
O1515  Zn1611  1.942   .     S
O1516  Zn1622  1.950   .     S
O1516  Zn1610  1.943   .     S
O1516  Zn1618  1.943   .     S
O1517  Zn1612  1.942   .     S
O1518  Zn1624  1.933   .     S
O1519  Zn1610  1.933   .     S
O1520  Zn1615  1.939   .     S
O1521  Zn1616  1.939   .     S
O1522  Zn1613  1.935   .     S
O1523  Zn1614  1.935   .     S
O1524  Zn807   1.933   1_655 S
O1525  Zn1618  1.933   .     S
O1526  Zn3245  1.940   .     S
O1527  Zn1613  1.947   .     S
O1527  Zn1619  1.943   .     S
O1527  Zn1623  1.950   .     S
O1528  Zn1620  1.940   .     S
O1529  Zn1623  1.933   .     S
O1530  Zn810   1.933   1_655 S
O1531  Zn1617  1.942   .     S
O1532  Zn3233  1.942   .     S
O1533  Zn806   1.942   1_655 S
O1534  Zn1619  1.942   .     S
O1535  Zn1609  1.933   .     S
O1536  Zn3241  1.933   .     S
O1537  Zn1622  1.939   .     S
O1538  Zn1616  1.939   .     S
O1538  C2653   1.280   .     S
O1539  Zn811   1.939   1_655 S
O1540  Zn3244  1.935   .     S
O1541  Zn1621  1.935   .     S
O1544  C2626   1.389   .     S
O1548  C2642   1.383   1_545 S
O1549  Zn1615  1.939   .     S
O1549  C2654   1.279   1_545 S
O1550  C2643   1.387   1_545 S
O1560  Zn1610  1.942   .     S
O1571  Zn1624  1.942   .     S
O1582  Zn1612  1.943   .     S
Zn1609 O3156   1.942   1_545 S
Zn1611 O3129   1.943   .     S
Zn1614 O704    1.947   1_655 S
Zn1616 O3069   1.950   .     S
Zn1617 O3160   1.933   1_545 S
Zn1620 O3164   1.935   1_545 S
Zn1621 O3150   1.940   1_545 S
Zn1624 O715    1.943   1_655 S
C1625  S2405   1.800   .     S
C1625  C1628   1.413   .     A
C1625  C2515   1.418   .     S
C1626  S2406   1.798   .     S
C1626  C1638   1.414   .     A
C1626  C1759   1.418   .     A
C1627  C1883   1.411   .     A
C1628  C1827   1.416   .     A
C1628  C1658   1.416   .     A
C1629  C1660   1.413   .     A
C1629  C1736   1.413   .     A
C1629  C2641   1.416   .     S
C1630  C1828   1.414   .     A
C1630  C1830   1.415   .     A
C1630  C1661   1.414   .     A
C1631  C1831   1.421   .     A
C1631  C1839   1.413   .     A
C1631  C1662   1.415   .     A
C1632  C1659   1.409   .     A
C1632  C1832   1.416   .     A
C1632  C39     1.412   1_565 S
C1633  C1670   1.408   .     A
C1633  C1833   1.413   .     A
C1634  C1665   1.414   .     A
C1634  C1834   1.416   .     A
C1634  C1681   1.414   .     A
C1635  C1692   1.413   .     A
C1635  C1666   1.416   .     A
C1635  C1835   1.416   .     A
C1636  C1836   1.413   .     A
C1636  C1663   1.416   .     A
C1636  C1894   1.413   .     A
C1637  S2407   1.794   .     S
C1637  C1639   1.408   .     A
C1637  C2582   1.414   .     S
C1638  C1837   1.417   .     A
C1638  C1664   1.415   .     A
C1639  C1838   1.413   .     A
C1639  C2477   1.410   .     S
C1640  C1840   1.417   .     A
C1640  C1648   1.410   .     A
C1640  C2478   1.412   1_455 S
C1641  C1884   1.411   .     A
C1641  C1886   1.410   .     A
C1641  C1856   1.465   .     S
C1642  C1885   1.413   .     A
C1642  C1882   1.413   .     A
C1642  C1857   1.460   .     S
C1643  C1881   1.411   .     A
C1643  C1888   1.415   .     A
C1643  C1849   1.461   .     S
C1644  C1851   1.447   .     S
C1644  C1880   1.404   .     A
C1644  C1887   1.405   .     A
C1645  C1890   1.410   .     A
C1645  C1852   1.457   .     S
C1645  C1879   1.409   .     A
C1646  C1889   1.407   .     A
C1646  C1853   1.454   .     S
C1646  C1878   1.406   .     A
C1647  C1877   1.415   .     A
C1647  C1892   1.411   .     A
C1647  C1854   1.462   .     S
C1648  S2408   1.795   .     S
C1648  C2593   1.412   1_455 S
C1649  C1891   1.410   .     A
C1649  C1855   1.448   .     S
C1649  C1876   1.406   .     A
C1650  C1865   1.462   .     S
C1650  C1875   1.416   .     A
C1650  C1895   1.410   .     A
C1651  C1866   1.448   .     S
C1651  C1893   1.409   .     A
C1651  C1874   1.406   .     A
C1652  C1897   1.410   .     A
C1652  C1873   1.410   .     A
C1652  C1858   1.464   .     S
C1653  C1859   1.460   .     S
C1653  C1871   1.412   .     A
C1653  C1896   1.412   .     A
C1654  C1899   1.416   .     A
C1654  C1870   1.411   .     A
C1654  C1860   1.460   .     S
C1655  C1862   1.447   .     S
C1655  C1898   1.406   .     A
C1655  C1869   1.410   .     A
C1656  C1901   1.409   .     A
C1656  C1868   1.409   .     A
C1656  C1863   1.458   .     S
C1657  C1900   1.407   .     A
C1657  C1867   1.407   .     A
C1657  C1864   1.454   .     S
C1658  C1660   1.405   .     A
C1658  C2714   1.413   .     S
C1659  S2409   1.795   .     S
C1659  C124    1.412   1_565 S
C1660  C2715   1.412   .     S
C1661  C1662   1.404   .     A
C1661  C280    1.411   1_565 S
C1662  C3      1.413   1_565 S
C1663  C40     1.405   1_556 S
C1664  C9      1.411   1_565 S
C1664  C39     1.405   1_564 S
C1665  C2451   1.410   1_455 S
C1665  C2478   1.404   1_456 S
C1666  C2452   1.412   .     S
C1666  C2477   1.404   1_554 S
C1667  C1668   1.531   .     S
C1667  H1905   1.111   .     S
C1667  H2016   1.112   .     S
C1667  O3166   1.416   .     S
C1668  C1669   1.527   .     S
C1668  H2127   1.112   .     S
C1668  H2191   1.111   .     S
C1669  H2224   1.111   .     S
C1669  H2213   1.108   .     S
C1669  H2202   1.109   .     S
C1670  S2410   1.794   .     S
C1671  O2355   1.417   .     S
C1671  H2246   1.118   .     S
C1671  H2235   1.111   .     S
C1671  C1672   1.528   .     S
C1672  C1673   1.525   .     S
C1672  H1917   1.110   .     S
C1672  H1906   1.112   .     S
C1673  H1939   1.106   .     S
C1673  H1928   1.110   .     S
C1673  H1950   1.111   .     S
C1674  H1972   1.112   .     S
C1674  H1961   1.111   .     S
C1674  C1675   1.530   .     S
C1674  O2356   1.418   .     S
C1675  C1676   1.527   .     S
C1675  H1994   1.111   .     S
C1675  H1983   1.112   .     S
C1676  H2017   1.109   .     S
C1676  H2005   1.111   .     S
C1676  H2028   1.111   .     S
C1677  C1678   1.532   .     S
C1677  O2357   1.417   .     S
C1677  H2050   1.116   .     S
C1677  H2039   1.111   .     S
C1678  H2061   1.112   .     S
C1678  C1679   1.526   .     S
C1678  H2072   1.110   .     S
C1679  H2105   1.111   .     S
C1679  H2094   1.110   .     S
C1679  H2083   1.111   .     S
C1680  H2116   1.114   .     S
C1680  C1682   1.527   .     S
C1680  H2128   1.116   .     S
C1680  O2358   1.411   .     S
C1681  S2411   1.797   .     S
C1681  C1770   1.418   .     A
C1682  H2150   1.112   .     S
C1682  H2139   1.111   .     S
C1682  C1683   1.524   .     S
C1683  H2183   1.111   .     S
C1683  H2161   1.110   .     S
C1683  H2172   1.109   .     S
C1684  H2187   1.111   .     S
C1684  O2359   1.417   .     S
C1684  C1685   1.533   .     S
C1684  H2188   1.116   .     S
C1685  H2189   1.112   .     S
C1685  C1686   1.525   .     S
C1685  H2190   1.110   .     S
C1686  H2193   1.110   .     S
C1686  H2194   1.110   .     S
C1686  H2192   1.111   .     S
C1687  O2360   1.412   .     S
C1687  H2196   1.115   .     S
C1687  H2195   1.114   .     S
C1687  C1688   1.528   .     S
C1688  H2197   1.111   .     S
C1688  H2198   1.112   .     S
C1688  C1689   1.526   .     S
C1689  H2199   1.111   .     S
C1689  H2201   1.111   .     S
C1689  H2200   1.111   .     S
C1690  H2204   1.112   .     S
C1690  H2203   1.111   .     S
C1690  C1691   1.531   .     S
C1690  O2362   1.416   .     S
C1691  H2205   1.112   .     S
C1691  H2206   1.111   .     S
C1691  C1693   1.527   .     S
C1692  C1781   1.416   .     A
C1692  S2412   1.798   .     S
C1693  H2207   1.109   .     S
C1693  H2208   1.109   .     S
C1693  H2209   1.111   .     S
C1694  H2211   1.114   .     S
C1694  O2363   1.418   .     S
C1694  C1695   1.531   .     S
C1694  H2210   1.111   .     S
C1695  H2212   1.111   .     S
C1695  C1696   1.527   .     S
C1695  H2214   1.111   .     S
C1696  H2215   1.111   .     S
C1696  H2217   1.111   .     S
C1696  H2216   1.109   .     S
C1697  C1698   1.533   .     S
C1697  H2218   1.111   .     S
C1697  O2364   1.416   .     S
C1697  H2219   1.116   .     S
C1698  H2220   1.112   .     S
C1698  C1699   1.526   .     S
C1698  H2221   1.110   1_554 S
C1699  H2223   1.110   .     S
C1699  H2225   1.111   .     S
C1699  H2222   1.111   .     S
C1700  C1701   1.529   .     S
C1700  H2227   1.115   .     S
C1700  O2365   1.413   .     S
C1700  H2226   1.114   .     S
C1701  H2228   1.111   .     S
C1701  C1702   1.526   .     S
C1701  H2229   1.112   .     S
C1702  H2232   1.111   .     S
C1702  H2230   1.111   .     S
C1702  H2231   1.111   .     S
C1703  C1843   1.453   .     S
C1703  C1850   1.415   .     A
C1703  C2437   1.418   1_455 S
C1704  H2233   1.112   .     S
C1704  H2234   1.115   .     S
C1704  O2366   1.410   .     S
C1704  C1705   1.527   .     S
C1705  H2237   1.112   .     S
C1705  C1706   1.524   .     S
C1705  H2236   1.111   .     S
C1706  H2238   1.111   .     S
C1706  H2239   1.110   .     S
C1706  H2240   1.111   .     S
C1707  O2367   1.413   .     S
C1707  H2241   1.115   .     S
C1707  C1708   1.528   .     S
C1707  H2242   1.112   .     S
C1708  H2243   1.112   .     S
C1708  H2244   1.112   .     S
C1708  C1709   1.525   .     S
C1709  H2248   1.111   .     S
C1709  H2245   1.111   .     S
C1709  H2247   1.110   .     S
C1710  O2368   1.412   .     S
C1710  H2249   1.114   .     S
C1710  H2250   1.115   .     S
C1710  C1711   1.529   .     S
C1711  H2252   1.112   .     S
C1711  C1712   1.526   .     S
C1711  H2251   1.111   .     S
C1712  H2255   1.111   .     S
C1712  H2253   1.111   .     S
C1712  H2254   1.111   .     S
C1713  O2369   1.416   .     S
C1713  C1715   1.533   .     S
C1713  H1907   1.116   .     S
C1713  H2256   1.111   .     S
C1714  C1844   1.453   .     S
C1714  C1736   1.416   .     A
C1714  C2673   1.412   .     S
C1715  H1909   1.110   .     S
C1715  C1716   1.526   .     S
C1715  H1908   1.112   .     S
C1716  H1911   1.110   .     S
C1716  H1910   1.111   .     S
C1716  H1912   1.111   .     S
C1717  H1913   1.111   .     S
C1717  H1914   1.114   .     S
C1717  C1718   1.531   .     S
C1717  O2370   1.418   .     S
C1718  H1915   1.111   .     S
C1718  C1719   1.527   .     S
C1718  H1916   1.111   .     S
C1719  H1920   1.111   .     S
C1719  H1918   1.111   .     S
C1719  H1919   1.109   .     S
C1720  O2371   1.418   .     S
C1720  H1921   1.110   .     S
C1720  H1922   1.116   .     S
C1720  C1721   1.530   .     S
C1721  C1722   1.525   .     S
C1721  H1924   1.111   .     S
C1721  H1923   1.111   .     S
C1722  H1926   1.109   .     S
C1722  H1925   1.110   .     S
C1722  H303    1.110   1_565 S
C1723  H1929   1.117   .     S
C1723  H1930   1.114   .     S
C1723  O2373   1.414   .     S
C1723  C1724   1.529   .     S
C1724  H1931   1.111   .     S
C1724  C1726   1.525   .     S
C1724  H1932   1.111   .     S
C1725  C1872   1.413   .     A
C1725  C1841   1.455   .     S
C1726  H1934   1.110   .     S
C1726  H1935   1.111   .     S
C1726  H1933   1.110   .     S
C1727  O2374   1.417   .     S
C1727  H1937   1.114   .     S
C1727  H1936   1.111   .     S
C1727  C1728   1.531   .     S
C1728  H1938   1.109   .     S
C1728  C1729   1.527   .     S
C1728  H1940   1.111   .     S
C1729  H1942   1.109   .     S
C1729  H1941   1.111   .     S
C1729  H2755   1.111   1_455 S
C1730  C1731   1.527   .     S
C1730  H1944   1.116   .     S
C1730  O2375   1.415   .     S
C1730  H1945   1.113   .     S
C1731  C1732   1.525   .     S
C1731  H2758   1.111   .     S
C1731  H2759   1.111   .     S
C1732  H1948   1.111   .     S
C1732  H1951   1.111   .     S
C1732  H2761   1.111   .     S
C1733  H1952   1.111   .     S
C1733  O2376   1.418   .     S
C1733  H1953   1.118   .     S
C1733  C1734   1.531   .     S
C1734  H1954   1.110   .     S
C1734  H1955   1.108   .     S
C1735  H1958   1.106   .     S
C1735  H1957   1.109   .     S
C1735  C110    1.523   1_565 S
C1735  H332    1.109   1_565 S
C1736  S2413   1.795   .     S
C1737  C1842   1.454   .     S
C1737  C1839   1.415   .     A
C1737  C259    1.414   1_565 S
C1738  C1739   1.526   .     S
C1738  H1960   1.113   .     S
C1738  H1959   1.118   .     S
C1738  O2377   1.415   .     S
C1739  H1962   1.111   .     S
C1739  C1740   1.526   .     S
C1739  H339    1.111   1_565 S
C1740  H1964   1.111   .     S
C1740  H1966   1.111   .     S
C1740  H341    1.108   1_565 S
C1741  H1968   1.116   .     S
C1741  C1742   1.531   .     S
C1741  O2378   1.422   .     S
C1741  H1967   1.111   .     S
C1742  H1970   1.111   .     S
C1742  H1969   1.109   .     S
C1742  C1743   1.526   .     S
C1743  H1971   1.111   .     S
C1743  H1973   1.110   .     S
C1743  H2786   1.111   .     S
C1744  H1975   1.111   .     S
C1744  O2379   1.421   .     S
C1744  H1976   1.117   .     S
C1744  C1745   1.531   .     S
C1745  H1978   1.110   .     S
C1745  C1746   1.528   .     S
C1745  H1977   1.109   .     S
C1746  H1980   1.109   .     S
C1746  H1981   1.111   .     S
C1746  H1979   1.110   .     S
C1747  C1749   1.532   .     S
C1747  O2380   1.421   .     S
C1747  H1984   1.116   .     S
C1747  H1982   1.110   .     S
C1748  C1894   1.416   .     A
C1748  C1847   1.452   .     S
C1749  H1986   1.111   .     S
C1749  H1985   1.109   .     S
C1749  C1750   1.527   .     S
C1750  H1987   1.111   .     S
C1750  H1988   1.110   .     S
C1751  O2381   1.421   .     S
C1751  H1990   1.111   .     S
C1751  C1752   1.531   .     S
C1751  H1991   1.117   .     S
C1752  C1753   1.528   .     S
C1752  H1993   1.111   .     S
C1752  H1992   1.109   .     S
C1753  H1995   1.110   .     S
C1753  H1997   1.111   .     S
C1753  H1996   1.109   .     S
C1754  O2382   1.417   .     S
C1754  C1755   1.529   .     S
C1754  H1998   1.111   .     S
C1754  H1999   1.119   .     S
C1755  H2001   1.110   .     S
C1755  H2000   1.111   .     S
C1755  C1756   1.526   .     S
C1756  H2003   1.110   .     S
C1756  H2002   1.111   .     S
C1756  H2816   1.111   1_455 S
C1757  H2007   1.114   .     S
C1757  C1758   1.531   .     S
C1757  O2384   1.414   .     S
C1757  H2006   1.116   .     S
C1758  H2008   1.112   .     S
C1758  H2009   1.111   .     S
C1758  C1760   1.525   .     S
C1759  C1848   1.455   .     S
C1759  C46     1.413   1_565 S
C1760  H2012   1.110   .     S
C1760  H2010   1.111   .     S
C1760  H2011   1.110   .     S
C1761  H2014   1.111   .     S
C1761  H2013   1.118   .     S
C1761  O2385   1.414   .     S
C1761  C138    1.526   1_565 S
C1762  H2018   1.110   .     S
C1762  C1763   1.526   .     S
C1762  H2015   1.111   .     S
C1763  H2021   1.111   .     S
C1763  H2020   1.111   .     S
C1763  H2019   1.111   .     S
C1764  O2386   1.418   .     S
C1764  C1765   1.529   .     S
C1764  H2023   1.118   .     S
C1764  H2022   1.111   .     S
C1765  H2025   1.111   .     S
C1765  C1766   1.526   .     S
C1766  H2026   1.111   .     S
C1766  H2029   1.111   .     S
C1767  C1768   1.532   .     S
C1767  H2030   1.110   .     S
C1767  O2387   1.418   .     S
C1767  H2031   1.116   .     S
C1768  H2032   1.111   .     S
C1768  C1769   1.525   .     S
C1768  H2033   1.109   .     S
C1769  H2034   1.111   .     S
C1769  H2847   1.111   .     S
C1769  H2848   1.108   .     S
C1770  C1845   1.457   .     S
C1770  C2449   1.414   1_455 S
C1771  O2388   1.415   .     S
C1771  H2038   1.113   .     S
C1771  C1772   1.526   .     S
C1771  H2037   1.118   .     S
C1772  H2040   1.111   .     S
C1772  C1773   1.526   .     S
C1772  H2853   1.110   1_455 S
C1773  H2044   1.111   .     S
C1773  H2042   1.111   .     S
C1773  H2855   1.107   1_455 S
C1774  O2389   1.419   .     S
C1774  H2046   1.119   .     S
C1774  C1775   1.532   .     S
C1774  H2045   1.110   .     S
C1775  C1776   1.522   .     S
C1775  H2048   1.107   .     S
C1775  H2047   1.110   .     S
C1776  H2049   1.109   .     S
C1776  H2051   1.109   .     S
C1776  H2052   1.105   .     S
C1777  O2390   1.415   .     S
C1777  H2054   1.113   .     S
C1777  H2053   1.118   .     S
C1777  C1778   1.525   .     S
C1778  C1779   1.526   .     S
C1778  H2055   1.111   .     S
C1778  H2056   1.110   .     S
C1779  H2057   1.111   .     S
C1779  H2058   1.107   .     S
C1779  H2059   1.111   .     S
C1780  C1782   1.532   .     S
C1780  O2391   1.423   .     S
C1780  H2060   1.111   .     S
C1780  H2062   1.115   .     S
C1781  C1846   1.451   .     S
C1781  C2460   1.412   .     S
C1782  H2064   1.111   .     S
C1782  C1783   1.526   .     S
C1782  H2063   1.109   .     S
C1783  H2065   1.111   .     S
C1783  H2066   1.110   .     S
C1783  H2067   1.111   .     S
C1784  H2068   1.111   .     S
C1784  H2069   1.117   .     S
C1784  C1785   1.530   .     S
C1784  O2392   1.421   .     S
C1785  H2070   1.109   .     S
C1785  C1786   1.528   .     S
C1785  H2071   1.110   .     S
C1786  H2073   1.110   .     S
C1786  H2074   1.109   .     S
C1786  H2075   1.111   .     S
C1787  O2393   1.419   .     S
C1787  H2076   1.110   .     S
C1787  C1788   1.531   .     S
C1787  H2077   1.117   .     S
C1788  C1789   1.526   .     S
C1788  H2079   1.111   .     S
C1788  H2078   1.111   .     S
C1789  H2082   1.110   .     S
C1789  H2080   1.111   .     S
C1789  H2081   1.109   .     S
C1790  H2084   1.116   .     S
C1790  C1791   1.531   .     S
C1790  H2085   1.113   .     S
C1790  O2395   1.414   .     S
C1791  H2086   1.111   .     S
C1791  C1793   1.525   .     S
C1791  H2087   1.111   .     S
C1792  C1902   1.418   .     A
C1792  C1829   1.398   .     A
C1792  O2354   1.387   .     S
C1793  H2090   1.110   .     S
C1793  H2088   1.110   .     S
C1793  H2089   1.110   .     S
C1794  C1795   1.532   .     S
C1794  H2091   1.111   .     S
C1794  O2396   1.417   .     S
C1794  H2092   1.114   .     S
C1795  H2093   1.109   .     S
C1795  H2095   1.111   .     S
C1795  C1796   1.527   .     S
C1796  H2097   1.109   .     S
C1796  H2098   1.111   .     S
C1796  H2096   1.110   .     S
C1797  O2397   1.418   .     S
C1797  H2099   1.111   .     S
C1797  C1798   1.529   .     S
C1797  H2100   1.118   .     S
C1798  H2102   1.111   .     S
C1798  C1799   1.526   .     S
C1798  H2101   1.110   .     S
C1799  H2103   1.111   .     S
C1799  H2106   1.111   .     S
C1799  H2104   1.110   .     S
C1800  O2398   1.417   .     S
C1800  H2107   1.111   .     S
C1800  C1801   1.532   .     S
C1800  H2108   1.115   .     S
C1801  H2109   1.109   .     S
C1801  C1802   1.527   .     S
C1801  H2110   1.111   .     S
C1802  H2111   1.111   .     S
C1802  H2113   1.111   .     S
C1802  H2112   1.109   .     S
C1803  C1827   1.395   .     A
C1803  O2355   1.386   .     S
C1803  C2715   1.412   .     S
C1804  O2399   1.418   .     S
C1804  H2115   1.118   .     S
C1804  H2114   1.111   .     S
C1804  C1805   1.529   .     S
C1805  C1806   1.526   .     S
C1805  H2118   1.110   .     S
C1805  H2117   1.110   .     S
C1806  H2120   1.111   .     S
C1806  H2119   1.111   .     S
C1806  H2121   1.111   .     S
C1807  O2400   1.418   .     S
C1807  H2122   1.111   .     S
C1807  H2123   1.118   .     S
C1807  C1808   1.531   .     S
C1808  H2124   1.110   .     S
C1808  H2125   1.107   .     S
C1808  C1809   1.522   .     S
C1809  H2126   1.109   .     S
C1809  H2130   1.105   .     S
C1809  H2129   1.109   .     S
C1810  H2132   1.113   .     S
C1810  C1811   1.525   .     S
C1810  O2401   1.414   .     S
C1810  H2131   1.118   .     S
C1811  H2134   1.110   .     S
C1811  H2133   1.111   .     S
C1811  C1812   1.526   .     S
C1812  H2135   1.111   .     S
C1812  H2137   1.111   .     S
C1812  H2136   1.108   .     S
C1813  H2138   1.111   .     S
C1813  O2402   1.423   .     S
C1813  C1815   1.531   .     S
C1813  H2140   1.116   .     S
C1814  C1904   1.417   .     A
C1815  H2142   1.111   .     S
C1815  C1816   1.526   .     S
C1815  H2141   1.109   .     S
C1816  H2145   1.111   .     S
C1816  H2143   1.111   .     S
C1816  H2144   1.110   .     S
C1817  H2147   1.117   .     S
C1817  C1818   1.530   .     S
C1817  H2146   1.111   .     S
C1817  O2403   1.420   .     S
C1818  C1819   1.526   .     S
C1818  H2148   1.107   .     S
C1818  H2149   1.111   .     S
C1819  H2153   1.111   .     S
C1819  H2151   1.109   .     S
C1819  H2152   1.109   .     S
C1820  H2154   1.110   .     S
C1820  O2404   1.418   .     S
C1820  H2155   1.116   .     S
C1820  C1821   1.531   .     S
C1821  H2157   1.111   .     S
C1821  H2156   1.111   .     S
C1821  C1822   1.526   .     S
C1822  H2158   1.111   .     S
C1822  H2160   1.110   .     S
C1822  H2159   1.109   .     S
C1823  H2163   1.113   .     S
C1823  O2259   1.413   .     S
C1823  H2162   1.116   .     S
C1823  C1824   1.531   .     S
C1824  H2164   1.111   .     S
C1824  C1826   1.524   .     S
C1824  H2165   1.111   .     S
C1825  C1830   1.397   .     A
C1825  O2357   1.386   .     S
C1825  C3      1.416   1_565 S
C1826  H2167   1.110   .     S
C1826  H2168   1.109   .     S
C1826  H2166   1.110   .     S
C1827  O3170   1.382   .     S
C1828  S2414   1.797   .     S
C1828  C101    1.417   1_565 S
C1829  O2359   1.385   .     S
C1829  C2441   1.416   1_455 S
C1830  O736    1.383   1_565 S
C1831  C190    1.399   1_565 S
C1831  O738    1.387   1_565 S
C1832  O2363   1.388   .     S
C1832  C1837   1.397   1_556 S
C1833  O2364   1.386   .     S
C1833  C1836   1.401   1_554 S
C1834  O2365   1.383   .     S
C1834  C1840   1.398   1_556 S
C1835  O2366   1.382   .     S
C1835  C1838   1.397   1_554 S
C1836  O2367   1.384   .     S
C1836  C1833   1.401   1_556 S
C1837  O2368   1.383   .     S
C1837  C1832   1.397   1_554 S
C1838  O2369   1.385   .     S
C1838  C1835   1.397   1_556 S
C1839  S2415   1.795   .     S
C1840  O2370   1.387   .     S
C1840  C1834   1.398   1_554 S
C1841  O2394   1.278   .     A
C1842  O2258   1.277   .     A
C1842  O737    1.279   1_565 S
C1843  O2372   1.277   .     A
C1843  O3081   1.278   1_455 S
C1844  O2383   1.277   .     A
C1844  O3092   1.277   .     S
C1845  O2314   1.279   .     A
C1845  O2291   1.280   .     A
C1846  O3114   1.277   .     A
C1846  O3127   1.279   .     S
C1847  O2316   1.277   .     A
C1847  O2312   1.277   .     A
C1848  O689    1.277   1_565 S
C1848  O694    1.279   1_565 S
C1849  O2319   1.277   .     A
C1849  O2347   1.283   .     A
C1850  C1902   1.410   .     A
C1850  S2416   1.797   .     S
C1851  O2348   1.273   .     A
C1851  O2320   1.279   .     A
C1852  O2345   1.279   .     A
C1852  O2321   1.278   .     A
C1853  O2322   1.277   .     A
C1853  O2346   1.277   .     A
C1854  O2323   1.286   .     A
C1854  O2352   1.281   .     A
C1855  O2324   1.277   .     A
C1855  O2353   1.281   .     A
C1856  O2325   1.282   .     A
C1856  O2349   1.281   .     A
C1857  O2326   1.281   .     A
C1857  O2351   1.279   .     A
C1858  O2327   1.281   .     A
C1858  O2338   1.279   .     A
C1859  O2329   1.279   .     A
C1859  O2340   1.279   .     A
C1860  O2330   1.278   .     A
C1860  O2336   1.282   .     A
C1861  S2417   1.796   .     S
C1861  C1903   1.409   .     A
C1861  C2526   1.412   1_455 S
C1862  O2331   1.278   .     A
C1862  O2337   1.272   .     A
C1863  O2332   1.279   .     A
C1863  O2343   1.280   .     A
C1864  O2333   1.278   .     A
C1864  O2344   1.278   .     A
C1865  O2341   1.279   .     A
C1865  O2334   1.287   .     A
C1866  O2342   1.281   .     A
C1866  O2335   1.277   .     A
C1867  C1884   1.396   .     A
C1867  O2371   1.386   .     S
C1868  C1882   1.391   .     A
C1868  O2373   1.383   .     S
C1869  O2374   1.387   .     S
C1869  C1881   1.397   .     A
C1870  O2375   1.385   .     S
C1870  C1880   1.397   .     A
C1871  C1879   1.391   .     A
C1871  O2376   1.386   .     S
C1872  S2418   1.793   .     S
C1872  C1904   1.409   .     A
C1873  C1878   1.395   .     A
C1873  O2377   1.383   .     S
C1874  C1877   1.388   .     A
C1874  O2378   1.389   .     S
C1875  C1876   1.387   .     A
C1875  O2379   1.384   .     S
C1876  O2380   1.388   .     S
C1877  O2381   1.383   .     S
C1878  O2382   1.383   .     S
C1879  O2384   1.384   .     S
C1880  O2385   1.384   .     S
C1881  O2386   1.385   .     S
C1882  O2387   1.387   .     S
C1883  S2419   1.797   .     S
C1884  O2388   1.383   .     S
C1885  C1901   1.393   .     A
C1885  O2389   1.386   .     S
C1886  O2390   1.383   .     S
C1886  C1900   1.397   .     A
C1887  C1899   1.389   .     A
C1887  O2391   1.389   .     S
C1888  C1898   1.388   .     A
C1888  O2392   1.383   .     S
C1889  O2393   1.386   .     S
C1889  C1897   1.396   .     A
C1890  O2395   1.385   .     S
C1890  C1896   1.393   .     A
C1891  C1895   1.398   .     A
C1891  O2396   1.387   .     S
C1892  O2397   1.385   .     S
C1892  C1893   1.398   .     A
C1893  O2398   1.387   .     S
C1894  S2420   1.799   .     S
C1895  O2399   1.385   .     S
C1896  O2400   1.386   .     S
C1897  O2401   1.383   .     S
C1898  O2402   1.389   .     S
C1899  O2403   1.382   .     S
C1900  O2404   1.386   .     S
C1901  O2259   1.384   .     S
C1902  C2470   1.413   1_455 S
C1903  C2472   1.412   1_455 S
C1903  C2615   1.412   1_455 S
H1943  C2541   1.111   .     S
H1946  C2543   1.111   1_455 S
H1947  C2543   1.111   1_455 S
H1949  C2544   1.111   1_455 S
H1974  C2555   1.111   1_455 S
H1989  C126    1.111   1_565 S
H2004  C2568   1.111   .     S
H2024  C141    1.110   1_565 S
H2027  C142    1.110   1_565 S
H2035  C2581   1.111   1_455 S
H2036  C2581   1.108   1_455 S
H2041  C2584   1.110   .     S
H2043  C2585   1.107   .     S
H2169  O2262   0.991   .     S
H2170  O2265   0.991   .     S
H2171  O2268   0.991   .     S
H2173  O2272   0.991   .     S
H2174  O2275   0.990   .     S
H2175  O2278   0.991   .     S
H2176  O2282   0.991   .     S
H2177  O2285   0.991   .     S
H2178  O2288   0.991   .     S
H2179  O2292   0.991   .     S
H2180  O2295   0.991   .     S
H2181  O2298   0.991   .     S
H2182  O2301   0.991   .     S
H2184  O2305   0.991   .     S
H2185  O2308   0.991   .     S
H2186  O2311   0.991   .     S
H2221  C1698   1.110   1_556 S
O2257  Zn2421  1.943   .     S
O2257  Zn2424  1.943   .     S
O2257  Zn2432  1.947   .     S
O2258  Zn2423  1.943   .     S
O2260  S2405   1.503   .     D
O2261  S2405   1.503   .     D
O2262  S2405   1.680   .     S
O2263  S2413   1.503   .     D
O2264  S2413   1.503   .     D
O2265  S2413   1.681   .     S
O2266  S2414   1.501   .     D
O2267  S2414   1.503   .     D
O2268  S2414   1.681   .     S
O2269  Zn2426  1.940   .     S
O2269  C2655   1.278   .     S
O2270  S2415   1.502   .     D
O2271  S2415   1.503   .     D
O2272  S2415   1.682   .     S
O2273  S2416   1.501   .     D
O2274  S2416   1.503   .     D
O2275  S2416   1.681   .     S
O2276  S2417   1.502   .     D
O2277  S2417   1.503   .     D
O2278  S2417   1.682   .     S
O2279  S2418   1.502   .     D
O2280  Zn2425  1.940   .     S
O2280  C2656   1.277   1_455 S
O2281  S2418   1.503   .     D
O2282  S2418   1.682   .     S
O2283  S2419   1.502   .     D
O2284  S2419   1.503   .     D
O2285  S2419   1.681   .     S
O2286  S2420   1.502   .     D
O2287  S2420   1.503   .     D
O2288  S2420   1.681   .     S
O2289  S2406   1.502   .     D
O2290  S2406   1.503   .     D
O2291  Zn2435  1.939   .     S
O2292  S2406   1.681   .     S
O2293  S2407   1.502   .     D
O2294  S2407   1.503   .     D
O2295  S2407   1.682   .     S
O2296  S2408   1.502   .     D
O2297  S2408   1.503   .     D
O2298  S2408   1.681   .     S
O2299  S2409   1.502   .     D
O2300  S2409   1.503   .     D
O2301  S2409   1.681   .     S
O2302  C2658   1.277   1_455 A
O2302  Zn2434  1.939   .     S
O2303  S2410   1.502   .     D
O2304  S2410   1.503   .     D
O2305  S2410   1.682   .     S
O2306  S2411   1.502   .     D
O2307  S2411   1.503   .     D
O2308  S2411   1.682   .     S
O2309  S2412   1.502   .     D
O2310  S2412   1.503   .     D
O2311  S2412   1.681   .     S
O2312  Zn2429  1.942   .     S
O2313  Zn2421  1.942   .     S
O2314  Zn2431  1.943   .     S
O2315  C2658   1.279   1_455 S
O2315  Zn2430  1.943   .     S
O2316  Zn2433  1.940   .     S
O2317  Zn2427  1.950   .     S
O2317  Zn2433  1.947   .     S
O2317  Zn2429  1.943   .     S
O2318  Zn2432  1.940   .     S
O2319  Zn2424  1.933   .     S
O2320  Zn2423  1.933   .     S
O2321  Zn2426  1.940   .     S
O2322  Zn2425  1.940   .     S
O2323  Zn2428  1.933   .     S
O2324  Zn2427  1.933   .     S
O2325  Zn2422  1.942   .     S
O2326  Zn2436  1.942   .     S
O2327  Zn2423  1.942   .     S
O2328  Zn2434  1.950   .     S
O2328  Zn2422  1.943   .     S
O2328  Zn3238  1.947   1_455 S
O2328  Zn2430  1.943   .     S
O2329  Zn2424  1.942   .     S
O2330  Zn2436  1.933   .     S
O2331  Zn2422  1.933   .     S
O2332  Zn2427  1.939   .     S
O2333  Zn2428  1.939   .     S
O2334  Zn2425  1.935   .     S
O2335  Zn2426  1.935   .     S
O2336  Zn3243  1.933   .     S
O2337  Zn2430  1.933   .     S
O2338  Zn809   1.940   1_565 S
O2339  Zn2425  1.947   .     S
O2339  Zn2431  1.943   .     S
O2339  Zn2435  1.950   .     S
O2339  Zn3248  1.943   1_455 S
O2340  Zn2432  1.940   .     S
O2341  Zn2435  1.933   .     S
O2342  Zn3246  1.933   .     S
O2343  Zn2429  1.942   .     S
O2344  Zn797   1.942   1_565 S
O2345  Zn3242  1.942   .     S
O2346  Zn2431  1.942   .     S
O2347  Zn2421  1.933   .     S
O2348  Zn805   1.933   1_565 S
O2349  Zn2434  1.939   .     S
O2350  Zn2428  1.939   .     S
O2350  C217    1.280   1_565 S
O2351  Zn3247  1.939   .     S
O2352  Zn808   1.935   1_565 S
O2353  Zn2433  1.935   .     S
O2354  C2479   1.416   1_455 S
O2356  C190    1.389   1_565 S
O2358  C2639   1.382   1_455 S
O2361  Zn2427  1.939   .     S
O2372  Zn2422  1.942   .     S
O2383  Zn2436  1.942   .     S
O2394  Zn2424  1.943   .     S
Zn2423 O693    1.943   1_565 S
Zn2426 O3140   1.947   .     S
Zn2428 O633    1.950   1_565 S
Zn2430 O3157   1.942   1_455 S
Zn2431 O3148   1.933   1_455 S
Zn2434 O3154   1.933   1_455 S
Zn2435 O3163   1.939   1_455 S
Zn2436 O3151   1.943   .     S
C2437  S3217   1.800   .     S
C2437  C2440   1.413   .     A
C2437  C1703   1.418   1_655 S
C2438  S3218   1.798   .     S
C2438  C2450   1.414   .     A
C2438  C2571   1.418   .     A
C2439  C2695   1.411   .     A
C2440  C2639   1.416   .     A
C2440  C2470   1.416   .     A
C2441  C2472   1.413   .     A
C2441  C2548   1.413   .     A
C2441  C1829   1.416   1_655 S
C2442  C2640   1.414   .     A
C2442  C2642   1.415   .     A
C2442  C2473   1.414   .     A
C2443  C2643   1.421   .     A
C2443  C2651   1.413   .     A
C2443  C2474   1.415   .     A
C2444  C2471   1.409   .     A
C2444  C2644   1.416   .     A
C2444  C851    1.412   1_565 S
C2445  C2482   1.408   .     A
C2445  C2645   1.413   .     A
C2446  C2477   1.414   .     A
C2446  C2646   1.416   .     A
C2446  C2493   1.414   .     A
C2447  C2504   1.413   .     A
C2447  C2478   1.416   .     A
C2447  C2647   1.416   .     A
C2448  C2648   1.413   .     A
C2448  C2475   1.416   .     A
C2448  C2706   1.413   .     A
C2449  S3219   1.794   .     S
C2449  C2451   1.408   .     A
C2449  C1770   1.414   1_655 S
C2450  C2649   1.417   .     A
C2450  C2476   1.415   .     A
C2451  C2650   1.413   .     A
C2451  C1665   1.410   1_655 S
C2452  C2652   1.417   .     A
C2452  C2460   1.410   .     A
C2453  C2696   1.411   .     A
C2453  C2698   1.410   .     A
C2453  C2668   1.465   .     S
C2454  C2697   1.413   .     A
C2454  C2694   1.413   .     A
C2454  C2669   1.460   .     S
C2455  C2693   1.411   .     A
C2455  C2700   1.415   .     A
C2455  C2661   1.461   .     S
C2456  C2663   1.447   .     S
C2456  C2692   1.404   .     A
C2456  C2699   1.405   .     A
C2457  C2702   1.410   .     A
C2457  C2664   1.457   .     S
C2457  C2691   1.409   .     A
C2458  C2701   1.407   .     A
C2458  C2665   1.454   .     S
C2458  C2690   1.406   .     A
C2459  C2689   1.415   .     A
C2459  C2704   1.411   .     A
C2459  C2666   1.462   .     S
C2460  S3220   1.795   .     S
C2461  C2703   1.410   .     A
C2461  C2667   1.448   .     S
C2461  C2688   1.406   .     A
C2462  C2677   1.462   .     S
C2462  C2687   1.416   .     A
C2462  C2707   1.410   .     A
C2463  C2678   1.448   .     S
C2463  C2705   1.409   .     A
C2463  C2686   1.406   .     A
C2464  C2709   1.410   .     A
C2464  C2685   1.410   .     A
C2464  C2670   1.464   .     S
C2465  C2671   1.460   .     S
C2465  C2683   1.412   .     A
C2465  C2708   1.412   .     A
C2466  C2711   1.416   .     A
C2466  C2682   1.411   .     A
C2466  C2672   1.460   .     S
C2467  C2674   1.447   .     S
C2467  C2710   1.406   .     A
C2467  C2681   1.410   .     A
C2468  C2713   1.409   .     A
C2468  C2680   1.409   .     A
C2468  C2675   1.458   .     S
C2469  C2712   1.407   .     A
C2469  C2679   1.407   .     A
C2469  C2676   1.454   .     S
C2470  C2472   1.405   .     A
C2470  C1902   1.413   1_655 S
C2471  S3221   1.795   .     S
C2471  C936    1.412   1_565 S
C2472  C1903   1.412   1_655 S
C2473  C2474   1.404   .     A
C2473  C1092   1.411   1_565 S
C2474  C815    1.413   1_565 S
C2475  C852    1.405   1_556 S
C2476  C821    1.411   1_565 S
C2476  C851    1.405   1_564 S
C2477  C1666   1.404   1_556 S
C2478  C1640   1.412   1_655 S
C2478  C1665   1.404   1_654 S
C2479  C2480   1.531   .     S
C2479  H2717   1.111   .     S
C2479  H2828   1.112   .     S
C2479  O2354   1.416   1_655 S
C2480  C2481   1.527   .     S
C2480  H2939   1.112   .     S
C2480  H3003   1.111   .     S
C2481  H3036   1.111   .     S
C2481  H3025   1.108   .     S
C2481  H3014   1.109   .     S
C2482  S3222   1.794   .     S
C2483  O3167   1.417   .     S
C2483  H3058   1.118   .     S
C2483  H3047   1.111   .     S
C2483  C2484   1.528   .     S
C2484  C2485   1.525   .     S
C2484  H2729   1.110   .     S
C2484  H2718   1.112   .     S
C2485  H2751   1.106   .     S
C2485  H2740   1.110   .     S
C2485  H2762   1.111   .     S
C2486  H2784   1.112   .     S
C2486  H2773   1.111   .     S
C2486  C2487   1.530   .     S
C2486  O3168   1.418   .     S
C2487  C2488   1.527   .     S
C2487  H2806   1.111   .     S
C2487  H2795   1.112   .     S
C2488  H2829   1.109   .     S
C2488  H2817   1.111   .     S
C2488  H2840   1.111   .     S
C2489  C2490   1.532   .     S
C2489  O3169   1.417   .     S
C2489  H2862   1.116   .     S
C2489  H2851   1.111   .     S
C2490  H2873   1.112   .     S
C2490  C2491   1.526   .     S
C2490  H2884   1.110   .     S
C2491  H2917   1.111   .     S
C2491  H2906   1.110   .     S
C2491  H2895   1.111   .     S
C2492  H2928   1.114   .     S
C2492  C2494   1.527   .     S
C2492  H2940   1.116   .     S
C2492  O3170   1.411   .     S
C2493  S3223   1.797   .     S
C2493  C2582   1.418   .     A
C2494  H2962   1.112   .     S
C2494  H2951   1.111   .     S
C2494  C2495   1.524   .     S
C2495  H2995   1.111   .     S
C2495  H2973   1.110   .     S
C2495  H2984   1.109   .     S
C2496  H2999   1.111   .     S
C2496  O3171   1.417   .     S
C2496  C2497   1.533   .     S
C2496  H3000   1.116   .     S
C2497  H3001   1.112   .     S
C2497  C2498   1.525   .     S
C2497  H3002   1.110   .     S
C2498  H3005   1.110   .     S
C2498  H3006   1.110   .     S
C2498  H3004   1.111   .     S
C2499  O3172   1.412   .     S
C2499  H3008   1.115   .     S
C2499  H3007   1.114   .     S
C2499  C2500   1.528   .     S
C2500  H3009   1.111   .     S
C2500  H3010   1.112   .     S
C2500  C2501   1.526   .     S
C2501  H3011   1.111   .     S
C2501  H3013   1.111   .     S
C2501  H3012   1.111   .     S
C2502  H3016   1.112   .     S
C2502  H3015   1.111   .     S
C2502  C2503   1.531   .     S
C2502  O3174   1.416   .     S
C2503  H3017   1.112   .     S
C2503  H3018   1.111   .     S
C2503  C2505   1.527   .     S
C2504  C2593   1.416   .     A
C2504  S3224   1.798   .     S
C2505  H3019   1.109   .     S
C2505  H3020   1.109   .     S
C2505  H3021   1.111   .     S
C2506  H3023   1.114   .     S
C2506  O3175   1.418   .     S
C2506  C2507   1.531   .     S
C2506  H3022   1.111   .     S
C2507  H3024   1.111   .     S
C2507  C2508   1.527   .     S
C2507  H3026   1.111   .     S
C2508  H3027   1.111   .     S
C2508  H3029   1.111   .     S
C2508  H3028   1.109   .     S
C2509  C2510   1.533   .     S
C2509  H3030   1.111   .     S
C2509  O3176   1.416   .     S
C2509  H3031   1.116   .     S
C2510  H3032   1.112   .     S
C2510  C2511   1.526   .     S
C2510  H3033   1.110   1_554 S
C2511  H3035   1.110   .     S
C2511  H3037   1.111   .     S
C2511  H3034   1.111   .     S
C2512  C2513   1.529   .     S
C2512  H3039   1.115   .     S
C2512  O3177   1.413   .     S
C2512  H3038   1.114   .     S
C2513  H3040   1.111   .     S
C2513  C2514   1.526   .     S
C2513  H3041   1.112   .     S
C2514  H3044   1.111   .     S
C2514  H3042   1.111   .     S
C2514  H3043   1.111   .     S
C2515  C2655   1.453   .     S
C2515  C2662   1.415   .     A
C2516  H3045   1.112   .     S
C2516  H3046   1.115   .     S
C2516  O3178   1.410   .     S
C2516  C2517   1.527   .     S
C2517  H3049   1.112   .     S
C2517  C2518   1.524   .     S
C2517  H3048   1.111   .     S
C2518  H3050   1.111   .     S
C2518  H3051   1.110   .     S
C2518  H3052   1.111   .     S
C2519  O3179   1.413   .     S
C2519  H3053   1.115   .     S
C2519  C2520   1.528   .     S
C2519  H3054   1.112   .     S
C2520  H3055   1.112   .     S
C2520  H3056   1.112   .     S
C2520  C2521   1.525   .     S
C2521  H3060   1.111   .     S
C2521  H3057   1.111   .     S
C2521  H3059   1.110   .     S
C2522  O3180   1.412   .     S
C2522  H3061   1.114   .     S
C2522  H3062   1.115   .     S
C2522  C2523   1.529   .     S
C2523  H3064   1.112   .     S
C2523  C2524   1.526   .     S
C2523  H3063   1.111   .     S
C2524  H3067   1.111   .     S
C2524  H3065   1.111   .     S
C2524  H3066   1.111   .     S
C2525  O3181   1.416   .     S
C2525  C2527   1.533   .     S
C2525  H2719   1.116   .     S
C2525  H3068   1.111   .     S
C2526  C2656   1.453   .     S
C2526  C2548   1.416   .     A
C2526  C1861   1.412   1_655 S
C2527  H2721   1.110   .     S
C2527  C2528   1.526   .     S
C2527  H2720   1.112   .     S
C2528  H2723   1.110   .     S
C2528  H2722   1.111   .     S
C2528  H2724   1.111   .     S
C2529  H2725   1.111   .     S
C2529  H2726   1.114   .     S
C2529  C2530   1.531   .     S
C2529  O3182   1.418   .     S
C2530  H2727   1.111   .     S
C2530  C2531   1.527   .     S
C2530  H2728   1.111   .     S
C2531  H2732   1.111   .     S
C2531  H2730   1.111   .     S
C2531  H2731   1.109   .     S
C2532  O3183   1.418   .     S
C2532  H2733   1.110   .     S
C2532  H2734   1.116   .     S
C2532  C2533   1.530   .     S
C2533  C2534   1.525   .     S
C2533  H2736   1.111   .     S
C2533  H2735   1.111   .     S
C2534  H2738   1.109   .     S
C2534  H2737   1.110   .     S
C2534  H1115   1.110   1_565 S
C2535  H2741   1.117   .     S
C2535  H2742   1.114   .     S
C2535  O3185   1.414   .     S
C2535  C2536   1.529   .     S
C2536  H2743   1.111   .     S
C2536  C2538   1.525   .     S
C2536  H2744   1.111   .     S
C2537  C2684   1.413   .     A
C2537  C2653   1.455   .     S
C2538  H2746   1.110   .     S
C2538  H2747   1.111   .     S
C2538  H2745   1.110   .     S
C2539  O3186   1.417   .     S
C2539  H2749   1.114   .     S
C2539  H2748   1.111   .     S
C2539  C2540   1.531   .     S
C2540  H2750   1.109   .     S
C2540  C2541   1.527   .     S
C2540  H2752   1.111   .     S
C2541  H2754   1.109   .     S
C2541  H2753   1.111   .     S
C2542  C2543   1.527   .     S
C2542  H2756   1.116   .     S
C2542  O3187   1.415   .     S
C2542  H2757   1.113   .     S
C2543  C2544   1.525   .     S
C2543  H1946   1.111   1_655 S
C2543  H1947   1.111   1_655 S
C2544  H2760   1.111   .     S
C2544  H2763   1.111   .     S
C2544  H1949   1.111   1_655 S
C2545  H2764   1.111   .     S
C2545  O3188   1.418   .     S
C2545  H2765   1.118   .     S
C2545  C2546   1.531   .     S
C2546  H2766   1.110   .     S
C2546  H2767   1.108   .     S
C2547  H2770   1.106   .     S
C2547  H2769   1.109   .     S
C2547  C922    1.523   1_565 S
C2547  H1144   1.109   1_565 S
C2548  S3225   1.795   .     S
C2549  C2654   1.454   .     S
C2549  C2651   1.415   .     A
C2549  C1071   1.414   1_565 S
C2550  C2551   1.526   .     S
C2550  H2772   1.113   .     S
C2550  H2771   1.118   .     S
C2550  O3189   1.415   .     S
C2551  H2774   1.111   .     S
C2551  C2552   1.526   .     S
C2551  H1151   1.111   1_565 S
C2552  H2776   1.111   .     S
C2552  H2778   1.111   .     S
C2552  H1153   1.108   1_565 S
C2553  H2780   1.116   .     S
C2553  C2554   1.531   .     S
C2553  O3190   1.422   .     S
C2553  H2779   1.111   .     S
C2554  H2782   1.111   .     S
C2554  H2781   1.109   .     S
C2554  C2555   1.526   .     S
C2555  H2783   1.111   .     S
C2555  H2785   1.110   .     S
C2555  H1974   1.111   1_655 S
C2556  H2787   1.111   .     S
C2556  O3191   1.421   .     S
C2556  H2788   1.117   .     S
C2556  C2557   1.531   .     S
C2557  H2790   1.110   .     S
C2557  C2558   1.528   .     S
C2557  H2789   1.109   .     S
C2558  H2792   1.109   .     S
C2558  H2793   1.111   .     S
C2558  H2791   1.110   .     S
C2559  C2561   1.532   .     S
C2559  O3192   1.421   .     S
C2559  H2796   1.116   .     S
C2559  H2794   1.110   .     S
C2560  C2706   1.416   .     A
C2560  C2659   1.452   .     S
C2561  H2798   1.111   .     S
C2561  H2797   1.109   .     S
C2561  C2562   1.527   .     S
C2562  H2799   1.111   .     S
C2562  H2800   1.110   .     S
C2563  O3193   1.421   .     S
C2563  H2802   1.111   .     S
C2563  C2564   1.531   .     S
C2563  H2803   1.117   .     S
C2564  C2565   1.528   .     S
C2564  H2805   1.111   .     S
C2564  H2804   1.109   .     S
C2565  H2807   1.110   .     S
C2565  H2809   1.111   .     S
C2565  H2808   1.109   .     S
C2566  O3194   1.417   .     S
C2566  C2567   1.529   .     S
C2566  H2810   1.111   .     S
C2566  H2811   1.119   .     S
C2567  H2813   1.110   .     S
C2567  H2812   1.111   .     S
C2567  C2568   1.526   .     S
C2568  H2815   1.110   .     S
C2568  H2814   1.111   .     S
C2569  H2819   1.114   .     S
C2569  C2570   1.531   .     S
C2569  O3196   1.414   .     S
C2569  H2818   1.116   .     S
C2570  H2820   1.112   .     S
C2570  H2821   1.111   .     S
C2570  C2572   1.525   .     S
C2571  C2660   1.455   .     S
C2571  C858    1.413   1_565 S
C2572  H2824   1.110   .     S
C2572  H2822   1.111   .     S
C2572  H2823   1.110   .     S
C2573  H2826   1.111   .     S
C2573  H2825   1.118   .     S
C2573  O3197   1.414   .     S
C2573  C950    1.526   1_565 S
C2574  H2830   1.110   .     S
C2574  C2575   1.526   .     S
C2574  H2827   1.111   .     S
C2575  H2833   1.111   .     S
C2575  H2832   1.111   .     S
C2575  H2831   1.111   .     S
C2576  O3198   1.418   .     S
C2576  C2577   1.529   .     S
C2576  H2835   1.118   .     S
C2576  H2834   1.111   .     S
C2577  H2837   1.111   .     S
C2577  C2578   1.526   .     S
C2578  H2838   1.111   .     S
C2578  H2841   1.111   .     S
C2579  C2580   1.532   .     S
C2579  H2842   1.110   .     S
C2579  O3199   1.418   .     S
C2579  H2843   1.116   .     S
C2580  H2844   1.111   .     S
C2580  C2581   1.525   .     S
C2580  H2845   1.109   .     S
C2581  H2846   1.111   .     S
C2581  H2035   1.111   1_655 S
C2581  H2036   1.108   1_655 S
C2582  C2657   1.457   .     S
C2583  O3200   1.415   .     S
C2583  H2850   1.113   .     S
C2583  C2584   1.526   .     S
C2583  H2849   1.118   .     S
C2584  H2852   1.111   .     S
C2584  C2585   1.526   .     S
C2585  H2856   1.111   .     S
C2585  H2854   1.111   .     S
C2586  O3201   1.419   .     S
C2586  H2858   1.119   .     S
C2586  C2587   1.532   .     S
C2586  H2857   1.110   .     S
C2587  C2588   1.522   .     S
C2587  H2860   1.107   .     S
C2587  H2859   1.110   .     S
C2588  H2861   1.109   .     S
C2588  H2863   1.109   .     S
C2588  H2864   1.105   .     S
C2589  O3202   1.415   .     S
C2589  H2866   1.113   .     S
C2589  H2865   1.118   .     S
C2589  C2590   1.525   .     S
C2590  C2591   1.526   .     S
C2590  H2867   1.111   .     S
C2590  H2868   1.110   .     S
C2591  H2869   1.111   .     S
C2591  H2870   1.107   .     S
C2591  H2871   1.111   .     S
C2592  C2594   1.532   .     S
C2592  O3203   1.423   .     S
C2592  H2872   1.111   .     S
C2592  H2874   1.115   .     S
C2593  C2658   1.451   .     S
C2593  C1648   1.412   1_655 S
C2594  H2876   1.111   .     S
C2594  C2595   1.526   .     S
C2594  H2875   1.109   .     S
C2595  H2877   1.111   .     S
C2595  H2878   1.110   .     S
C2595  H2879   1.111   .     S
C2596  H2880   1.111   .     S
C2596  H2881   1.117   .     S
C2596  C2597   1.530   .     S
C2596  O3204   1.421   .     S
C2597  H2882   1.109   .     S
C2597  C2598   1.528   .     S
C2597  H2883   1.110   .     S
C2598  H2885   1.110   .     S
C2598  H2886   1.109   .     S
C2598  H2887   1.111   .     S
C2599  O3205   1.419   .     S
C2599  H2888   1.110   .     S
C2599  C2600   1.531   .     S
C2599  H2889   1.117   .     S
C2600  C2601   1.526   .     S
C2600  H2891   1.111   .     S
C2600  H2890   1.111   .     S
C2601  H2894   1.110   .     S
C2601  H2892   1.111   .     S
C2601  H2893   1.109   .     S
C2602  H2896   1.116   .     S
C2602  C2603   1.531   .     S
C2602  H2897   1.113   .     S
C2602  O3207   1.414   .     S
C2603  H2898   1.111   .     S
C2603  C2605   1.525   .     S
C2603  H2899   1.111   .     S
C2604  C2714   1.418   .     A
C2604  C2641   1.398   .     A
C2604  O3166   1.387   .     S
C2605  H2902   1.110   .     S
C2605  H2900   1.110   .     S
C2605  H2901   1.110   .     S
C2606  C2607   1.532   .     S
C2606  H2903   1.111   .     S
C2606  O3208   1.417   .     S
C2606  H2904   1.114   .     S
C2607  H2905   1.109   .     S
C2607  H2907   1.111   .     S
C2607  C2608   1.527   .     S
C2608  H2909   1.109   .     S
C2608  H2910   1.111   .     S
C2608  H2908   1.110   .     S
C2609  O3209   1.418   .     S
C2609  H2911   1.111   .     S
C2609  C2610   1.529   .     S
C2609  H2912   1.118   .     S
C2610  H2914   1.111   .     S
C2610  C2611   1.526   .     S
C2610  H2913   1.110   .     S
C2611  H2915   1.111   .     S
C2611  H2918   1.111   .     S
C2611  H2916   1.110   .     S
C2612  O3210   1.417   .     S
C2612  H2919   1.111   .     S
C2612  C2613   1.532   .     S
C2612  H2920   1.115   .     S
C2613  H2921   1.109   .     S
C2613  C2614   1.527   .     S
C2613  H2922   1.111   .     S
C2614  H2923   1.111   .     S
C2614  H2925   1.111   .     S
C2614  H2924   1.109   .     S
C2615  C2639   1.395   .     A
C2615  O3167   1.386   .     S
C2615  C1903   1.412   1_655 S
C2616  O3211   1.418   .     S
C2616  H2927   1.118   .     S
C2616  H2926   1.111   .     S
C2616  C2617   1.529   .     S
C2617  C2618   1.526   .     S
C2617  H2930   1.110   .     S
C2617  H2929   1.110   .     S
C2618  H2932   1.111   .     S
C2618  H2931   1.111   .     S
C2618  H2933   1.111   .     S
C2619  O3212   1.418   .     S
C2619  H2934   1.111   .     S
C2619  H2935   1.118   .     S
C2619  C2620   1.531   .     S
C2620  H2936   1.110   .     S
C2620  H2937   1.107   .     S
C2620  C2621   1.522   .     S
C2621  H2938   1.109   .     S
C2621  H2942   1.105   .     S
C2621  H2941   1.109   .     S
C2622  H2944   1.113   .     S
C2622  C2623   1.525   .     S
C2622  O3213   1.414   .     S
C2622  H2943   1.118   .     S
C2623  H2946   1.110   .     S
C2623  H2945   1.111   .     S
C2623  C2624   1.526   .     S
C2624  H2947   1.111   .     S
C2624  H2949   1.111   .     S
C2624  H2948   1.108   .     S
C2625  H2950   1.111   .     S
C2625  O3214   1.423   .     S
C2625  C2627   1.531   .     S
C2625  H2952   1.116   .     S
C2626  C2716   1.417   .     A
C2627  H2954   1.111   .     S
C2627  C2628   1.526   .     S
C2627  H2953   1.109   .     S
C2628  H2957   1.111   .     S
C2628  H2955   1.111   .     S
C2628  H2956   1.110   .     S
C2629  H2959   1.117   .     S
C2629  C2630   1.530   .     S
C2629  H2958   1.111   .     S
C2629  O3215   1.420   .     S
C2630  C2631   1.526   .     S
C2630  H2960   1.107   .     S
C2630  H2961   1.111   .     S
C2631  H2965   1.111   .     S
C2631  H2963   1.109   .     S
C2631  H2964   1.109   .     S
C2632  H2966   1.110   .     S
C2632  O3216   1.418   .     S
C2632  H2967   1.116   .     S
C2632  C2633   1.531   .     S
C2633  H2969   1.111   .     S
C2633  H2968   1.111   .     S
C2633  C2634   1.526   .     S
C2634  H2970   1.111   .     S
C2634  H2972   1.110   .     S
C2634  H2971   1.109   .     S
C2635  H2975   1.113   .     S
C2635  O3071   1.413   .     S
C2635  H2974   1.116   .     S
C2635  C2636   1.531   .     S
C2636  H2976   1.111   .     S
C2636  C2638   1.524   .     S
C2636  H2977   1.111   .     S
C2637  C2642   1.397   .     A
C2637  O3169   1.386   .     S
C2637  C815    1.416   1_565 S
C2638  H2979   1.110   .     S
C2638  H2980   1.109   .     S
C2638  H2978   1.110   .     S
C2639  O2358   1.382   1_655 S
C2640  S3226   1.797   .     S
C2640  C913    1.417   1_565 S
C2641  O3171   1.385   .     S
C2642  O1548   1.383   1_565 S
C2643  C1002   1.399   1_565 S
C2643  O1550   1.387   1_565 S
C2644  O3175   1.388   .     S
C2644  C2649   1.397   1_556 S
C2645  O3176   1.386   .     S
C2645  C2648   1.401   1_554 S
C2646  O3177   1.383   .     S
C2646  C2652   1.398   1_556 S
C2647  O3178   1.382   .     S
C2647  C2650   1.397   1_554 S
C2648  O3179   1.384   .     S
C2648  C2645   1.401   1_556 S
C2649  O3180   1.383   .     S
C2649  C2644   1.397   1_554 S
C2650  O3181   1.385   .     S
C2650  C2647   1.397   1_556 S
C2651  S3227   1.795   .     S
C2652  O3182   1.387   .     S
C2652  C2646   1.398   1_554 S
C2653  O3206   1.278   .     A
C2654  O3070   1.277   .     A
C2654  O1549   1.279   1_565 S
C2655  O3184   1.277   .     A
C2656  O3195   1.277   .     A
C2656  O2280   1.277   1_655 S
C2657  O3126   1.279   .     A
C2657  O3103   1.280   .     A
C2658  O2302   1.277   1_655 A
C2658  O2315   1.279   1_655 S
C2659  O3128   1.277   .     A
C2659  O3124   1.277   .     A
C2660  O1501   1.277   1_565 S
C2660  O1506   1.279   1_565 S
C2661  O3131   1.277   .     A
C2661  O3159   1.283   .     A
C2662  C2714   1.410   .     A
C2662  S3228   1.797   .     S
C2663  O3160   1.273   .     A
C2663  O3132   1.279   .     A
C2664  O3157   1.279   .     A
C2664  O3133   1.278   .     A
C2665  O3134   1.277   .     A
C2665  O3158   1.277   .     A
C2666  O3135   1.286   .     A
C2666  O3164   1.281   .     A
C2667  O3136   1.277   .     A
C2667  O3165   1.281   .     A
C2668  O3137   1.282   .     A
C2668  O3161   1.281   .     A
C2669  O3138   1.281   .     A
C2669  O3163   1.279   .     A
C2670  O3139   1.281   .     A
C2670  O3150   1.279   .     A
C2671  O3141   1.279   .     A
C2671  O3152   1.279   .     A
C2672  O3142   1.278   .     A
C2672  O3148   1.282   .     A
C2673  S3229   1.796   .     S
C2673  C2715   1.409   .     A
C2674  O3143   1.278   .     A
C2674  O3149   1.272   .     A
C2675  O3144   1.279   .     A
C2675  O3155   1.280   .     A
C2676  O3145   1.278   .     A
C2676  O3156   1.278   .     A
C2677  O3153   1.279   .     A
C2677  O3146   1.287   .     A
C2678  O3154   1.281   .     A
C2678  O3147   1.277   .     A
C2679  C2696   1.396   .     A
C2679  O3183   1.386   .     S
C2680  C2694   1.391   .     A
C2680  O3185   1.383   .     S
C2681  O3186   1.387   .     S
C2681  C2693   1.397   .     A
C2682  O3187   1.385   .     S
C2682  C2692   1.397   .     A
C2683  C2691   1.391   .     A
C2683  O3188   1.386   .     S
C2684  S3230   1.793   .     S
C2684  C2716   1.409   .     A
C2685  C2690   1.395   .     A
C2685  O3189   1.383   .     S
C2686  C2689   1.388   .     A
C2686  O3190   1.389   .     S
C2687  C2688   1.387   .     A
C2687  O3191   1.384   .     S
C2688  O3192   1.388   .     S
C2689  O3193   1.383   .     S
C2690  O3194   1.383   .     S
C2691  O3196   1.384   .     S
C2692  O3197   1.384   .     S
C2693  O3198   1.385   .     S
C2694  O3199   1.387   .     S
C2695  S3231   1.797   .     S
C2696  O3200   1.383   .     S
C2697  C2713   1.393   .     A
C2697  O3201   1.386   .     S
C2698  O3202   1.383   .     S
C2698  C2712   1.397   .     A
C2699  C2711   1.389   .     A
C2699  O3203   1.389   .     S
C2700  C2710   1.388   .     A
C2700  O3204   1.383   .     S
C2701  O3205   1.386   .     S
C2701  C2709   1.396   .     A
C2702  O3207   1.385   .     S
C2702  C2708   1.393   .     A
C2703  C2707   1.398   .     A
C2703  O3208   1.387   .     S
C2704  O3209   1.385   .     S
C2704  C2705   1.398   .     A
C2705  O3210   1.387   .     S
C2706  S3232   1.799   .     S
C2707  O3211   1.385   .     S
C2708  O3212   1.386   .     S
C2709  O3213   1.383   .     S
C2710  O3214   1.389   .     S
C2711  O3215   1.382   .     S
C2712  O3216   1.386   .     S
C2713  O3071   1.384   .     S
H2755  C1729   1.111   1_655 S
H2801  C938    1.111   1_565 S
H2816  C1756   1.111   1_655 S
H2836  C953    1.110   1_565 S
H2839  C954    1.110   1_565 S
H2853  C1772   1.110   1_655 S
H2855  C1773   1.107   1_655 S
H2981  O3074   0.991   .     S
H2982  O3077   0.991   .     S
H2983  O3080   0.991   .     S
H2985  O3084   0.991   .     S
H2986  O3087   0.990   .     S
H2987  O3090   0.991   .     S
H2988  O3094   0.991   .     S
H2989  O3097   0.991   .     S
H2990  O3100   0.991   .     S
H2991  O3104   0.991   .     S
H2992  O3107   0.991   .     S
H2993  O3110   0.991   .     S
H2994  O3113   0.991   .     S
H2996  O3117   0.991   .     S
H2997  O3120   0.991   .     S
H2998  O3123   0.991   .     S
H3033  C2510   1.110   1_556 S
O3069  Zn3233  1.943   .     S
O3069  Zn3236  1.943   .     S
O3069  Zn3244  1.947   .     S
O3070  Zn3235  1.943   .     S
O3072  S3217   1.503   .     D
O3073  S3217   1.503   .     D
O3074  S3217   1.680   .     S
O3075  S3225   1.503   .     D
O3076  S3225   1.503   .     D
O3077  S3225   1.681   .     S
O3078  S3226   1.501   .     D
O3079  S3226   1.503   .     D
O3080  S3226   1.681   .     S
O3081  Zn3238  1.940   .     S
O3081  C1843   1.278   1_655 S
O3082  S3227   1.502   .     D
O3083  S3227   1.503   .     D
O3084  S3227   1.682   .     S
O3085  S3228   1.501   .     D
O3086  S3228   1.503   .     D
O3087  S3228   1.681   .     S
O3088  S3229   1.502   .     D
O3089  S3229   1.503   .     D
O3090  S3229   1.682   .     S
O3091  S3230   1.502   .     D
O3092  Zn3237  1.940   .     S
O3093  S3230   1.503   .     D
O3094  S3230   1.682   .     S
O3095  S3231   1.502   .     D
O3096  S3231   1.503   .     D
O3097  S3231   1.681   .     S
O3098  S3232   1.502   .     D
O3099  S3232   1.503   .     D
O3100  S3232   1.681   .     S
O3101  S3218   1.502   .     D
O3102  S3218   1.503   .     D
O3103  Zn3247  1.939   .     S
O3104  S3218   1.681   .     S
O3105  S3219   1.502   .     D
O3106  S3219   1.503   .     D
O3107  S3219   1.682   .     S
O3108  S3220   1.502   .     D
O3109  S3220   1.503   .     D
O3110  S3220   1.681   .     S
O3111  S3221   1.502   .     D
O3112  S3221   1.503   .     D
O3113  S3221   1.681   .     S
O3114  Zn3246  1.939   .     S
O3115  S3222   1.502   .     D
O3116  S3222   1.503   .     D
O3117  S3222   1.682   .     S
O3118  S3223   1.502   .     D
O3119  S3223   1.503   .     D
O3120  S3223   1.682   .     S
O3121  S3224   1.502   .     D
O3122  S3224   1.503   .     D
O3123  S3224   1.681   .     S
O3124  Zn3241  1.942   .     S
O3125  Zn3233  1.942   .     S
O3126  Zn3243  1.943   .     S
O3127  Zn3242  1.943   .     S
O3128  Zn3245  1.940   .     S
O3129  Zn3239  1.950   .     S
O3129  Zn3245  1.947   .     S
O3129  Zn3241  1.943   .     S
O3130  Zn3244  1.940   .     S
O3131  Zn3236  1.933   .     S
O3132  Zn3235  1.933   .     S
O3133  Zn3238  1.940   .     S
O3134  Zn3237  1.940   .     S
O3135  Zn3240  1.933   .     S
O3136  Zn3239  1.933   .     S
O3137  Zn3234  1.942   .     S
O3138  Zn3248  1.942   .     S
O3139  Zn3235  1.942   .     S
O3140  Zn3246  1.950   .     S
O3140  Zn3234  1.943   .     S
O3140  Zn3242  1.943   .     S
O3141  Zn3236  1.942   .     S
O3142  Zn3248  1.933   .     S
O3143  Zn3234  1.933   .     S
O3144  Zn3239  1.939   .     S
O3145  Zn3240  1.939   .     S
O3146  Zn3237  1.935   .     S
O3147  Zn3238  1.935   .     S
O3148  Zn2431  1.933   1_655 S
O3149  Zn3242  1.933   .     S
O3150  Zn1621  1.940   1_565 S
O3151  Zn3237  1.947   .     S
O3151  Zn3243  1.943   .     S
O3151  Zn3247  1.950   .     S
O3152  Zn3244  1.940   .     S
O3153  Zn3247  1.933   .     S
O3154  Zn2434  1.933   1_655 S
O3155  Zn3241  1.942   .     S
O3156  Zn1609  1.942   1_565 S
O3157  Zn2430  1.942   1_655 S
O3158  Zn3243  1.942   .     S
O3159  Zn3233  1.933   .     S
O3160  Zn1617  1.933   1_565 S
O3161  Zn3246  1.939   .     S
O3162  Zn3240  1.939   .     S
O3162  C1029   1.280   1_565 S
O3163  Zn2435  1.939   1_655 S
O3164  Zn1620  1.935   1_565 S
O3165  Zn3245  1.935   .     S
O3168  C1002   1.389   1_565 S
O3173  Zn3239  1.939   .     S
O3184  Zn3234  1.942   .     S
O3195  Zn3248  1.942   .     S
O3206  Zn3236  1.943   .     S
Zn3235 O1505   1.943   1_565 S
Zn3238 O2328   1.947   1_655 S
Zn3240 O1445   1.950   1_565 S
Zn3248 O2339   1.943   1_655 S
