data_str_m2_o1_o10_pcu_sym.68
_audit_creation_date              2020-01-03
_audit_creation_method            'Materials Studio'
_symmetry_space_group_name_H-M    'P1'
_symmetry_Int_Tables_number       1
_symmetry_cell_setting            triclinic
loop_
_symmetry_equiv_pos_as_xyz
  x,y,z
_cell_length_a                    26.4941
_cell_length_b                    32.7722
_cell_length_c                    28.7961
_cell_angle_alpha                 88.5152
_cell_angle_beta                  98.1081
_cell_angle_gamma                 94.2249
loop_
_atom_site_label
_atom_site_type_symbol
_atom_site_fract_x
_atom_site_fract_y
_atom_site_fract_z
_atom_site_U_iso_or_equiv
_atom_site_adp_type
_atom_site_occupancy
C1     C     0.16553   0.08737   0.16727   0.00000  Uiso   1.00
C2     C     0.14905   0.01776   0.20564   0.00000  Uiso   1.00
C3     C     0.16354   0.29050   0.16367   0.00000  Uiso   1.00
C4     C     0.16441   0.04261   0.16827   0.00000  Uiso   1.00
C5     C     0.13572   0.13825   0.02067   0.00000  Uiso   1.00
C6     C     0.19820   0.19443   0.31288   0.00000  Uiso   1.00
C7     C     0.13664   0.13884   0.30472   0.00000  Uiso   1.00
C8     C     0.19727   0.19412   0.02866   0.00000  Uiso   1.00
C9     C     0.32356   0.12716   0.11405   0.00000  Uiso   1.00
C10    C     0.31297   0.14677   0.06526   0.00000  Uiso   1.00
C11    C     0.00949   0.20760   0.21780   0.00000  Uiso   1.00
C12    C     0.16595   0.24590   0.16573   0.00000  Uiso   1.00
C13    C     0.02137   0.18978   0.26729   0.00000  Uiso   1.00
C14    C     0.18280   0.29901   0.07787   0.00000  Uiso   1.00
C15    C     0.13119   0.28553   0.04948   0.00000  Uiso   1.00
C16    C     0.13180   0.03389   0.24910   0.00000  Uiso   1.00
C17    C     0.17736   0.04352   0.28703   0.00000  Uiso   1.00
C18    C     0.10414   0.10297   0.04061   0.00000  Uiso   1.00
C19    C     0.05577   0.08704   0.00867   0.00000  Uiso   1.00
C20    C     0.23818   0.22434   0.29567   0.00000  Uiso   1.00
C21    C     0.23005   0.26882   0.30467   0.00000  Uiso   1.00
C22    C     0.06816   0.16615   0.15490   0.00000  Uiso   1.00
C23    C     0.26520   0.16720   0.17842   0.00000  Uiso   1.00
C24    C     0.01315   0.15896   0.15034   0.00000  Uiso   1.00
C25    C     0.32023   0.17459   0.18284   0.00000  Uiso   1.00
C26    C     0.17750   0.02417   0.12883   0.00000  Uiso   1.00
C27    C     0.14890   0.30882   0.20245   0.00000  Uiso   1.00
C28    C     0.17527   0.31528   0.12488   0.00000  Uiso   1.00
Cu29   Cu    0.16667   0.16667   0.21355   0.00000  Uiso   1.00
Cu30   Cu    0.16667   0.16666   0.11978   0.00000  Uiso   1.00
H31    H     0.01587   0.15659   0.05182   0.00000  Uiso   1.00
H32    H     0.31502   0.23133   0.21833   0.00000  Uiso   1.00
H33    H     0.18898   0.04293   0.10008   0.00000  Uiso   1.00
H34    H     0.13608   0.28984   0.23042   0.00000  Uiso   1.00
H35    H     0.13696   0.26821   0.01839   0.00000  Uiso   1.00
H36    H     0.10696   0.26570   0.07054   0.00000  Uiso   1.00
H37    H     0.11026   0.31287   0.03734   0.00000  Uiso   1.00
H38    H     0.20166   0.32295   0.05679   0.00000  Uiso   1.00
H39    H     0.20953   0.27450   0.08255   0.00000  Uiso   1.00
H40    H     0.20443   0.06774   0.27535   0.00000  Uiso   1.00
H41    H     0.16373   0.05375   0.31908   0.00000  Uiso   1.00
H42    H     0.29050   0.12456   0.04058   0.00000  Uiso   1.00
H43    H     0.19827   0.01576   0.29633   0.00000  Uiso   1.00
H44    H     0.10853   0.06038   0.24030   0.00000  Uiso   1.00
H45    H     0.10547   0.01065   0.26393   0.00000  Uiso   1.00
H46    H     0.03434   0.11267   0.32543   0.00000  Uiso   1.00
H47    H     0.06544   0.06714   0.31443   0.00000  Uiso   1.00
H48    H     0.03046   0.06812   0.02969   0.00000  Uiso   1.00
H49    H     0.12851   0.07702   0.04903   0.00000  Uiso   1.00
H50    H     0.09111   0.11150   0.07302   0.00000  Uiso   1.00
H51    H     0.25333   0.28931   0.28330   0.00000  Uiso   1.00
H52    H     0.18940   0.27477   0.29503   0.00000  Uiso   1.00
H53    H     0.29148   0.17425   0.06646   0.00000  Uiso   1.00
H54    H     0.24250   0.27617   0.00870   0.00000  Uiso   1.00
H55    H     0.27621   0.21758   0.31448   0.00000  Uiso   1.00
H56    H     0.24036   0.22221   0.25843   0.00000  Uiso   1.00
H57    H     0.11329   0.11708   0.28235   0.00000  Uiso   1.00
H58    H     0.22263   0.21510   0.05075   0.00000  Uiso   1.00
H59    H     0.01728   0.10297   0.11290   0.00000  Uiso   1.00
H60    H     0.28852   0.11025   0.12347   0.00000  Uiso   1.00
H61    H     0.32040   0.17326   0.27860   0.00000  Uiso   1.00
H62    H     0.05078   0.16767   0.26844   0.00000  Uiso   1.00
H63    H     0.03558   0.21464   0.29232   0.00000  Uiso   1.00
H64    H     0.04399   0.22465   0.20737   0.00000  Uiso   1.00
N65    N     0.16668   0.16668   0.28403   0.00000  Uiso   1.00
N66    N     0.16665   0.16666   0.04931   0.00000  Uiso   1.00
O67    O     0.16666   0.10655   0.20625   0.00000  Uiso   1.00
O68    O     0.16667   0.22678   0.12709   0.00000  Uiso   1.00
O69    O     0.16666   0.10654   0.12706   0.00000  Uiso   1.00
O70    O     0.16667   0.22679   0.20628   0.00000  Uiso   1.00
O71    O     0.09161   0.16667   0.19712   0.00000  Uiso   1.00
O72    O     0.24172   0.16666   0.13621   0.00000  Uiso   1.00
O73    O     0.09161   0.16666   0.11793   0.00000  Uiso   1.00
O74    O     0.24172   0.16667   0.21540   0.00000  Uiso   1.00
C75    C     0.49886   0.08737   0.16727   0.00000  Uiso   1.00
C76    C     0.48238   0.01776   0.20564   0.00000  Uiso   1.00
C77    C     0.49688   0.29050   0.16367   0.00000  Uiso   1.00
C78    C     0.49774   0.04261   0.16827   0.00000  Uiso   1.00
C79    C     0.46905   0.13825   0.02067   0.00000  Uiso   1.00
C80    C     0.53154   0.19443   0.31288   0.00000  Uiso   1.00
C81    C     0.46998   0.13884   0.30472   0.00000  Uiso   1.00
C82    C     0.53061   0.19412   0.02866   0.00000  Uiso   1.00
C83    C     0.65689   0.12716   0.11405   0.00000  Uiso   1.00
C84    C     0.64630   0.14677   0.06526   0.00000  Uiso   1.00
C85    C     0.34282   0.20760   0.21780   0.00000  Uiso   1.00
C86    C     0.49929   0.24590   0.16573   0.00000  Uiso   1.00
C87    C     0.35471   0.18978   0.26729   0.00000  Uiso   1.00
C88    C     0.51613   0.29901   0.07787   0.00000  Uiso   1.00
C89    C     0.46452   0.28553   0.04948   0.00000  Uiso   1.00
C90    C     0.46513   0.03389   0.24910   0.00000  Uiso   1.00
C91    C     0.51069   0.04352   0.28703   0.00000  Uiso   1.00
C92    C     0.43748   0.10297   0.04061   0.00000  Uiso   1.00
C93    C     0.38910   0.08704   0.00867   0.00000  Uiso   1.00
C94    C     0.57152   0.22434   0.29567   0.00000  Uiso   1.00
C95    C     0.56339   0.26882   0.30467   0.00000  Uiso   1.00
C96    C     0.40149   0.16615   0.15490   0.00000  Uiso   1.00
C97    C     0.59854   0.16720   0.17842   0.00000  Uiso   1.00
C98    C     0.34649   0.15896   0.15034   0.00000  Uiso   1.00
C99    C     0.65357   0.17459   0.18284   0.00000  Uiso   1.00
C100   C     0.51083   0.02417   0.12883   0.00000  Uiso   1.00
C101   C     0.48223   0.30882   0.20245   0.00000  Uiso   1.00
C102   C     0.50860   0.31528   0.12488   0.00000  Uiso   1.00
Cu103  Cu    0.50000   0.16667   0.21355   0.00000  Uiso   1.00
Cu104  Cu    0.50000   0.16666   0.11978   0.00000  Uiso   1.00
H105   H     0.34920   0.15659   0.05182   0.00000  Uiso   1.00
H106   H     0.64835   0.23133   0.21833   0.00000  Uiso   1.00
H107   H     0.52231   0.04293   0.10008   0.00000  Uiso   1.00
H108   H     0.46942   0.28984   0.23042   0.00000  Uiso   1.00
H109   H     0.47029   0.26821   0.01839   0.00000  Uiso   1.00
H110   H     0.44029   0.26570   0.07054   0.00000  Uiso   1.00
H111   H     0.44359   0.31287   0.03734   0.00000  Uiso   1.00
H112   H     0.53500   0.32295   0.05679   0.00000  Uiso   1.00
H113   H     0.54287   0.27450   0.08255   0.00000  Uiso   1.00
H114   H     0.53776   0.06774   0.27535   0.00000  Uiso   1.00
H115   H     0.49706   0.05375   0.31908   0.00000  Uiso   1.00
H116   H     0.62383   0.12456   0.04058   0.00000  Uiso   1.00
H117   H     0.53160   0.01576   0.29633   0.00000  Uiso   1.00
H118   H     0.44187   0.06038   0.24030   0.00000  Uiso   1.00
H119   H     0.43880   0.01065   0.26393   0.00000  Uiso   1.00
H120   H     0.36768   0.11267   0.32543   0.00000  Uiso   1.00
H121   H     0.39877   0.06714   0.31443   0.00000  Uiso   1.00
H122   H     0.36379   0.06812   0.02969   0.00000  Uiso   1.00
H123   H     0.46184   0.07702   0.04903   0.00000  Uiso   1.00
H124   H     0.42445   0.11150   0.07302   0.00000  Uiso   1.00
H125   H     0.58666   0.28931   0.28330   0.00000  Uiso   1.00
H126   H     0.52273   0.27477   0.29503   0.00000  Uiso   1.00
H127   H     0.62481   0.17425   0.06646   0.00000  Uiso   1.00
H128   H     0.57583   0.27617   0.00870   0.00000  Uiso   1.00
H129   H     0.60954   0.21758   0.31448   0.00000  Uiso   1.00
H130   H     0.57369   0.22221   0.25843   0.00000  Uiso   1.00
H131   H     0.44662   0.11708   0.28235   0.00000  Uiso   1.00
H132   H     0.55596   0.21510   0.05075   0.00000  Uiso   1.00
H133   H     0.35061   0.10297   0.11290   0.00000  Uiso   1.00
H134   H     0.62185   0.11025   0.12347   0.00000  Uiso   1.00
H135   H     0.65373   0.17326   0.27860   0.00000  Uiso   1.00
H136   H     0.38412   0.16767   0.26844   0.00000  Uiso   1.00
H137   H     0.36891   0.21464   0.29232   0.00000  Uiso   1.00
H138   H     0.37732   0.22465   0.20737   0.00000  Uiso   1.00
N139   N     0.50001   0.16668   0.28403   0.00000  Uiso   1.00
N140   N     0.49999   0.16666   0.04931   0.00000  Uiso   1.00
O141   O     0.50000   0.10655   0.20625   0.00000  Uiso   1.00
O142   O     0.50000   0.22678   0.12709   0.00000  Uiso   1.00
O143   O     0.50000   0.10654   0.12706   0.00000  Uiso   1.00
O144   O     0.50000   0.22679   0.20628   0.00000  Uiso   1.00
O145   O     0.42495   0.16667   0.19712   0.00000  Uiso   1.00
O146   O     0.57505   0.16666   0.13621   0.00000  Uiso   1.00
O147   O     0.42494   0.16666   0.11793   0.00000  Uiso   1.00
O148   O     0.57506   0.16667   0.21540   0.00000  Uiso   1.00
C149   C     0.83219   0.08737   0.16727   0.00000  Uiso   1.00
C150   C     0.81571   0.01776   0.20564   0.00000  Uiso   1.00
C151   C     0.83021   0.29050   0.16367   0.00000  Uiso   1.00
C152   C     0.83107   0.04261   0.16827   0.00000  Uiso   1.00
C153   C     0.80238   0.13825   0.02067   0.00000  Uiso   1.00
C154   C     0.86487   0.19443   0.31288   0.00000  Uiso   1.00
C155   C     0.80331   0.13884   0.30472   0.00000  Uiso   1.00
C156   C     0.86394   0.19412   0.02866   0.00000  Uiso   1.00
C157   C     0.99023   0.12716   0.11405   0.00000  Uiso   1.00
C158   C     0.97963   0.14677   0.06526   0.00000  Uiso   1.00
C159   C     0.67615   0.20760   0.21780   0.00000  Uiso   1.00
C160   C     0.83262   0.24590   0.16573   0.00000  Uiso   1.00
C161   C     0.68804   0.18978   0.26729   0.00000  Uiso   1.00
C162   C     0.84946   0.29901   0.07787   0.00000  Uiso   1.00
C163   C     0.79786   0.28553   0.04948   0.00000  Uiso   1.00
C164   C     0.79847   0.03389   0.24910   0.00000  Uiso   1.00
C165   C     0.84403   0.04352   0.28703   0.00000  Uiso   1.00
C166   C     0.77081   0.10297   0.04061   0.00000  Uiso   1.00
C167   C     0.72244   0.08704   0.00867   0.00000  Uiso   1.00
C168   C     0.90485   0.22434   0.29567   0.00000  Uiso   1.00
C169   C     0.89672   0.26882   0.30467   0.00000  Uiso   1.00
C170   C     0.73483   0.16615   0.15490   0.00000  Uiso   1.00
C171   C     0.93187   0.16720   0.17842   0.00000  Uiso   1.00
C172   C     0.67982   0.15896   0.15034   0.00000  Uiso   1.00
C173   C     0.98690   0.17459   0.18284   0.00000  Uiso   1.00
C174   C     0.84417   0.02417   0.12883   0.00000  Uiso   1.00
C175   C     0.81557   0.30882   0.20245   0.00000  Uiso   1.00
C176   C     0.84193   0.31528   0.12488   0.00000  Uiso   1.00
Cu177  Cu    0.83333   0.16667   0.21355   0.00000  Uiso   1.00
Cu178  Cu    0.83333   0.16666   0.11978   0.00000  Uiso   1.00
H179   H     0.68254   0.15659   0.05182   0.00000  Uiso   1.00
H180   H     0.98168   0.23133   0.21833   0.00000  Uiso   1.00
H181   H     0.85565   0.04293   0.10008   0.00000  Uiso   1.00
H182   H     0.80275   0.28984   0.23042   0.00000  Uiso   1.00
H183   H     0.80362   0.26821   0.01839   0.00000  Uiso   1.00
H184   H     0.77362   0.26570   0.07054   0.00000  Uiso   1.00
H185   H     0.77693   0.31287   0.03734   0.00000  Uiso   1.00
H186   H     0.86833   0.32295   0.05679   0.00000  Uiso   1.00
H187   H     0.87620   0.27450   0.08255   0.00000  Uiso   1.00
H188   H     0.87110   0.06774   0.27535   0.00000  Uiso   1.00
H189   H     0.83039   0.05375   0.31908   0.00000  Uiso   1.00
H190   H     0.95716   0.12456   0.04058   0.00000  Uiso   1.00
H191   H     0.86493   0.01576   0.29633   0.00000  Uiso   1.00
H192   H     0.77520   0.06038   0.24030   0.00000  Uiso   1.00
H193   H     0.77214   0.01065   0.26393   0.00000  Uiso   1.00
H194   H     0.70101   0.11267   0.32543   0.00000  Uiso   1.00
H195   H     0.73211   0.06714   0.31443   0.00000  Uiso   1.00
H196   H     0.69713   0.06812   0.02969   0.00000  Uiso   1.00
H197   H     0.79518   0.07702   0.04903   0.00000  Uiso   1.00
H198   H     0.75778   0.11150   0.07302   0.00000  Uiso   1.00
H199   H     0.91999   0.28931   0.28330   0.00000  Uiso   1.00
H200   H     0.85606   0.27477   0.29503   0.00000  Uiso   1.00
H201   H     0.95815   0.17425   0.06646   0.00000  Uiso   1.00
H202   H     0.90916   0.27617   0.00870   0.00000  Uiso   1.00
H203   H     0.94288   0.21758   0.31448   0.00000  Uiso   1.00
H204   H     0.90702   0.22221   0.25843   0.00000  Uiso   1.00
H205   H     0.77995   0.11708   0.28235   0.00000  Uiso   1.00
H206   H     0.88930   0.21510   0.05075   0.00000  Uiso   1.00
H207   H     0.68394   0.10297   0.11290   0.00000  Uiso   1.00
H208   H     0.95518   0.11025   0.12347   0.00000  Uiso   1.00
H209   H     0.98707   0.17326   0.27860   0.00000  Uiso   1.00
H210   H     0.71745   0.16767   0.26844   0.00000  Uiso   1.00
H211   H     0.70224   0.21464   0.29232   0.00000  Uiso   1.00
H212   H     0.71066   0.22465   0.20737   0.00000  Uiso   1.00
N213   N     0.83335   0.16668   0.28403   0.00000  Uiso   1.00
N214   N     0.83332   0.16666   0.04931   0.00000  Uiso   1.00
O215   O     0.83333   0.10655   0.20625   0.00000  Uiso   1.00
O216   O     0.83334   0.22678   0.12709   0.00000  Uiso   1.00
O217   O     0.83333   0.10654   0.12706   0.00000  Uiso   1.00
O218   O     0.83334   0.22679   0.20628   0.00000  Uiso   1.00
O219   O     0.75828   0.16667   0.19712   0.00000  Uiso   1.00
O220   O     0.90839   0.16666   0.13621   0.00000  Uiso   1.00
O221   O     0.75828   0.16666   0.11793   0.00000  Uiso   1.00
O222   O     0.90839   0.16667   0.21540   0.00000  Uiso   1.00
C223   C     0.16553   0.42071   0.16727   0.00000  Uiso   1.00
C224   C     0.14905   0.35109   0.20564   0.00000  Uiso   1.00
C225   C     0.16354   0.62383   0.16367   0.00000  Uiso   1.00
C226   C     0.16441   0.37594   0.16827   0.00000  Uiso   1.00
C227   C     0.13572   0.47158   0.02067   0.00000  Uiso   1.00
C228   C     0.19820   0.52777   0.31288   0.00000  Uiso   1.00
C229   C     0.13664   0.47217   0.30472   0.00000  Uiso   1.00
C230   C     0.19727   0.52745   0.02866   0.00000  Uiso   1.00
C231   C     0.32356   0.46050   0.11405   0.00000  Uiso   1.00
C232   C     0.31297   0.48010   0.06526   0.00000  Uiso   1.00
C233   C     0.00949   0.54093   0.21780   0.00000  Uiso   1.00
C234   C     0.16595   0.57923   0.16573   0.00000  Uiso   1.00
C235   C     0.02137   0.52311   0.26729   0.00000  Uiso   1.00
C236   C     0.18280   0.63235   0.07787   0.00000  Uiso   1.00
C237   C     0.13119   0.61887   0.04948   0.00000  Uiso   1.00
C238   C     0.13180   0.36723   0.24910   0.00000  Uiso   1.00
C239   C     0.17736   0.37685   0.28703   0.00000  Uiso   1.00
C240   C     0.10414   0.43630   0.04061   0.00000  Uiso   1.00
C241   C     0.05577   0.42038   0.00867   0.00000  Uiso   1.00
C242   C     0.23818   0.55767   0.29567   0.00000  Uiso   1.00
C243   C     0.23005   0.60215   0.30467   0.00000  Uiso   1.00
C244   C     0.06816   0.49949   0.15490   0.00000  Uiso   1.00
C245   C     0.26520   0.50053   0.17842   0.00000  Uiso   1.00
C246   C     0.01315   0.49229   0.15034   0.00000  Uiso   1.00
C247   C     0.32023   0.50792   0.18284   0.00000  Uiso   1.00
C248   C     0.17750   0.35751   0.12883   0.00000  Uiso   1.00
C249   C     0.14890   0.64215   0.20245   0.00000  Uiso   1.00
C250   C     0.17527   0.64862   0.12488   0.00000  Uiso   1.00
Cu251  Cu    0.16667   0.50001   0.21355   0.00000  Uiso   1.00
Cu252  Cu    0.16667   0.49999   0.11978   0.00000  Uiso   1.00
H253   H     0.01587   0.48992   0.05182   0.00000  Uiso   1.00
H254   H     0.31502   0.56466   0.21833   0.00000  Uiso   1.00
H255   H     0.18898   0.37626   0.10008   0.00000  Uiso   1.00
H256   H     0.13608   0.62318   0.23042   0.00000  Uiso   1.00
H257   H     0.13696   0.60155   0.01839   0.00000  Uiso   1.00
H258   H     0.10696   0.59903   0.07054   0.00000  Uiso   1.00
H259   H     0.11026   0.64620   0.03734   0.00000  Uiso   1.00
H260   H     0.20166   0.65629   0.05679   0.00000  Uiso   1.00
H261   H     0.20953   0.60783   0.08255   0.00000  Uiso   1.00
H262   H     0.20443   0.40107   0.27535   0.00000  Uiso   1.00
H263   H     0.16373   0.38709   0.31908   0.00000  Uiso   1.00
H264   H     0.29050   0.45790   0.04058   0.00000  Uiso   1.00
H265   H     0.19827   0.34909   0.29633   0.00000  Uiso   1.00
H266   H     0.10853   0.39371   0.24030   0.00000  Uiso   1.00
H267   H     0.10547   0.34398   0.26393   0.00000  Uiso   1.00
H268   H     0.03434   0.44600   0.32543   0.00000  Uiso   1.00
H269   H     0.06544   0.40047   0.31443   0.00000  Uiso   1.00
H270   H     0.03046   0.40146   0.02969   0.00000  Uiso   1.00
H271   H     0.12851   0.41035   0.04903   0.00000  Uiso   1.00
H272   H     0.09111   0.44484   0.07302   0.00000  Uiso   1.00
H273   H     0.25333   0.62265   0.28330   0.00000  Uiso   1.00
H274   H     0.18940   0.60811   0.29503   0.00000  Uiso   1.00
H275   H     0.29148   0.50758   0.06646   0.00000  Uiso   1.00
H276   H     0.24250   0.60950   0.00870   0.00000  Uiso   1.00
H277   H     0.27621   0.55091   0.31448   0.00000  Uiso   1.00
H278   H     0.24036   0.55555   0.25843   0.00000  Uiso   1.00
H279   H     0.11329   0.45042   0.28235   0.00000  Uiso   1.00
H280   H     0.22263   0.54843   0.05075   0.00000  Uiso   1.00
H281   H     0.01728   0.43630   0.11290   0.00000  Uiso   1.00
H282   H     0.28852   0.44358   0.12347   0.00000  Uiso   1.00
H283   H     0.32040   0.50659   0.27860   0.00000  Uiso   1.00
H284   H     0.05078   0.50100   0.26844   0.00000  Uiso   1.00
H285   H     0.03558   0.54797   0.29232   0.00000  Uiso   1.00
H286   H     0.04399   0.55799   0.20737   0.00000  Uiso   1.00
N287   N     0.16668   0.50001   0.28403   0.00000  Uiso   1.00
N288   N     0.16665   0.49999   0.04931   0.00000  Uiso   1.00
O289   O     0.16666   0.43989   0.20625   0.00000  Uiso   1.00
O290   O     0.16667   0.56011   0.12709   0.00000  Uiso   1.00
O291   O     0.16666   0.43988   0.12706   0.00000  Uiso   1.00
O292   O     0.16667   0.56012   0.20628   0.00000  Uiso   1.00
O293   O     0.09161   0.50000   0.19712   0.00000  Uiso   1.00
O294   O     0.24172   0.50000   0.13621   0.00000  Uiso   1.00
O295   O     0.09161   0.49999   0.11793   0.00000  Uiso   1.00
O296   O     0.24172   0.50001   0.21540   0.00000  Uiso   1.00
C297   C     0.49886   0.42071   0.16727   0.00000  Uiso   1.00
C298   C     0.48238   0.35109   0.20564   0.00000  Uiso   1.00
C299   C     0.49688   0.62383   0.16367   0.00000  Uiso   1.00
C300   C     0.49774   0.37594   0.16827   0.00000  Uiso   1.00
C301   C     0.46905   0.47158   0.02067   0.00000  Uiso   1.00
C302   C     0.53154   0.52777   0.31288   0.00000  Uiso   1.00
C303   C     0.46998   0.47217   0.30472   0.00000  Uiso   1.00
C304   C     0.53061   0.52745   0.02866   0.00000  Uiso   1.00
C305   C     0.65689   0.46050   0.11405   0.00000  Uiso   1.00
C306   C     0.64630   0.48010   0.06526   0.00000  Uiso   1.00
C307   C     0.34282   0.54093   0.21780   0.00000  Uiso   1.00
C308   C     0.49929   0.57923   0.16573   0.00000  Uiso   1.00
C309   C     0.35471   0.52311   0.26729   0.00000  Uiso   1.00
C310   C     0.51613   0.63235   0.07787   0.00000  Uiso   1.00
C311   C     0.46452   0.61887   0.04948   0.00000  Uiso   1.00
C312   C     0.46513   0.36723   0.24910   0.00000  Uiso   1.00
C313   C     0.51069   0.37685   0.28703   0.00000  Uiso   1.00
C314   C     0.43748   0.43630   0.04061   0.00000  Uiso   1.00
C315   C     0.38910   0.42038   0.00867   0.00000  Uiso   1.00
C316   C     0.57152   0.55767   0.29567   0.00000  Uiso   1.00
C317   C     0.56339   0.60215   0.30467   0.00000  Uiso   1.00
C318   C     0.40149   0.49949   0.15490   0.00000  Uiso   1.00
C319   C     0.59854   0.50053   0.17842   0.00000  Uiso   1.00
C320   C     0.34649   0.49229   0.15034   0.00000  Uiso   1.00
C321   C     0.65357   0.50792   0.18284   0.00000  Uiso   1.00
C322   C     0.51083   0.35751   0.12883   0.00000  Uiso   1.00
C323   C     0.48223   0.64215   0.20245   0.00000  Uiso   1.00
C324   C     0.50860   0.64862   0.12488   0.00000  Uiso   1.00
Cu325  Cu    0.50000   0.50001   0.21355   0.00000  Uiso   1.00
Cu326  Cu    0.50000   0.49999   0.11978   0.00000  Uiso   1.00
H327   H     0.34920   0.48992   0.05182   0.00000  Uiso   1.00
H328   H     0.64835   0.56466   0.21833   0.00000  Uiso   1.00
H329   H     0.52231   0.37626   0.10008   0.00000  Uiso   1.00
H330   H     0.46942   0.62318   0.23042   0.00000  Uiso   1.00
H331   H     0.47029   0.60155   0.01839   0.00000  Uiso   1.00
H332   H     0.44029   0.59903   0.07054   0.00000  Uiso   1.00
H333   H     0.44359   0.64620   0.03734   0.00000  Uiso   1.00
H334   H     0.53500   0.65629   0.05679   0.00000  Uiso   1.00
H335   H     0.54287   0.60783   0.08255   0.00000  Uiso   1.00
H336   H     0.53776   0.40107   0.27535   0.00000  Uiso   1.00
H337   H     0.49706   0.38709   0.31908   0.00000  Uiso   1.00
H338   H     0.62383   0.45790   0.04058   0.00000  Uiso   1.00
H339   H     0.53160   0.34909   0.29633   0.00000  Uiso   1.00
H340   H     0.44187   0.39371   0.24030   0.00000  Uiso   1.00
H341   H     0.43880   0.34398   0.26393   0.00000  Uiso   1.00
H342   H     0.36768   0.44600   0.32543   0.00000  Uiso   1.00
H343   H     0.39877   0.40047   0.31443   0.00000  Uiso   1.00
H344   H     0.36379   0.40146   0.02969   0.00000  Uiso   1.00
H345   H     0.46184   0.41035   0.04903   0.00000  Uiso   1.00
H346   H     0.42445   0.44484   0.07302   0.00000  Uiso   1.00
H347   H     0.58666   0.62265   0.28330   0.00000  Uiso   1.00
H348   H     0.52273   0.60811   0.29503   0.00000  Uiso   1.00
H349   H     0.62481   0.50758   0.06646   0.00000  Uiso   1.00
H350   H     0.57583   0.60950   0.00870   0.00000  Uiso   1.00
H351   H     0.60954   0.55091   0.31448   0.00000  Uiso   1.00
H352   H     0.57369   0.55555   0.25843   0.00000  Uiso   1.00
H353   H     0.44662   0.45042   0.28235   0.00000  Uiso   1.00
H354   H     0.55596   0.54843   0.05075   0.00000  Uiso   1.00
H355   H     0.35061   0.43630   0.11290   0.00000  Uiso   1.00
H356   H     0.62185   0.44358   0.12347   0.00000  Uiso   1.00
H357   H     0.65373   0.50659   0.27860   0.00000  Uiso   1.00
H358   H     0.38412   0.50100   0.26844   0.00000  Uiso   1.00
H359   H     0.36891   0.54797   0.29232   0.00000  Uiso   1.00
H360   H     0.37732   0.55799   0.20737   0.00000  Uiso   1.00
N361   N     0.50001   0.50001   0.28403   0.00000  Uiso   1.00
N362   N     0.49999   0.49999   0.04931   0.00000  Uiso   1.00
O363   O     0.50000   0.43989   0.20625   0.00000  Uiso   1.00
O364   O     0.50000   0.56011   0.12709   0.00000  Uiso   1.00
O365   O     0.50000   0.43988   0.12706   0.00000  Uiso   1.00
O366   O     0.50000   0.56012   0.20628   0.00000  Uiso   1.00
O367   O     0.42495   0.50000   0.19712   0.00000  Uiso   1.00
O368   O     0.57505   0.50000   0.13621   0.00000  Uiso   1.00
O369   O     0.42494   0.49999   0.11793   0.00000  Uiso   1.00
O370   O     0.57506   0.50001   0.21540   0.00000  Uiso   1.00
C371   C     0.83219   0.42071   0.16727   0.00000  Uiso   1.00
C372   C     0.81571   0.35109   0.20564   0.00000  Uiso   1.00
C373   C     0.83021   0.62383   0.16367   0.00000  Uiso   1.00
C374   C     0.83107   0.37594   0.16827   0.00000  Uiso   1.00
C375   C     0.80238   0.47158   0.02067   0.00000  Uiso   1.00
C376   C     0.86487   0.52777   0.31288   0.00000  Uiso   1.00
C377   C     0.80331   0.47217   0.30472   0.00000  Uiso   1.00
C378   C     0.86394   0.52745   0.02866   0.00000  Uiso   1.00
C379   C     0.99023   0.46050   0.11405   0.00000  Uiso   1.00
C380   C     0.97963   0.48010   0.06526   0.00000  Uiso   1.00
C381   C     0.67615   0.54093   0.21780   0.00000  Uiso   1.00
C382   C     0.83262   0.57923   0.16573   0.00000  Uiso   1.00
C383   C     0.68804   0.52311   0.26729   0.00000  Uiso   1.00
C384   C     0.84946   0.63235   0.07787   0.00000  Uiso   1.00
C385   C     0.79786   0.61887   0.04948   0.00000  Uiso   1.00
C386   C     0.79847   0.36723   0.24910   0.00000  Uiso   1.00
C387   C     0.84403   0.37685   0.28703   0.00000  Uiso   1.00
C388   C     0.77081   0.43630   0.04061   0.00000  Uiso   1.00
C389   C     0.72244   0.42038   0.00867   0.00000  Uiso   1.00
C390   C     0.90485   0.55767   0.29567   0.00000  Uiso   1.00
C391   C     0.89672   0.60215   0.30467   0.00000  Uiso   1.00
C392   C     0.73483   0.49949   0.15490   0.00000  Uiso   1.00
C393   C     0.93187   0.50053   0.17842   0.00000  Uiso   1.00
C394   C     0.67982   0.49229   0.15034   0.00000  Uiso   1.00
C395   C     0.98690   0.50792   0.18284   0.00000  Uiso   1.00
C396   C     0.84417   0.35751   0.12883   0.00000  Uiso   1.00
C397   C     0.81557   0.64215   0.20245   0.00000  Uiso   1.00
C398   C     0.84193   0.64862   0.12488   0.00000  Uiso   1.00
Cu399  Cu    0.83333   0.50001   0.21355   0.00000  Uiso   1.00
Cu400  Cu    0.83333   0.49999   0.11978   0.00000  Uiso   1.00
H401   H     0.68254   0.48992   0.05182   0.00000  Uiso   1.00
H402   H     0.98168   0.56466   0.21833   0.00000  Uiso   1.00
H403   H     0.85565   0.37626   0.10008   0.00000  Uiso   1.00
H404   H     0.80275   0.62318   0.23042   0.00000  Uiso   1.00
H405   H     0.80362   0.60155   0.01839   0.00000  Uiso   1.00
H406   H     0.77362   0.59903   0.07054   0.00000  Uiso   1.00
H407   H     0.77693   0.64620   0.03734   0.00000  Uiso   1.00
H408   H     0.86833   0.65629   0.05679   0.00000  Uiso   1.00
H409   H     0.87620   0.60783   0.08255   0.00000  Uiso   1.00
H410   H     0.87110   0.40107   0.27535   0.00000  Uiso   1.00
H411   H     0.83039   0.38709   0.31908   0.00000  Uiso   1.00
H412   H     0.95716   0.45790   0.04058   0.00000  Uiso   1.00
H413   H     0.86493   0.34909   0.29633   0.00000  Uiso   1.00
H414   H     0.77520   0.39371   0.24030   0.00000  Uiso   1.00
H415   H     0.77214   0.34398   0.26393   0.00000  Uiso   1.00
H416   H     0.70101   0.44600   0.32543   0.00000  Uiso   1.00
H417   H     0.73211   0.40047   0.31443   0.00000  Uiso   1.00
H418   H     0.69713   0.40146   0.02969   0.00000  Uiso   1.00
H419   H     0.79518   0.41035   0.04903   0.00000  Uiso   1.00
H420   H     0.75778   0.44484   0.07302   0.00000  Uiso   1.00
H421   H     0.91999   0.62265   0.28330   0.00000  Uiso   1.00
H422   H     0.85606   0.60811   0.29503   0.00000  Uiso   1.00
H423   H     0.95815   0.50758   0.06646   0.00000  Uiso   1.00
H424   H     0.90916   0.60950   0.00870   0.00000  Uiso   1.00
H425   H     0.94288   0.55091   0.31448   0.00000  Uiso   1.00
H426   H     0.90702   0.55555   0.25843   0.00000  Uiso   1.00
H427   H     0.77995   0.45042   0.28235   0.00000  Uiso   1.00
H428   H     0.88930   0.54843   0.05075   0.00000  Uiso   1.00
H429   H     0.68394   0.43630   0.11290   0.00000  Uiso   1.00
H430   H     0.95518   0.44358   0.12347   0.00000  Uiso   1.00
H431   H     0.98707   0.50659   0.27860   0.00000  Uiso   1.00
H432   H     0.71745   0.50100   0.26844   0.00000  Uiso   1.00
H433   H     0.70224   0.54797   0.29232   0.00000  Uiso   1.00
H434   H     0.71066   0.55799   0.20737   0.00000  Uiso   1.00
N435   N     0.83335   0.50001   0.28403   0.00000  Uiso   1.00
N436   N     0.83332   0.49999   0.04931   0.00000  Uiso   1.00
O437   O     0.83333   0.43989   0.20625   0.00000  Uiso   1.00
O438   O     0.83334   0.56011   0.12709   0.00000  Uiso   1.00
O439   O     0.83333   0.43988   0.12706   0.00000  Uiso   1.00
O440   O     0.83334   0.56012   0.20628   0.00000  Uiso   1.00
O441   O     0.75828   0.50000   0.19712   0.00000  Uiso   1.00
O442   O     0.90839   0.50000   0.13621   0.00000  Uiso   1.00
O443   O     0.75828   0.49999   0.11793   0.00000  Uiso   1.00
O444   O     0.90839   0.50001   0.21540   0.00000  Uiso   1.00
C445   C     0.16553   0.75404   0.16727   0.00000  Uiso   1.00
C446   C     0.14905   0.68442   0.20564   0.00000  Uiso   1.00
C447   C     0.16354   0.95716   0.16367   0.00000  Uiso   1.00
C448   C     0.16441   0.70927   0.16827   0.00000  Uiso   1.00
C449   C     0.13572   0.80491   0.02067   0.00000  Uiso   1.00
C450   C     0.19820   0.86110   0.31288   0.00000  Uiso   1.00
C451   C     0.13664   0.80550   0.30472   0.00000  Uiso   1.00
C452   C     0.19727   0.86079   0.02866   0.00000  Uiso   1.00
C453   C     0.32356   0.79383   0.11405   0.00000  Uiso   1.00
C454   C     0.31297   0.81344   0.06526   0.00000  Uiso   1.00
C455   C     0.00949   0.87426   0.21780   0.00000  Uiso   1.00
C456   C     0.16595   0.91256   0.16573   0.00000  Uiso   1.00
C457   C     0.02137   0.85645   0.26729   0.00000  Uiso   1.00
C458   C     0.18280   0.96568   0.07787   0.00000  Uiso   1.00
C459   C     0.13119   0.95220   0.04948   0.00000  Uiso   1.00
C460   C     0.13180   0.70056   0.24910   0.00000  Uiso   1.00
C461   C     0.17736   0.71018   0.28703   0.00000  Uiso   1.00
C462   C     0.10414   0.76963   0.04061   0.00000  Uiso   1.00
C463   C     0.05577   0.75371   0.00867   0.00000  Uiso   1.00
C464   C     0.23818   0.89101   0.29567   0.00000  Uiso   1.00
C465   C     0.23005   0.93549   0.30467   0.00000  Uiso   1.00
C466   C     0.06816   0.83282   0.15490   0.00000  Uiso   1.00
C467   C     0.26520   0.83387   0.17842   0.00000  Uiso   1.00
C468   C     0.01315   0.82563   0.15034   0.00000  Uiso   1.00
C469   C     0.32023   0.84125   0.18284   0.00000  Uiso   1.00
C470   C     0.17750   0.69084   0.12883   0.00000  Uiso   1.00
C471   C     0.14890   0.97548   0.20245   0.00000  Uiso   1.00
C472   C     0.17527   0.98195   0.12488   0.00000  Uiso   1.00
Cu473  Cu    0.16667   0.83334   0.21355   0.00000  Uiso   1.00
Cu474  Cu    0.16667   0.83333   0.11978   0.00000  Uiso   1.00
H475   H     0.01587   0.82326   0.05182   0.00000  Uiso   1.00
H476   H     0.31502   0.89799   0.21833   0.00000  Uiso   1.00
H477   H     0.18898   0.70959   0.10008   0.00000  Uiso   1.00
H478   H     0.13608   0.95651   0.23042   0.00000  Uiso   1.00
H479   H     0.13696   0.93488   0.01839   0.00000  Uiso   1.00
H480   H     0.10696   0.93236   0.07054   0.00000  Uiso   1.00
H481   H     0.11026   0.97954   0.03734   0.00000  Uiso   1.00
H482   H     0.20166   0.98962   0.05679   0.00000  Uiso   1.00
H483   H     0.20953   0.94116   0.08255   0.00000  Uiso   1.00
H484   H     0.20443   0.73440   0.27535   0.00000  Uiso   1.00
H485   H     0.16373   0.72042   0.31908   0.00000  Uiso   1.00
H486   H     0.29050   0.79123   0.04058   0.00000  Uiso   1.00
H487   H     0.19827   0.68242   0.29633   0.00000  Uiso   1.00
H488   H     0.10853   0.72705   0.24030   0.00000  Uiso   1.00
H489   H     0.10547   0.67732   0.26393   0.00000  Uiso   1.00
H490   H     0.03434   0.77934   0.32543   0.00000  Uiso   1.00
H491   H     0.06544   0.73381   0.31443   0.00000  Uiso   1.00
H492   H     0.03046   0.73479   0.02969   0.00000  Uiso   1.00
H493   H     0.12851   0.74368   0.04903   0.00000  Uiso   1.00
H494   H     0.09111   0.77817   0.07302   0.00000  Uiso   1.00
H495   H     0.25333   0.95598   0.28330   0.00000  Uiso   1.00
H496   H     0.18940   0.94144   0.29503   0.00000  Uiso   1.00
H497   H     0.29148   0.84092   0.06646   0.00000  Uiso   1.00
H498   H     0.24250   0.94283   0.00870   0.00000  Uiso   1.00
H499   H     0.27621   0.88424   0.31448   0.00000  Uiso   1.00
H500   H     0.24036   0.88888   0.25843   0.00000  Uiso   1.00
H501   H     0.11329   0.78375   0.28235   0.00000  Uiso   1.00
H502   H     0.22263   0.88177   0.05075   0.00000  Uiso   1.00
H503   H     0.01728   0.76964   0.11290   0.00000  Uiso   1.00
H504   H     0.28852   0.77691   0.12347   0.00000  Uiso   1.00
H505   H     0.32040   0.83993   0.27860   0.00000  Uiso   1.00
H506   H     0.05078   0.83433   0.26844   0.00000  Uiso   1.00
H507   H     0.03558   0.88130   0.29232   0.00000  Uiso   1.00
H508   H     0.04399   0.89132   0.20737   0.00000  Uiso   1.00
N509   N     0.16668   0.83334   0.28403   0.00000  Uiso   1.00
N510   N     0.16665   0.83332   0.04931   0.00000  Uiso   1.00
O511   O     0.16666   0.77322   0.20625   0.00000  Uiso   1.00
O512   O     0.16667   0.89345   0.12709   0.00000  Uiso   1.00
O513   O     0.16666   0.77321   0.12706   0.00000  Uiso   1.00
O514   O     0.16667   0.89346   0.20628   0.00000  Uiso   1.00
O515   O     0.09161   0.83334   0.19712   0.00000  Uiso   1.00
O516   O     0.24172   0.83333   0.13621   0.00000  Uiso   1.00
O517   O     0.09161   0.83333   0.11793   0.00000  Uiso   1.00
O518   O     0.24172   0.83334   0.21540   0.00000  Uiso   1.00
C519   C     0.49886   0.75404   0.16727   0.00000  Uiso   1.00
C520   C     0.48238   0.68442   0.20564   0.00000  Uiso   1.00
C521   C     0.49688   0.95716   0.16367   0.00000  Uiso   1.00
C522   C     0.49774   0.70927   0.16827   0.00000  Uiso   1.00
C523   C     0.46905   0.80491   0.02067   0.00000  Uiso   1.00
C524   C     0.53154   0.86110   0.31288   0.00000  Uiso   1.00
C525   C     0.46998   0.80550   0.30472   0.00000  Uiso   1.00
C526   C     0.53061   0.86079   0.02866   0.00000  Uiso   1.00
C527   C     0.65689   0.79383   0.11405   0.00000  Uiso   1.00
C528   C     0.64630   0.81344   0.06526   0.00000  Uiso   1.00
C529   C     0.34282   0.87426   0.21780   0.00000  Uiso   1.00
C530   C     0.49929   0.91256   0.16573   0.00000  Uiso   1.00
C531   C     0.35471   0.85645   0.26729   0.00000  Uiso   1.00
C532   C     0.51613   0.96568   0.07787   0.00000  Uiso   1.00
C533   C     0.46452   0.95220   0.04948   0.00000  Uiso   1.00
C534   C     0.46513   0.70056   0.24910   0.00000  Uiso   1.00
C535   C     0.51069   0.71018   0.28703   0.00000  Uiso   1.00
C536   C     0.43748   0.76963   0.04061   0.00000  Uiso   1.00
C537   C     0.38910   0.75371   0.00867   0.00000  Uiso   1.00
C538   C     0.57152   0.89101   0.29567   0.00000  Uiso   1.00
C539   C     0.56339   0.93549   0.30467   0.00000  Uiso   1.00
C540   C     0.40149   0.83282   0.15490   0.00000  Uiso   1.00
C541   C     0.59854   0.83387   0.17842   0.00000  Uiso   1.00
C542   C     0.34649   0.82563   0.15034   0.00000  Uiso   1.00
C543   C     0.65357   0.84125   0.18284   0.00000  Uiso   1.00
C544   C     0.51083   0.69084   0.12883   0.00000  Uiso   1.00
C545   C     0.48223   0.97548   0.20245   0.00000  Uiso   1.00
C546   C     0.50860   0.98195   0.12488   0.00000  Uiso   1.00
Cu547  Cu    0.50000   0.83334   0.21355   0.00000  Uiso   1.00
Cu548  Cu    0.50000   0.83333   0.11978   0.00000  Uiso   1.00
H549   H     0.34920   0.82326   0.05182   0.00000  Uiso   1.00
H550   H     0.64835   0.89799   0.21833   0.00000  Uiso   1.00
H551   H     0.52231   0.70959   0.10008   0.00000  Uiso   1.00
H552   H     0.46942   0.95651   0.23042   0.00000  Uiso   1.00
H553   H     0.47029   0.93488   0.01839   0.00000  Uiso   1.00
H554   H     0.44029   0.93236   0.07054   0.00000  Uiso   1.00
H555   H     0.44359   0.97954   0.03734   0.00000  Uiso   1.00
H556   H     0.53500   0.98962   0.05679   0.00000  Uiso   1.00
H557   H     0.54287   0.94116   0.08255   0.00000  Uiso   1.00
H558   H     0.53776   0.73440   0.27535   0.00000  Uiso   1.00
H559   H     0.49706   0.72042   0.31908   0.00000  Uiso   1.00
H560   H     0.62383   0.79123   0.04058   0.00000  Uiso   1.00
H561   H     0.53160   0.68242   0.29633   0.00000  Uiso   1.00
H562   H     0.44187   0.72705   0.24030   0.00000  Uiso   1.00
H563   H     0.43880   0.67732   0.26393   0.00000  Uiso   1.00
H564   H     0.36768   0.77934   0.32543   0.00000  Uiso   1.00
H565   H     0.39877   0.73381   0.31443   0.00000  Uiso   1.00
H566   H     0.36379   0.73479   0.02969   0.00000  Uiso   1.00
H567   H     0.46184   0.74368   0.04903   0.00000  Uiso   1.00
H568   H     0.42445   0.77817   0.07302   0.00000  Uiso   1.00
H569   H     0.58666   0.95598   0.28330   0.00000  Uiso   1.00
H570   H     0.52273   0.94144   0.29503   0.00000  Uiso   1.00
H571   H     0.62481   0.84092   0.06646   0.00000  Uiso   1.00
H572   H     0.57583   0.94283   0.00870   0.00000  Uiso   1.00
H573   H     0.60954   0.88424   0.31448   0.00000  Uiso   1.00
H574   H     0.57369   0.88888   0.25843   0.00000  Uiso   1.00
H575   H     0.44662   0.78375   0.28235   0.00000  Uiso   1.00
H576   H     0.55596   0.88177   0.05075   0.00000  Uiso   1.00
H577   H     0.35061   0.76964   0.11290   0.00000  Uiso   1.00
H578   H     0.62185   0.77691   0.12347   0.00000  Uiso   1.00
H579   H     0.65373   0.83993   0.27860   0.00000  Uiso   1.00
H580   H     0.38412   0.83433   0.26844   0.00000  Uiso   1.00
H581   H     0.36891   0.88130   0.29232   0.00000  Uiso   1.00
H582   H     0.37732   0.89132   0.20737   0.00000  Uiso   1.00
N583   N     0.50001   0.83334   0.28403   0.00000  Uiso   1.00
N584   N     0.49999   0.83332   0.04931   0.00000  Uiso   1.00
O585   O     0.50000   0.77322   0.20625   0.00000  Uiso   1.00
O586   O     0.50000   0.89345   0.12709   0.00000  Uiso   1.00
O587   O     0.50000   0.77321   0.12706   0.00000  Uiso   1.00
O588   O     0.50000   0.89346   0.20628   0.00000  Uiso   1.00
O589   O     0.42495   0.83334   0.19712   0.00000  Uiso   1.00
O590   O     0.57505   0.83333   0.13621   0.00000  Uiso   1.00
O591   O     0.42494   0.83333   0.11793   0.00000  Uiso   1.00
O592   O     0.57506   0.83334   0.21540   0.00000  Uiso   1.00
C593   C     0.83219   0.75404   0.16727   0.00000  Uiso   1.00
C594   C     0.81571   0.68442   0.20564   0.00000  Uiso   1.00
C595   C     0.83021   0.95716   0.16367   0.00000  Uiso   1.00
C596   C     0.83107   0.70927   0.16827   0.00000  Uiso   1.00
C597   C     0.80238   0.80491   0.02067   0.00000  Uiso   1.00
C598   C     0.86487   0.86110   0.31288   0.00000  Uiso   1.00
C599   C     0.80331   0.80550   0.30472   0.00000  Uiso   1.00
C600   C     0.86394   0.86079   0.02866   0.00000  Uiso   1.00
C601   C     0.99023   0.79383   0.11405   0.00000  Uiso   1.00
C602   C     0.97963   0.81344   0.06526   0.00000  Uiso   1.00
C603   C     0.67615   0.87426   0.21780   0.00000  Uiso   1.00
C604   C     0.83262   0.91256   0.16573   0.00000  Uiso   1.00
C605   C     0.68804   0.85645   0.26729   0.00000  Uiso   1.00
C606   C     0.84946   0.96568   0.07787   0.00000  Uiso   1.00
C607   C     0.79786   0.95220   0.04948   0.00000  Uiso   1.00
C608   C     0.79847   0.70056   0.24910   0.00000  Uiso   1.00
C609   C     0.84403   0.71018   0.28703   0.00000  Uiso   1.00
C610   C     0.77081   0.76963   0.04061   0.00000  Uiso   1.00
C611   C     0.72244   0.75371   0.00867   0.00000  Uiso   1.00
C612   C     0.90485   0.89101   0.29567   0.00000  Uiso   1.00
C613   C     0.89672   0.93549   0.30467   0.00000  Uiso   1.00
C614   C     0.73483   0.83282   0.15490   0.00000  Uiso   1.00
C615   C     0.93187   0.83387   0.17842   0.00000  Uiso   1.00
C616   C     0.67982   0.82563   0.15034   0.00000  Uiso   1.00
C617   C     0.98690   0.84125   0.18284   0.00000  Uiso   1.00
C618   C     0.84417   0.69084   0.12883   0.00000  Uiso   1.00
C619   C     0.81557   0.97548   0.20245   0.00000  Uiso   1.00
C620   C     0.84193   0.98195   0.12488   0.00000  Uiso   1.00
Cu621  Cu    0.83333   0.83334   0.21355   0.00000  Uiso   1.00
Cu622  Cu    0.83333   0.83333   0.11978   0.00000  Uiso   1.00
H623   H     0.68254   0.82326   0.05182   0.00000  Uiso   1.00
H624   H     0.98168   0.89799   0.21833   0.00000  Uiso   1.00
H625   H     0.85565   0.70959   0.10008   0.00000  Uiso   1.00
H626   H     0.80275   0.95651   0.23042   0.00000  Uiso   1.00
H627   H     0.80362   0.93488   0.01839   0.00000  Uiso   1.00
H628   H     0.77362   0.93236   0.07054   0.00000  Uiso   1.00
H629   H     0.77693   0.97954   0.03734   0.00000  Uiso   1.00
H630   H     0.86833   0.98962   0.05679   0.00000  Uiso   1.00
H631   H     0.87620   0.94116   0.08255   0.00000  Uiso   1.00
H632   H     0.87110   0.73440   0.27535   0.00000  Uiso   1.00
H633   H     0.83039   0.72042   0.31908   0.00000  Uiso   1.00
H634   H     0.95716   0.79123   0.04058   0.00000  Uiso   1.00
H635   H     0.86493   0.68242   0.29633   0.00000  Uiso   1.00
H636   H     0.77520   0.72705   0.24030   0.00000  Uiso   1.00
H637   H     0.77214   0.67732   0.26393   0.00000  Uiso   1.00
H638   H     0.70101   0.77934   0.32543   0.00000  Uiso   1.00
H639   H     0.73211   0.73381   0.31443   0.00000  Uiso   1.00
H640   H     0.69713   0.73479   0.02969   0.00000  Uiso   1.00
H641   H     0.79518   0.74368   0.04903   0.00000  Uiso   1.00
H642   H     0.75778   0.77817   0.07302   0.00000  Uiso   1.00
H643   H     0.91999   0.95598   0.28330   0.00000  Uiso   1.00
H644   H     0.85606   0.94144   0.29503   0.00000  Uiso   1.00
H645   H     0.95815   0.84092   0.06646   0.00000  Uiso   1.00
H646   H     0.90916   0.94283   0.00870   0.00000  Uiso   1.00
H647   H     0.94288   0.88424   0.31448   0.00000  Uiso   1.00
H648   H     0.90702   0.88888   0.25843   0.00000  Uiso   1.00
H649   H     0.77995   0.78375   0.28235   0.00000  Uiso   1.00
H650   H     0.88930   0.88177   0.05075   0.00000  Uiso   1.00
H651   H     0.68394   0.76964   0.11290   0.00000  Uiso   1.00
H652   H     0.95518   0.77691   0.12347   0.00000  Uiso   1.00
H653   H     0.98707   0.83993   0.27860   0.00000  Uiso   1.00
H654   H     0.71745   0.83433   0.26844   0.00000  Uiso   1.00
H655   H     0.70224   0.88130   0.29232   0.00000  Uiso   1.00
H656   H     0.71066   0.89132   0.20737   0.00000  Uiso   1.00
N657   N     0.83335   0.83334   0.28403   0.00000  Uiso   1.00
N658   N     0.83332   0.83332   0.04931   0.00000  Uiso   1.00
O659   O     0.83333   0.77322   0.20625   0.00000  Uiso   1.00
O660   O     0.83334   0.89345   0.12709   0.00000  Uiso   1.00
O661   O     0.83333   0.77321   0.12706   0.00000  Uiso   1.00
O662   O     0.83334   0.89346   0.20628   0.00000  Uiso   1.00
O663   O     0.75828   0.83334   0.19712   0.00000  Uiso   1.00
O664   O     0.90839   0.83333   0.13621   0.00000  Uiso   1.00
O665   O     0.75828   0.83333   0.11793   0.00000  Uiso   1.00
O666   O     0.90839   0.83334   0.21540   0.00000  Uiso   1.00
C667   C     0.16553   0.08737   0.50060   0.00000  Uiso   1.00
C668   C     0.14905   0.01776   0.53898   0.00000  Uiso   1.00
C669   C     0.16354   0.29050   0.49700   0.00000  Uiso   1.00
C670   C     0.16441   0.04261   0.50161   0.00000  Uiso   1.00
C671   C     0.13572   0.13825   0.35400   0.00000  Uiso   1.00
C672   C     0.19820   0.19443   0.64621   0.00000  Uiso   1.00
C673   C     0.13664   0.13884   0.63805   0.00000  Uiso   1.00
C674   C     0.19727   0.19412   0.36199   0.00000  Uiso   1.00
C675   C     0.32356   0.12716   0.44738   0.00000  Uiso   1.00
C676   C     0.31297   0.14677   0.39860   0.00000  Uiso   1.00
C677   C     0.00949   0.20760   0.55114   0.00000  Uiso   1.00
C678   C     0.16595   0.24590   0.49907   0.00000  Uiso   1.00
C679   C     0.02137   0.18978   0.60063   0.00000  Uiso   1.00
C680   C     0.18280   0.29901   0.41121   0.00000  Uiso   1.00
C681   C     0.13119   0.28553   0.38281   0.00000  Uiso   1.00
C682   C     0.13180   0.03389   0.58244   0.00000  Uiso   1.00
C683   C     0.17736   0.04352   0.62037   0.00000  Uiso   1.00
C684   C     0.10414   0.10297   0.37395   0.00000  Uiso   1.00
C685   C     0.05577   0.08704   0.34200   0.00000  Uiso   1.00
C686   C     0.23818   0.22434   0.62900   0.00000  Uiso   1.00
C687   C     0.23005   0.26882   0.63801   0.00000  Uiso   1.00
C688   C     0.06816   0.16615   0.48823   0.00000  Uiso   1.00
C689   C     0.26520   0.16720   0.51175   0.00000  Uiso   1.00
C690   C     0.01315   0.15896   0.48368   0.00000  Uiso   1.00
C691   C     0.32023   0.17459   0.51617   0.00000  Uiso   1.00
C692   C     0.17750   0.02417   0.46216   0.00000  Uiso   1.00
C693   C     0.14890   0.30882   0.53579   0.00000  Uiso   1.00
C694   C     0.17527   0.31528   0.45821   0.00000  Uiso   1.00
Cu695  Cu    0.16667   0.16667   0.54689   0.00000  Uiso   1.00
Cu696  Cu    0.16667   0.16666   0.45311   0.00000  Uiso   1.00
H697   H     0.01587   0.15659   0.38515   0.00000  Uiso   1.00
H698   H     0.31502   0.23133   0.55166   0.00000  Uiso   1.00
H699   H     0.18898   0.04293   0.43341   0.00000  Uiso   1.00
H700   H     0.13608   0.28984   0.56375   0.00000  Uiso   1.00
H701   H     0.13696   0.26821   0.35173   0.00000  Uiso   1.00
H702   H     0.10696   0.26570   0.40387   0.00000  Uiso   1.00
H703   H     0.11026   0.31287   0.37067   0.00000  Uiso   1.00
H704   H     0.20166   0.32295   0.39012   0.00000  Uiso   1.00
H705   H     0.20953   0.27450   0.41589   0.00000  Uiso   1.00
H706   H     0.20443   0.06774   0.60868   0.00000  Uiso   1.00
H707   H     0.16373   0.05375   0.65242   0.00000  Uiso   1.00
H708   H     0.29050   0.12456   0.37391   0.00000  Uiso   1.00
H709   H     0.19827   0.01576   0.62966   0.00000  Uiso   1.00
H710   H     0.10853   0.06038   0.57363   0.00000  Uiso   1.00
H711   H     0.10547   0.01065   0.59727   0.00000  Uiso   1.00
H712   H     0.03434   0.11267   0.65876   0.00000  Uiso   1.00
H713   H     0.06544   0.06714   0.64777   0.00000  Uiso   1.00
H714   H     0.03046   0.06812   0.36302   0.00000  Uiso   1.00
H715   H     0.12851   0.07702   0.38237   0.00000  Uiso   1.00
H716   H     0.09111   0.11150   0.40636   0.00000  Uiso   1.00
H717   H     0.25333   0.28931   0.61664   0.00000  Uiso   1.00
H718   H     0.18940   0.27477   0.62836   0.00000  Uiso   1.00
H719   H     0.29148   0.17425   0.39979   0.00000  Uiso   1.00
H720   H     0.24250   0.27617   0.34204   0.00000  Uiso   1.00
H721   H     0.27621   0.21758   0.64781   0.00000  Uiso   1.00
H722   H     0.24036   0.22221   0.59177   0.00000  Uiso   1.00
H723   H     0.11329   0.11708   0.61568   0.00000  Uiso   1.00
H724   H     0.22263   0.21510   0.38408   0.00000  Uiso   1.00
H725   H     0.01728   0.10297   0.44623   0.00000  Uiso   1.00
H726   H     0.28852   0.11025   0.45681   0.00000  Uiso   1.00
H727   H     0.32040   0.17326   0.61193   0.00000  Uiso   1.00
H728   H     0.05078   0.16767   0.60178   0.00000  Uiso   1.00
H729   H     0.03558   0.21464   0.62565   0.00000  Uiso   1.00
H730   H     0.04399   0.22465   0.54071   0.00000  Uiso   1.00
N731   N     0.16668   0.16668   0.61736   0.00000  Uiso   1.00
N732   N     0.16665   0.16666   0.38264   0.00000  Uiso   1.00
O733   O     0.16666   0.10655   0.53958   0.00000  Uiso   1.00
O734   O     0.16667   0.22678   0.46042   0.00000  Uiso   1.00
O735   O     0.16666   0.10654   0.46039   0.00000  Uiso   1.00
O736   O     0.16667   0.22679   0.53961   0.00000  Uiso   1.00
O737   O     0.09161   0.16667   0.53046   0.00000  Uiso   1.00
O738   O     0.24172   0.16666   0.46954   0.00000  Uiso   1.00
O739   O     0.09161   0.16666   0.45127   0.00000  Uiso   1.00
O740   O     0.24172   0.16667   0.54873   0.00000  Uiso   1.00
C741   C     0.49886   0.08737   0.50060   0.00000  Uiso   1.00
C742   C     0.48238   0.01776   0.53898   0.00000  Uiso   1.00
C743   C     0.49688   0.29050   0.49700   0.00000  Uiso   1.00
C744   C     0.49774   0.04261   0.50161   0.00000  Uiso   1.00
C745   C     0.46905   0.13825   0.35400   0.00000  Uiso   1.00
C746   C     0.53154   0.19443   0.64621   0.00000  Uiso   1.00
C747   C     0.46998   0.13884   0.63805   0.00000  Uiso   1.00
C748   C     0.53061   0.19412   0.36199   0.00000  Uiso   1.00
C749   C     0.65689   0.12716   0.44738   0.00000  Uiso   1.00
C750   C     0.64630   0.14677   0.39860   0.00000  Uiso   1.00
C751   C     0.34282   0.20760   0.55114   0.00000  Uiso   1.00
C752   C     0.49929   0.24590   0.49907   0.00000  Uiso   1.00
C753   C     0.35471   0.18978   0.60063   0.00000  Uiso   1.00
C754   C     0.51613   0.29901   0.41121   0.00000  Uiso   1.00
C755   C     0.46452   0.28553   0.38281   0.00000  Uiso   1.00
C756   C     0.46513   0.03389   0.58244   0.00000  Uiso   1.00
C757   C     0.51069   0.04352   0.62037   0.00000  Uiso   1.00
C758   C     0.43748   0.10297   0.37395   0.00000  Uiso   1.00
C759   C     0.38910   0.08704   0.34200   0.00000  Uiso   1.00
C760   C     0.57152   0.22434   0.62900   0.00000  Uiso   1.00
C761   C     0.56339   0.26882   0.63801   0.00000  Uiso   1.00
C762   C     0.40149   0.16615   0.48823   0.00000  Uiso   1.00
C763   C     0.59854   0.16720   0.51175   0.00000  Uiso   1.00
C764   C     0.34649   0.15896   0.48368   0.00000  Uiso   1.00
C765   C     0.65357   0.17459   0.51617   0.00000  Uiso   1.00
C766   C     0.51083   0.02417   0.46216   0.00000  Uiso   1.00
C767   C     0.48223   0.30882   0.53579   0.00000  Uiso   1.00
C768   C     0.50860   0.31528   0.45821   0.00000  Uiso   1.00
Cu769  Cu    0.50000   0.16667   0.54689   0.00000  Uiso   1.00
Cu770  Cu    0.50000   0.16666   0.45311   0.00000  Uiso   1.00
H771   H     0.34920   0.15659   0.38515   0.00000  Uiso   1.00
H772   H     0.64835   0.23133   0.55166   0.00000  Uiso   1.00
H773   H     0.52231   0.04293   0.43341   0.00000  Uiso   1.00
H774   H     0.46942   0.28984   0.56375   0.00000  Uiso   1.00
H775   H     0.47029   0.26821   0.35173   0.00000  Uiso   1.00
H776   H     0.44029   0.26570   0.40387   0.00000  Uiso   1.00
H777   H     0.44359   0.31287   0.37067   0.00000  Uiso   1.00
H778   H     0.53500   0.32295   0.39012   0.00000  Uiso   1.00
H779   H     0.54287   0.27450   0.41589   0.00000  Uiso   1.00
H780   H     0.53776   0.06774   0.60868   0.00000  Uiso   1.00
H781   H     0.49706   0.05375   0.65242   0.00000  Uiso   1.00
H782   H     0.62383   0.12456   0.37391   0.00000  Uiso   1.00
H783   H     0.53160   0.01576   0.62966   0.00000  Uiso   1.00
H784   H     0.44187   0.06038   0.57363   0.00000  Uiso   1.00
H785   H     0.43880   0.01065   0.59727   0.00000  Uiso   1.00
H786   H     0.36768   0.11267   0.65876   0.00000  Uiso   1.00
H787   H     0.39877   0.06714   0.64777   0.00000  Uiso   1.00
H788   H     0.36379   0.06812   0.36302   0.00000  Uiso   1.00
H789   H     0.46184   0.07702   0.38237   0.00000  Uiso   1.00
H790   H     0.42445   0.11150   0.40636   0.00000  Uiso   1.00
H791   H     0.58666   0.28931   0.61664   0.00000  Uiso   1.00
H792   H     0.52273   0.27477   0.62836   0.00000  Uiso   1.00
H793   H     0.62481   0.17425   0.39979   0.00000  Uiso   1.00
H794   H     0.57583   0.27617   0.34204   0.00000  Uiso   1.00
H795   H     0.60954   0.21758   0.64781   0.00000  Uiso   1.00
H796   H     0.57369   0.22221   0.59177   0.00000  Uiso   1.00
H797   H     0.44662   0.11708   0.61568   0.00000  Uiso   1.00
H798   H     0.55596   0.21510   0.38408   0.00000  Uiso   1.00
H799   H     0.35061   0.10297   0.44623   0.00000  Uiso   1.00
H800   H     0.62185   0.11025   0.45681   0.00000  Uiso   1.00
H801   H     0.65373   0.17326   0.61193   0.00000  Uiso   1.00
H802   H     0.38412   0.16767   0.60178   0.00000  Uiso   1.00
H803   H     0.36891   0.21464   0.62565   0.00000  Uiso   1.00
H804   H     0.37732   0.22465   0.54071   0.00000  Uiso   1.00
N805   N     0.50001   0.16668   0.61736   0.00000  Uiso   1.00
N806   N     0.49999   0.16666   0.38264   0.00000  Uiso   1.00
O807   O     0.50000   0.10655   0.53958   0.00000  Uiso   1.00
O808   O     0.50000   0.22678   0.46042   0.00000  Uiso   1.00
O809   O     0.50000   0.10654   0.46039   0.00000  Uiso   1.00
O810   O     0.50000   0.22679   0.53961   0.00000  Uiso   1.00
O811   O     0.42495   0.16667   0.53046   0.00000  Uiso   1.00
O812   O     0.57505   0.16666   0.46954   0.00000  Uiso   1.00
O813   O     0.42494   0.16666   0.45127   0.00000  Uiso   1.00
O814   O     0.57506   0.16667   0.54873   0.00000  Uiso   1.00
C815   C     0.83219   0.08737   0.50060   0.00000  Uiso   1.00
C816   C     0.81571   0.01776   0.53898   0.00000  Uiso   1.00
C817   C     0.83021   0.29050   0.49700   0.00000  Uiso   1.00
C818   C     0.83107   0.04261   0.50161   0.00000  Uiso   1.00
C819   C     0.80238   0.13825   0.35400   0.00000  Uiso   1.00
C820   C     0.86487   0.19443   0.64621   0.00000  Uiso   1.00
C821   C     0.80331   0.13884   0.63805   0.00000  Uiso   1.00
C822   C     0.86394   0.19412   0.36199   0.00000  Uiso   1.00
C823   C     0.99023   0.12716   0.44738   0.00000  Uiso   1.00
C824   C     0.97963   0.14677   0.39860   0.00000  Uiso   1.00
C825   C     0.67615   0.20760   0.55114   0.00000  Uiso   1.00
C826   C     0.83262   0.24590   0.49907   0.00000  Uiso   1.00
C827   C     0.68804   0.18978   0.60063   0.00000  Uiso   1.00
C828   C     0.84946   0.29901   0.41121   0.00000  Uiso   1.00
C829   C     0.79786   0.28553   0.38281   0.00000  Uiso   1.00
C830   C     0.79847   0.03389   0.58244   0.00000  Uiso   1.00
C831   C     0.84403   0.04352   0.62037   0.00000  Uiso   1.00
C832   C     0.77081   0.10297   0.37395   0.00000  Uiso   1.00
C833   C     0.72244   0.08704   0.34200   0.00000  Uiso   1.00
C834   C     0.90485   0.22434   0.62900   0.00000  Uiso   1.00
C835   C     0.89672   0.26882   0.63801   0.00000  Uiso   1.00
C836   C     0.73483   0.16615   0.48823   0.00000  Uiso   1.00
C837   C     0.93187   0.16720   0.51175   0.00000  Uiso   1.00
C838   C     0.67982   0.15896   0.48368   0.00000  Uiso   1.00
C839   C     0.98690   0.17459   0.51617   0.00000  Uiso   1.00
C840   C     0.84417   0.02417   0.46216   0.00000  Uiso   1.00
C841   C     0.81557   0.30882   0.53579   0.00000  Uiso   1.00
C842   C     0.84193   0.31528   0.45821   0.00000  Uiso   1.00
Cu843  Cu    0.83333   0.16667   0.54689   0.00000  Uiso   1.00
Cu844  Cu    0.83333   0.16666   0.45311   0.00000  Uiso   1.00
H845   H     0.68254   0.15659   0.38515   0.00000  Uiso   1.00
H846   H     0.98168   0.23133   0.55166   0.00000  Uiso   1.00
H847   H     0.85565   0.04293   0.43341   0.00000  Uiso   1.00
H848   H     0.80275   0.28984   0.56375   0.00000  Uiso   1.00
H849   H     0.80362   0.26821   0.35173   0.00000  Uiso   1.00
H850   H     0.77362   0.26570   0.40387   0.00000  Uiso   1.00
H851   H     0.77693   0.31287   0.37067   0.00000  Uiso   1.00
H852   H     0.86833   0.32295   0.39012   0.00000  Uiso   1.00
H853   H     0.87620   0.27450   0.41589   0.00000  Uiso   1.00
H854   H     0.87110   0.06774   0.60868   0.00000  Uiso   1.00
H855   H     0.83039   0.05375   0.65242   0.00000  Uiso   1.00
H856   H     0.95716   0.12456   0.37391   0.00000  Uiso   1.00
H857   H     0.86493   0.01576   0.62966   0.00000  Uiso   1.00
H858   H     0.77520   0.06038   0.57363   0.00000  Uiso   1.00
H859   H     0.77214   0.01065   0.59727   0.00000  Uiso   1.00
H860   H     0.70101   0.11267   0.65876   0.00000  Uiso   1.00
H861   H     0.73211   0.06714   0.64777   0.00000  Uiso   1.00
H862   H     0.69713   0.06812   0.36302   0.00000  Uiso   1.00
H863   H     0.79518   0.07702   0.38237   0.00000  Uiso   1.00
H864   H     0.75778   0.11150   0.40636   0.00000  Uiso   1.00
H865   H     0.91999   0.28931   0.61664   0.00000  Uiso   1.00
H866   H     0.85606   0.27477   0.62836   0.00000  Uiso   1.00
H867   H     0.95815   0.17425   0.39979   0.00000  Uiso   1.00
H868   H     0.90916   0.27617   0.34204   0.00000  Uiso   1.00
H869   H     0.94288   0.21758   0.64781   0.00000  Uiso   1.00
H870   H     0.90702   0.22221   0.59177   0.00000  Uiso   1.00
H871   H     0.77995   0.11708   0.61568   0.00000  Uiso   1.00
H872   H     0.88930   0.21510   0.38408   0.00000  Uiso   1.00
H873   H     0.68394   0.10297   0.44623   0.00000  Uiso   1.00
H874   H     0.95518   0.11025   0.45681   0.00000  Uiso   1.00
H875   H     0.98707   0.17326   0.61193   0.00000  Uiso   1.00
H876   H     0.71745   0.16767   0.60178   0.00000  Uiso   1.00
H877   H     0.70224   0.21464   0.62565   0.00000  Uiso   1.00
H878   H     0.71066   0.22465   0.54071   0.00000  Uiso   1.00
N879   N     0.83335   0.16668   0.61736   0.00000  Uiso   1.00
N880   N     0.83332   0.16666   0.38264   0.00000  Uiso   1.00
O881   O     0.83333   0.10655   0.53958   0.00000  Uiso   1.00
O882   O     0.83334   0.22678   0.46042   0.00000  Uiso   1.00
O883   O     0.83333   0.10654   0.46039   0.00000  Uiso   1.00
O884   O     0.83334   0.22679   0.53961   0.00000  Uiso   1.00
O885   O     0.75828   0.16667   0.53046   0.00000  Uiso   1.00
O886   O     0.90839   0.16666   0.46954   0.00000  Uiso   1.00
O887   O     0.75828   0.16666   0.45127   0.00000  Uiso   1.00
O888   O     0.90839   0.16667   0.54873   0.00000  Uiso   1.00
C889   C     0.16553   0.42071   0.50060   0.00000  Uiso   1.00
C890   C     0.14905   0.35109   0.53898   0.00000  Uiso   1.00
C891   C     0.16354   0.62383   0.49700   0.00000  Uiso   1.00
C892   C     0.16441   0.37594   0.50161   0.00000  Uiso   1.00
C893   C     0.13572   0.47158   0.35400   0.00000  Uiso   1.00
C894   C     0.19820   0.52777   0.64621   0.00000  Uiso   1.00
C895   C     0.13664   0.47217   0.63805   0.00000  Uiso   1.00
C896   C     0.19727   0.52745   0.36199   0.00000  Uiso   1.00
C897   C     0.32356   0.46050   0.44738   0.00000  Uiso   1.00
C898   C     0.31297   0.48010   0.39860   0.00000  Uiso   1.00
C899   C     0.00949   0.54093   0.55114   0.00000  Uiso   1.00
C900   C     0.16595   0.57923   0.49907   0.00000  Uiso   1.00
C901   C     0.02137   0.52311   0.60063   0.00000  Uiso   1.00
C902   C     0.18280   0.63235   0.41121   0.00000  Uiso   1.00
C903   C     0.13119   0.61887   0.38281   0.00000  Uiso   1.00
C904   C     0.13180   0.36723   0.58244   0.00000  Uiso   1.00
C905   C     0.17736   0.37685   0.62037   0.00000  Uiso   1.00
C906   C     0.10414   0.43630   0.37395   0.00000  Uiso   1.00
C907   C     0.05577   0.42038   0.34200   0.00000  Uiso   1.00
C908   C     0.23818   0.55767   0.62900   0.00000  Uiso   1.00
C909   C     0.23005   0.60215   0.63801   0.00000  Uiso   1.00
C910   C     0.06816   0.49949   0.48823   0.00000  Uiso   1.00
C911   C     0.26520   0.50053   0.51175   0.00000  Uiso   1.00
C912   C     0.01315   0.49229   0.48368   0.00000  Uiso   1.00
C913   C     0.32023   0.50792   0.51617   0.00000  Uiso   1.00
C914   C     0.17750   0.35751   0.46216   0.00000  Uiso   1.00
C915   C     0.14890   0.64215   0.53579   0.00000  Uiso   1.00
C916   C     0.17527   0.64862   0.45821   0.00000  Uiso   1.00
Cu917  Cu    0.16667   0.50001   0.54689   0.00000  Uiso   1.00
Cu918  Cu    0.16667   0.49999   0.45311   0.00000  Uiso   1.00
H919   H     0.01587   0.48992   0.38515   0.00000  Uiso   1.00
H920   H     0.31502   0.56466   0.55166   0.00000  Uiso   1.00
H921   H     0.18898   0.37626   0.43341   0.00000  Uiso   1.00
H922   H     0.13608   0.62318   0.56375   0.00000  Uiso   1.00
H923   H     0.13696   0.60155   0.35173   0.00000  Uiso   1.00
H924   H     0.10696   0.59903   0.40387   0.00000  Uiso   1.00
H925   H     0.11026   0.64620   0.37067   0.00000  Uiso   1.00
H926   H     0.20166   0.65629   0.39012   0.00000  Uiso   1.00
H927   H     0.20953   0.60783   0.41589   0.00000  Uiso   1.00
H928   H     0.20443   0.40107   0.60868   0.00000  Uiso   1.00
H929   H     0.16373   0.38709   0.65242   0.00000  Uiso   1.00
H930   H     0.29050   0.45790   0.37391   0.00000  Uiso   1.00
H931   H     0.19827   0.34909   0.62966   0.00000  Uiso   1.00
H932   H     0.10853   0.39371   0.57363   0.00000  Uiso   1.00
H933   H     0.10547   0.34398   0.59727   0.00000  Uiso   1.00
H934   H     0.03434   0.44600   0.65876   0.00000  Uiso   1.00
H935   H     0.06544   0.40047   0.64777   0.00000  Uiso   1.00
H936   H     0.03046   0.40146   0.36302   0.00000  Uiso   1.00
H937   H     0.12851   0.41035   0.38237   0.00000  Uiso   1.00
H938   H     0.09111   0.44484   0.40636   0.00000  Uiso   1.00
H939   H     0.25333   0.62265   0.61664   0.00000  Uiso   1.00
H940   H     0.18940   0.60811   0.62836   0.00000  Uiso   1.00
H941   H     0.29148   0.50758   0.39979   0.00000  Uiso   1.00
H942   H     0.24250   0.60950   0.34204   0.00000  Uiso   1.00
H943   H     0.27621   0.55091   0.64781   0.00000  Uiso   1.00
H944   H     0.24036   0.55555   0.59177   0.00000  Uiso   1.00
H945   H     0.11329   0.45042   0.61568   0.00000  Uiso   1.00
H946   H     0.22263   0.54843   0.38408   0.00000  Uiso   1.00
H947   H     0.01728   0.43630   0.44623   0.00000  Uiso   1.00
H948   H     0.28852   0.44358   0.45681   0.00000  Uiso   1.00
H949   H     0.32040   0.50659   0.61193   0.00000  Uiso   1.00
H950   H     0.05078   0.50100   0.60178   0.00000  Uiso   1.00
H951   H     0.03558   0.54797   0.62565   0.00000  Uiso   1.00
H952   H     0.04399   0.55799   0.54071   0.00000  Uiso   1.00
N953   N     0.16668   0.50001   0.61736   0.00000  Uiso   1.00
N954   N     0.16665   0.49999   0.38264   0.00000  Uiso   1.00
O955   O     0.16666   0.43989   0.53958   0.00000  Uiso   1.00
O956   O     0.16667   0.56011   0.46042   0.00000  Uiso   1.00
O957   O     0.16666   0.43988   0.46039   0.00000  Uiso   1.00
O958   O     0.16667   0.56012   0.53961   0.00000  Uiso   1.00
O959   O     0.09161   0.50000   0.53046   0.00000  Uiso   1.00
O960   O     0.24172   0.50000   0.46954   0.00000  Uiso   1.00
O961   O     0.09161   0.49999   0.45127   0.00000  Uiso   1.00
O962   O     0.24172   0.50001   0.54873   0.00000  Uiso   1.00
C963   C     0.49886   0.42071   0.50060   0.00000  Uiso   1.00
C964   C     0.48238   0.35109   0.53898   0.00000  Uiso   1.00
C965   C     0.49688   0.62383   0.49700   0.00000  Uiso   1.00
C966   C     0.49774   0.37594   0.50161   0.00000  Uiso   1.00
C967   C     0.46905   0.47158   0.35400   0.00000  Uiso   1.00
C968   C     0.53154   0.52777   0.64621   0.00000  Uiso   1.00
C969   C     0.46998   0.47217   0.63805   0.00000  Uiso   1.00
C970   C     0.53061   0.52745   0.36199   0.00000  Uiso   1.00
C971   C     0.65689   0.46050   0.44738   0.00000  Uiso   1.00
C972   C     0.64630   0.48010   0.39860   0.00000  Uiso   1.00
C973   C     0.34282   0.54093   0.55114   0.00000  Uiso   1.00
C974   C     0.49929   0.57923   0.49907   0.00000  Uiso   1.00
C975   C     0.35471   0.52311   0.60063   0.00000  Uiso   1.00
C976   C     0.51613   0.63235   0.41121   0.00000  Uiso   1.00
C977   C     0.46452   0.61887   0.38281   0.00000  Uiso   1.00
C978   C     0.46513   0.36723   0.58244   0.00000  Uiso   1.00
C979   C     0.51069   0.37685   0.62037   0.00000  Uiso   1.00
C980   C     0.43748   0.43630   0.37395   0.00000  Uiso   1.00
C981   C     0.38910   0.42038   0.34200   0.00000  Uiso   1.00
C982   C     0.57152   0.55767   0.62900   0.00000  Uiso   1.00
C983   C     0.56339   0.60215   0.63801   0.00000  Uiso   1.00
C984   C     0.40149   0.49949   0.48823   0.00000  Uiso   1.00
C985   C     0.59854   0.50053   0.51175   0.00000  Uiso   1.00
C986   C     0.34649   0.49229   0.48368   0.00000  Uiso   1.00
C987   C     0.65357   0.50792   0.51617   0.00000  Uiso   1.00
C988   C     0.51083   0.35751   0.46216   0.00000  Uiso   1.00
C989   C     0.48223   0.64215   0.53579   0.00000  Uiso   1.00
C990   C     0.50860   0.64862   0.45821   0.00000  Uiso   1.00
Cu991  Cu    0.50000   0.50001   0.54689   0.00000  Uiso   1.00
Cu992  Cu    0.50000   0.49999   0.45311   0.00000  Uiso   1.00
H993   H     0.34920   0.48992   0.38515   0.00000  Uiso   1.00
H994   H     0.64835   0.56466   0.55166   0.00000  Uiso   1.00
H995   H     0.52231   0.37626   0.43341   0.00000  Uiso   1.00
H996   H     0.46942   0.62318   0.56375   0.00000  Uiso   1.00
H997   H     0.47029   0.60155   0.35173   0.00000  Uiso   1.00
H998   H     0.44029   0.59903   0.40387   0.00000  Uiso   1.00
H999   H     0.44359   0.64620   0.37067   0.00000  Uiso   1.00
H1000  H     0.53500   0.65629   0.39012   0.00000  Uiso   1.00
H1001  H     0.54287   0.60783   0.41589   0.00000  Uiso   1.00
H1002  H     0.53776   0.40107   0.60868   0.00000  Uiso   1.00
H1003  H     0.49706   0.38709   0.65242   0.00000  Uiso   1.00
H1004  H     0.62383   0.45790   0.37391   0.00000  Uiso   1.00
H1005  H     0.53160   0.34909   0.62966   0.00000  Uiso   1.00
H1006  H     0.44187   0.39371   0.57363   0.00000  Uiso   1.00
H1007  H     0.43880   0.34398   0.59727   0.00000  Uiso   1.00
H1008  H     0.36768   0.44600   0.65876   0.00000  Uiso   1.00
H1009  H     0.39877   0.40047   0.64777   0.00000  Uiso   1.00
H1010  H     0.36379   0.40146   0.36302   0.00000  Uiso   1.00
H1011  H     0.46184   0.41035   0.38237   0.00000  Uiso   1.00
H1012  H     0.42445   0.44484   0.40636   0.00000  Uiso   1.00
H1013  H     0.58666   0.62265   0.61664   0.00000  Uiso   1.00
H1014  H     0.52273   0.60811   0.62836   0.00000  Uiso   1.00
H1015  H     0.62481   0.50758   0.39979   0.00000  Uiso   1.00
H1016  H     0.57583   0.60950   0.34204   0.00000  Uiso   1.00
H1017  H     0.60954   0.55091   0.64781   0.00000  Uiso   1.00
H1018  H     0.57369   0.55555   0.59177   0.00000  Uiso   1.00
H1019  H     0.44662   0.45042   0.61568   0.00000  Uiso   1.00
H1020  H     0.55596   0.54843   0.38408   0.00000  Uiso   1.00
H1021  H     0.35061   0.43630   0.44623   0.00000  Uiso   1.00
H1022  H     0.62185   0.44358   0.45681   0.00000  Uiso   1.00
H1023  H     0.65373   0.50659   0.61193   0.00000  Uiso   1.00
H1024  H     0.38412   0.50100   0.60178   0.00000  Uiso   1.00
H1025  H     0.36891   0.54797   0.62565   0.00000  Uiso   1.00
H1026  H     0.37732   0.55799   0.54071   0.00000  Uiso   1.00
N1027  N     0.50001   0.50001   0.61736   0.00000  Uiso   1.00
N1028  N     0.49999   0.49999   0.38264   0.00000  Uiso   1.00
O1029  O     0.50000   0.43989   0.53958   0.00000  Uiso   1.00
O1030  O     0.50000   0.56011   0.46042   0.00000  Uiso   1.00
O1031  O     0.50000   0.43988   0.46039   0.00000  Uiso   1.00
O1032  O     0.50000   0.56012   0.53961   0.00000  Uiso   1.00
O1033  O     0.42495   0.50000   0.53046   0.00000  Uiso   1.00
O1034  O     0.57505   0.50000   0.46954   0.00000  Uiso   1.00
O1035  O     0.42494   0.49999   0.45127   0.00000  Uiso   1.00
O1036  O     0.57506   0.50001   0.54873   0.00000  Uiso   1.00
C1037  C     0.83219   0.42071   0.50060   0.00000  Uiso   1.00
C1038  C     0.81571   0.35109   0.53898   0.00000  Uiso   1.00
C1039  C     0.83021   0.62383   0.49700   0.00000  Uiso   1.00
C1040  C     0.83107   0.37594   0.50161   0.00000  Uiso   1.00
C1041  C     0.80238   0.47158   0.35400   0.00000  Uiso   1.00
C1042  C     0.86487   0.52777   0.64621   0.00000  Uiso   1.00
C1043  C     0.80331   0.47217   0.63805   0.00000  Uiso   1.00
C1044  C     0.86394   0.52745   0.36199   0.00000  Uiso   1.00
C1045  C     0.99023   0.46050   0.44738   0.00000  Uiso   1.00
C1046  C     0.97963   0.48010   0.39860   0.00000  Uiso   1.00
C1047  C     0.67615   0.54093   0.55114   0.00000  Uiso   1.00
C1048  C     0.83262   0.57923   0.49907   0.00000  Uiso   1.00
C1049  C     0.68804   0.52311   0.60063   0.00000  Uiso   1.00
C1050  C     0.84946   0.63235   0.41121   0.00000  Uiso   1.00
C1051  C     0.79786   0.61887   0.38281   0.00000  Uiso   1.00
C1052  C     0.79847   0.36723   0.58244   0.00000  Uiso   1.00
C1053  C     0.84403   0.37685   0.62037   0.00000  Uiso   1.00
C1054  C     0.77081   0.43630   0.37395   0.00000  Uiso   1.00
C1055  C     0.72244   0.42038   0.34200   0.00000  Uiso   1.00
C1056  C     0.90485   0.55767   0.62900   0.00000  Uiso   1.00
C1057  C     0.89672   0.60215   0.63801   0.00000  Uiso   1.00
C1058  C     0.73483   0.49949   0.48823   0.00000  Uiso   1.00
C1059  C     0.93187   0.50053   0.51175   0.00000  Uiso   1.00
C1060  C     0.67982   0.49229   0.48368   0.00000  Uiso   1.00
C1061  C     0.98690   0.50792   0.51617   0.00000  Uiso   1.00
C1062  C     0.84417   0.35751   0.46216   0.00000  Uiso   1.00
C1063  C     0.81557   0.64215   0.53579   0.00000  Uiso   1.00
C1064  C     0.84193   0.64862   0.45821   0.00000  Uiso   1.00
Cu1065 Cu    0.83333   0.50001   0.54689   0.00000  Uiso   1.00
Cu1066 Cu    0.83333   0.49999   0.45311   0.00000  Uiso   1.00
H1067  H     0.68254   0.48992   0.38515   0.00000  Uiso   1.00
H1068  H     0.98168   0.56466   0.55166   0.00000  Uiso   1.00
H1069  H     0.85565   0.37626   0.43341   0.00000  Uiso   1.00
H1070  H     0.80275   0.62318   0.56375   0.00000  Uiso   1.00
H1071  H     0.80362   0.60155   0.35173   0.00000  Uiso   1.00
H1072  H     0.77362   0.59903   0.40387   0.00000  Uiso   1.00
H1073  H     0.77693   0.64620   0.37067   0.00000  Uiso   1.00
H1074  H     0.86833   0.65629   0.39012   0.00000  Uiso   1.00
H1075  H     0.87620   0.60783   0.41589   0.00000  Uiso   1.00
H1076  H     0.87110   0.40107   0.60868   0.00000  Uiso   1.00
H1077  H     0.83039   0.38709   0.65242   0.00000  Uiso   1.00
H1078  H     0.95716   0.45790   0.37391   0.00000  Uiso   1.00
H1079  H     0.86493   0.34909   0.62966   0.00000  Uiso   1.00
H1080  H     0.77520   0.39371   0.57363   0.00000  Uiso   1.00
H1081  H     0.77214   0.34398   0.59727   0.00000  Uiso   1.00
H1082  H     0.70101   0.44600   0.65876   0.00000  Uiso   1.00
H1083  H     0.73211   0.40047   0.64777   0.00000  Uiso   1.00
H1084  H     0.69713   0.40146   0.36302   0.00000  Uiso   1.00
H1085  H     0.79518   0.41035   0.38237   0.00000  Uiso   1.00
H1086  H     0.75778   0.44484   0.40636   0.00000  Uiso   1.00
H1087  H     0.91999   0.62265   0.61664   0.00000  Uiso   1.00
H1088  H     0.85606   0.60811   0.62836   0.00000  Uiso   1.00
H1089  H     0.95815   0.50758   0.39979   0.00000  Uiso   1.00
H1090  H     0.90916   0.60950   0.34204   0.00000  Uiso   1.00
H1091  H     0.94288   0.55091   0.64781   0.00000  Uiso   1.00
H1092  H     0.90702   0.55555   0.59177   0.00000  Uiso   1.00
H1093  H     0.77995   0.45042   0.61568   0.00000  Uiso   1.00
H1094  H     0.88930   0.54843   0.38408   0.00000  Uiso   1.00
H1095  H     0.68394   0.43630   0.44623   0.00000  Uiso   1.00
H1096  H     0.95518   0.44358   0.45681   0.00000  Uiso   1.00
H1097  H     0.98707   0.50659   0.61193   0.00000  Uiso   1.00
H1098  H     0.71745   0.50100   0.60178   0.00000  Uiso   1.00
H1099  H     0.70224   0.54797   0.62565   0.00000  Uiso   1.00
H1100  H     0.71066   0.55799   0.54071   0.00000  Uiso   1.00
N1101  N     0.83335   0.50001   0.61736   0.00000  Uiso   1.00
N1102  N     0.83332   0.49999   0.38264   0.00000  Uiso   1.00
O1103  O     0.83333   0.43989   0.53958   0.00000  Uiso   1.00
O1104  O     0.83334   0.56011   0.46042   0.00000  Uiso   1.00
O1105  O     0.83333   0.43988   0.46039   0.00000  Uiso   1.00
O1106  O     0.83334   0.56012   0.53961   0.00000  Uiso   1.00
O1107  O     0.75828   0.50000   0.53046   0.00000  Uiso   1.00
O1108  O     0.90839   0.50000   0.46954   0.00000  Uiso   1.00
O1109  O     0.75828   0.49999   0.45127   0.00000  Uiso   1.00
O1110  O     0.90839   0.50001   0.54873   0.00000  Uiso   1.00
C1111  C     0.16553   0.75404   0.50060   0.00000  Uiso   1.00
C1112  C     0.14905   0.68442   0.53898   0.00000  Uiso   1.00
C1113  C     0.16354   0.95716   0.49700   0.00000  Uiso   1.00
C1114  C     0.16441   0.70927   0.50161   0.00000  Uiso   1.00
C1115  C     0.13572   0.80491   0.35400   0.00000  Uiso   1.00
C1116  C     0.19820   0.86110   0.64621   0.00000  Uiso   1.00
C1117  C     0.13664   0.80550   0.63805   0.00000  Uiso   1.00
C1118  C     0.19727   0.86079   0.36199   0.00000  Uiso   1.00
C1119  C     0.32356   0.79383   0.44738   0.00000  Uiso   1.00
C1120  C     0.31297   0.81344   0.39860   0.00000  Uiso   1.00
C1121  C     0.00949   0.87426   0.55114   0.00000  Uiso   1.00
C1122  C     0.16595   0.91256   0.49907   0.00000  Uiso   1.00
C1123  C     0.02137   0.85645   0.60063   0.00000  Uiso   1.00
C1124  C     0.18280   0.96568   0.41121   0.00000  Uiso   1.00
C1125  C     0.13119   0.95220   0.38281   0.00000  Uiso   1.00
C1126  C     0.13180   0.70056   0.58244   0.00000  Uiso   1.00
C1127  C     0.17736   0.71018   0.62037   0.00000  Uiso   1.00
C1128  C     0.10414   0.76963   0.37395   0.00000  Uiso   1.00
C1129  C     0.05577   0.75371   0.34200   0.00000  Uiso   1.00
C1130  C     0.23818   0.89101   0.62900   0.00000  Uiso   1.00
C1131  C     0.23005   0.93549   0.63801   0.00000  Uiso   1.00
C1132  C     0.06816   0.83282   0.48823   0.00000  Uiso   1.00
C1133  C     0.26520   0.83387   0.51175   0.00000  Uiso   1.00
C1134  C     0.01315   0.82563   0.48368   0.00000  Uiso   1.00
C1135  C     0.32023   0.84125   0.51617   0.00000  Uiso   1.00
C1136  C     0.17750   0.69084   0.46216   0.00000  Uiso   1.00
C1137  C     0.14890   0.97548   0.53579   0.00000  Uiso   1.00
C1138  C     0.17527   0.98195   0.45821   0.00000  Uiso   1.00
Cu1139 Cu    0.16667   0.83334   0.54689   0.00000  Uiso   1.00
Cu1140 Cu    0.16667   0.83333   0.45311   0.00000  Uiso   1.00
H1141  H     0.01587   0.82326   0.38515   0.00000  Uiso   1.00
H1142  H     0.31502   0.89799   0.55166   0.00000  Uiso   1.00
H1143  H     0.18898   0.70959   0.43341   0.00000  Uiso   1.00
H1144  H     0.13608   0.95651   0.56375   0.00000  Uiso   1.00
H1145  H     0.13696   0.93488   0.35173   0.00000  Uiso   1.00
H1146  H     0.10696   0.93236   0.40387   0.00000  Uiso   1.00
H1147  H     0.11026   0.97954   0.37067   0.00000  Uiso   1.00
H1148  H     0.20166   0.98962   0.39012   0.00000  Uiso   1.00
H1149  H     0.20953   0.94116   0.41589   0.00000  Uiso   1.00
H1150  H     0.20443   0.73440   0.60868   0.00000  Uiso   1.00
H1151  H     0.16373   0.72042   0.65242   0.00000  Uiso   1.00
H1152  H     0.29050   0.79123   0.37391   0.00000  Uiso   1.00
H1153  H     0.19827   0.68242   0.62966   0.00000  Uiso   1.00
H1154  H     0.10853   0.72705   0.57363   0.00000  Uiso   1.00
H1155  H     0.10547   0.67732   0.59727   0.00000  Uiso   1.00
H1156  H     0.03434   0.77934   0.65876   0.00000  Uiso   1.00
H1157  H     0.06544   0.73381   0.64777   0.00000  Uiso   1.00
H1158  H     0.03046   0.73479   0.36302   0.00000  Uiso   1.00
H1159  H     0.12851   0.74368   0.38237   0.00000  Uiso   1.00
H1160  H     0.09111   0.77817   0.40636   0.00000  Uiso   1.00
H1161  H     0.25333   0.95598   0.61664   0.00000  Uiso   1.00
H1162  H     0.18940   0.94144   0.62836   0.00000  Uiso   1.00
H1163  H     0.29148   0.84092   0.39979   0.00000  Uiso   1.00
H1164  H     0.24250   0.94283   0.34204   0.00000  Uiso   1.00
H1165  H     0.27621   0.88424   0.64781   0.00000  Uiso   1.00
H1166  H     0.24036   0.88888   0.59177   0.00000  Uiso   1.00
H1167  H     0.11329   0.78375   0.61568   0.00000  Uiso   1.00
H1168  H     0.22263   0.88177   0.38408   0.00000  Uiso   1.00
H1169  H     0.01728   0.76964   0.44623   0.00000  Uiso   1.00
H1170  H     0.28852   0.77691   0.45681   0.00000  Uiso   1.00
H1171  H     0.32040   0.83993   0.61193   0.00000  Uiso   1.00
H1172  H     0.05078   0.83433   0.60178   0.00000  Uiso   1.00
H1173  H     0.03558   0.88130   0.62565   0.00000  Uiso   1.00
H1174  H     0.04399   0.89132   0.54071   0.00000  Uiso   1.00
N1175  N     0.16668   0.83334   0.61736   0.00000  Uiso   1.00
N1176  N     0.16665   0.83332   0.38264   0.00000  Uiso   1.00
O1177  O     0.16666   0.77322   0.53958   0.00000  Uiso   1.00
O1178  O     0.16667   0.89345   0.46042   0.00000  Uiso   1.00
O1179  O     0.16666   0.77321   0.46039   0.00000  Uiso   1.00
O1180  O     0.16667   0.89346   0.53961   0.00000  Uiso   1.00
O1181  O     0.09161   0.83334   0.53046   0.00000  Uiso   1.00
O1182  O     0.24172   0.83333   0.46954   0.00000  Uiso   1.00
O1183  O     0.09161   0.83333   0.45127   0.00000  Uiso   1.00
O1184  O     0.24172   0.83334   0.54873   0.00000  Uiso   1.00
C1185  C     0.49886   0.75404   0.50060   0.00000  Uiso   1.00
C1186  C     0.48238   0.68442   0.53898   0.00000  Uiso   1.00
C1187  C     0.49688   0.95716   0.49700   0.00000  Uiso   1.00
C1188  C     0.49774   0.70927   0.50161   0.00000  Uiso   1.00
C1189  C     0.46905   0.80491   0.35400   0.00000  Uiso   1.00
C1190  C     0.53154   0.86110   0.64621   0.00000  Uiso   1.00
C1191  C     0.46998   0.80550   0.63805   0.00000  Uiso   1.00
C1192  C     0.53061   0.86079   0.36199   0.00000  Uiso   1.00
C1193  C     0.65689   0.79383   0.44738   0.00000  Uiso   1.00
C1194  C     0.64630   0.81344   0.39860   0.00000  Uiso   1.00
C1195  C     0.34282   0.87426   0.55114   0.00000  Uiso   1.00
C1196  C     0.49929   0.91256   0.49907   0.00000  Uiso   1.00
C1197  C     0.35471   0.85645   0.60063   0.00000  Uiso   1.00
C1198  C     0.51613   0.96568   0.41121   0.00000  Uiso   1.00
C1199  C     0.46452   0.95220   0.38281   0.00000  Uiso   1.00
C1200  C     0.46513   0.70056   0.58244   0.00000  Uiso   1.00
C1201  C     0.51069   0.71018   0.62037   0.00000  Uiso   1.00
C1202  C     0.43748   0.76963   0.37395   0.00000  Uiso   1.00
C1203  C     0.38910   0.75371   0.34200   0.00000  Uiso   1.00
C1204  C     0.57152   0.89101   0.62900   0.00000  Uiso   1.00
C1205  C     0.56339   0.93549   0.63801   0.00000  Uiso   1.00
C1206  C     0.40149   0.83282   0.48823   0.00000  Uiso   1.00
C1207  C     0.59854   0.83387   0.51175   0.00000  Uiso   1.00
C1208  C     0.34649   0.82563   0.48368   0.00000  Uiso   1.00
C1209  C     0.65357   0.84125   0.51617   0.00000  Uiso   1.00
C1210  C     0.51083   0.69084   0.46216   0.00000  Uiso   1.00
C1211  C     0.48223   0.97548   0.53579   0.00000  Uiso   1.00
C1212  C     0.50860   0.98195   0.45821   0.00000  Uiso   1.00
Cu1213 Cu    0.50000   0.83334   0.54689   0.00000  Uiso   1.00
Cu1214 Cu    0.50000   0.83333   0.45311   0.00000  Uiso   1.00
H1215  H     0.34920   0.82326   0.38515   0.00000  Uiso   1.00
H1216  H     0.64835   0.89799   0.55166   0.00000  Uiso   1.00
H1217  H     0.52231   0.70959   0.43341   0.00000  Uiso   1.00
H1218  H     0.46942   0.95651   0.56375   0.00000  Uiso   1.00
H1219  H     0.47029   0.93488   0.35173   0.00000  Uiso   1.00
H1220  H     0.44029   0.93236   0.40387   0.00000  Uiso   1.00
H1221  H     0.44359   0.97954   0.37067   0.00000  Uiso   1.00
H1222  H     0.53500   0.98962   0.39012   0.00000  Uiso   1.00
H1223  H     0.54287   0.94116   0.41589   0.00000  Uiso   1.00
H1224  H     0.53776   0.73440   0.60868   0.00000  Uiso   1.00
H1225  H     0.49706   0.72042   0.65242   0.00000  Uiso   1.00
H1226  H     0.62383   0.79123   0.37391   0.00000  Uiso   1.00
H1227  H     0.53160   0.68242   0.62966   0.00000  Uiso   1.00
H1228  H     0.44187   0.72705   0.57363   0.00000  Uiso   1.00
H1229  H     0.43880   0.67732   0.59727   0.00000  Uiso   1.00
H1230  H     0.36768   0.77934   0.65876   0.00000  Uiso   1.00
H1231  H     0.39877   0.73381   0.64777   0.00000  Uiso   1.00
H1232  H     0.36379   0.73479   0.36302   0.00000  Uiso   1.00
H1233  H     0.46184   0.74368   0.38237   0.00000  Uiso   1.00
H1234  H     0.42445   0.77817   0.40636   0.00000  Uiso   1.00
H1235  H     0.58666   0.95598   0.61664   0.00000  Uiso   1.00
H1236  H     0.52273   0.94144   0.62836   0.00000  Uiso   1.00
H1237  H     0.62481   0.84092   0.39979   0.00000  Uiso   1.00
H1238  H     0.57583   0.94283   0.34204   0.00000  Uiso   1.00
H1239  H     0.60954   0.88424   0.64781   0.00000  Uiso   1.00
H1240  H     0.57369   0.88888   0.59177   0.00000  Uiso   1.00
H1241  H     0.44662   0.78375   0.61568   0.00000  Uiso   1.00
H1242  H     0.55596   0.88177   0.38408   0.00000  Uiso   1.00
H1243  H     0.35061   0.76964   0.44623   0.00000  Uiso   1.00
H1244  H     0.62185   0.77691   0.45681   0.00000  Uiso   1.00
H1245  H     0.65373   0.83993   0.61193   0.00000  Uiso   1.00
H1246  H     0.38412   0.83433   0.60178   0.00000  Uiso   1.00
H1247  H     0.36891   0.88130   0.62565   0.00000  Uiso   1.00
H1248  H     0.37732   0.89132   0.54071   0.00000  Uiso   1.00
N1249  N     0.50001   0.83334   0.61736   0.00000  Uiso   1.00
N1250  N     0.49999   0.83332   0.38264   0.00000  Uiso   1.00
O1251  O     0.50000   0.77322   0.53958   0.00000  Uiso   1.00
O1252  O     0.50000   0.89345   0.46042   0.00000  Uiso   1.00
O1253  O     0.50000   0.77321   0.46039   0.00000  Uiso   1.00
O1254  O     0.50000   0.89346   0.53961   0.00000  Uiso   1.00
O1255  O     0.42495   0.83334   0.53046   0.00000  Uiso   1.00
O1256  O     0.57505   0.83333   0.46954   0.00000  Uiso   1.00
O1257  O     0.42494   0.83333   0.45127   0.00000  Uiso   1.00
O1258  O     0.57506   0.83334   0.54873   0.00000  Uiso   1.00
C1259  C     0.83219   0.75404   0.50060   0.00000  Uiso   1.00
C1260  C     0.81571   0.68442   0.53898   0.00000  Uiso   1.00
C1261  C     0.83021   0.95716   0.49700   0.00000  Uiso   1.00
C1262  C     0.83107   0.70927   0.50161   0.00000  Uiso   1.00
C1263  C     0.80238   0.80491   0.35400   0.00000  Uiso   1.00
C1264  C     0.86487   0.86110   0.64621   0.00000  Uiso   1.00
C1265  C     0.80331   0.80550   0.63805   0.00000  Uiso   1.00
C1266  C     0.86394   0.86079   0.36199   0.00000  Uiso   1.00
C1267  C     0.99023   0.79383   0.44738   0.00000  Uiso   1.00
C1268  C     0.97963   0.81344   0.39860   0.00000  Uiso   1.00
C1269  C     0.67615   0.87426   0.55114   0.00000  Uiso   1.00
C1270  C     0.83262   0.91256   0.49907   0.00000  Uiso   1.00
C1271  C     0.68804   0.85645   0.60063   0.00000  Uiso   1.00
C1272  C     0.84946   0.96568   0.41121   0.00000  Uiso   1.00
C1273  C     0.79786   0.95220   0.38281   0.00000  Uiso   1.00
C1274  C     0.79847   0.70056   0.58244   0.00000  Uiso   1.00
C1275  C     0.84403   0.71018   0.62037   0.00000  Uiso   1.00
C1276  C     0.77081   0.76963   0.37395   0.00000  Uiso   1.00
C1277  C     0.72244   0.75371   0.34200   0.00000  Uiso   1.00
C1278  C     0.90485   0.89101   0.62900   0.00000  Uiso   1.00
C1279  C     0.89672   0.93549   0.63801   0.00000  Uiso   1.00
C1280  C     0.73483   0.83282   0.48823   0.00000  Uiso   1.00
C1281  C     0.93187   0.83387   0.51175   0.00000  Uiso   1.00
C1282  C     0.67982   0.82563   0.48368   0.00000  Uiso   1.00
C1283  C     0.98690   0.84125   0.51617   0.00000  Uiso   1.00
C1284  C     0.84417   0.69084   0.46216   0.00000  Uiso   1.00
C1285  C     0.81557   0.97548   0.53579   0.00000  Uiso   1.00
C1286  C     0.84193   0.98195   0.45821   0.00000  Uiso   1.00
Cu1287 Cu    0.83333   0.83334   0.54689   0.00000  Uiso   1.00
Cu1288 Cu    0.83333   0.83333   0.45311   0.00000  Uiso   1.00
H1289  H     0.68254   0.82326   0.38515   0.00000  Uiso   1.00
H1290  H     0.98168   0.89799   0.55166   0.00000  Uiso   1.00
H1291  H     0.85565   0.70959   0.43341   0.00000  Uiso   1.00
H1292  H     0.80275   0.95651   0.56375   0.00000  Uiso   1.00
H1293  H     0.80362   0.93488   0.35173   0.00000  Uiso   1.00
H1294  H     0.77362   0.93236   0.40387   0.00000  Uiso   1.00
H1295  H     0.77693   0.97954   0.37067   0.00000  Uiso   1.00
H1296  H     0.86833   0.98962   0.39012   0.00000  Uiso   1.00
H1297  H     0.87620   0.94116   0.41589   0.00000  Uiso   1.00
H1298  H     0.87110   0.73440   0.60868   0.00000  Uiso   1.00
H1299  H     0.83039   0.72042   0.65242   0.00000  Uiso   1.00
H1300  H     0.95716   0.79123   0.37391   0.00000  Uiso   1.00
H1301  H     0.86493   0.68242   0.62966   0.00000  Uiso   1.00
H1302  H     0.77520   0.72705   0.57363   0.00000  Uiso   1.00
H1303  H     0.77214   0.67732   0.59727   0.00000  Uiso   1.00
H1304  H     0.70101   0.77934   0.65876   0.00000  Uiso   1.00
H1305  H     0.73211   0.73381   0.64777   0.00000  Uiso   1.00
H1306  H     0.69713   0.73479   0.36302   0.00000  Uiso   1.00
H1307  H     0.79518   0.74368   0.38237   0.00000  Uiso   1.00
H1308  H     0.75778   0.77817   0.40636   0.00000  Uiso   1.00
H1309  H     0.91999   0.95598   0.61664   0.00000  Uiso   1.00
H1310  H     0.85606   0.94144   0.62836   0.00000  Uiso   1.00
H1311  H     0.95815   0.84092   0.39979   0.00000  Uiso   1.00
H1312  H     0.90916   0.94283   0.34204   0.00000  Uiso   1.00
H1313  H     0.94288   0.88424   0.64781   0.00000  Uiso   1.00
H1314  H     0.90702   0.88888   0.59177   0.00000  Uiso   1.00
H1315  H     0.77995   0.78375   0.61568   0.00000  Uiso   1.00
H1316  H     0.88930   0.88177   0.38408   0.00000  Uiso   1.00
H1317  H     0.68394   0.76964   0.44623   0.00000  Uiso   1.00
H1318  H     0.95518   0.77691   0.45681   0.00000  Uiso   1.00
H1319  H     0.98707   0.83993   0.61193   0.00000  Uiso   1.00
H1320  H     0.71745   0.83433   0.60178   0.00000  Uiso   1.00
H1321  H     0.70224   0.88130   0.62565   0.00000  Uiso   1.00
H1322  H     0.71066   0.89132   0.54071   0.00000  Uiso   1.00
N1323  N     0.83335   0.83334   0.61736   0.00000  Uiso   1.00
N1324  N     0.83332   0.83332   0.38264   0.00000  Uiso   1.00
O1325  O     0.83333   0.77322   0.53958   0.00000  Uiso   1.00
O1326  O     0.83334   0.89345   0.46042   0.00000  Uiso   1.00
O1327  O     0.83333   0.77321   0.46039   0.00000  Uiso   1.00
O1328  O     0.83334   0.89346   0.53961   0.00000  Uiso   1.00
O1329  O     0.75828   0.83334   0.53046   0.00000  Uiso   1.00
O1330  O     0.90839   0.83333   0.46954   0.00000  Uiso   1.00
O1331  O     0.75828   0.83333   0.45127   0.00000  Uiso   1.00
O1332  O     0.90839   0.83334   0.54873   0.00000  Uiso   1.00
C1333  C     0.16553   0.08737   0.83393   0.00000  Uiso   1.00
C1334  C     0.14905   0.01776   0.87231   0.00000  Uiso   1.00
C1335  C     0.16354   0.29050   0.83033   0.00000  Uiso   1.00
C1336  C     0.16441   0.04261   0.83494   0.00000  Uiso   1.00
C1337  C     0.13572   0.13825   0.68734   0.00000  Uiso   1.00
C1338  C     0.19820   0.19443   0.97955   0.00000  Uiso   1.00
C1339  C     0.13664   0.13884   0.97139   0.00000  Uiso   1.00
C1340  C     0.19727   0.19412   0.69532   0.00000  Uiso   1.00
C1341  C     0.32356   0.12716   0.78071   0.00000  Uiso   1.00
C1342  C     0.31297   0.14677   0.73193   0.00000  Uiso   1.00
C1343  C     0.00949   0.20760   0.88447   0.00000  Uiso   1.00
C1344  C     0.16595   0.24590   0.83240   0.00000  Uiso   1.00
C1345  C     0.02137   0.18978   0.93396   0.00000  Uiso   1.00
C1346  C     0.18280   0.29901   0.74454   0.00000  Uiso   1.00
C1347  C     0.13119   0.28553   0.71614   0.00000  Uiso   1.00
C1348  C     0.13180   0.03389   0.91577   0.00000  Uiso   1.00
C1349  C     0.17736   0.04352   0.95370   0.00000  Uiso   1.00
C1350  C     0.10414   0.10297   0.70728   0.00000  Uiso   1.00
C1351  C     0.05577   0.08704   0.67533   0.00000  Uiso   1.00
C1352  C     0.23818   0.22434   0.96233   0.00000  Uiso   1.00
C1353  C     0.23005   0.26882   0.97134   0.00000  Uiso   1.00
C1354  C     0.06816   0.16615   0.82156   0.00000  Uiso   1.00
C1355  C     0.26520   0.16720   0.84509   0.00000  Uiso   1.00
C1356  C     0.01315   0.15896   0.81701   0.00000  Uiso   1.00
C1357  C     0.32023   0.17459   0.84951   0.00000  Uiso   1.00
C1358  C     0.17750   0.02417   0.79550   0.00000  Uiso   1.00
C1359  C     0.14890   0.30882   0.86912   0.00000  Uiso   1.00
C1360  C     0.17527   0.31528   0.79155   0.00000  Uiso   1.00
Cu1361 Cu    0.16667   0.16667   0.88022   0.00000  Uiso   1.00
Cu1362 Cu    0.16667   0.16666   0.78645   0.00000  Uiso   1.00
H1363  H     0.01587   0.15659   0.71848   0.00000  Uiso   1.00
H1364  H     0.31502   0.23133   0.88500   0.00000  Uiso   1.00
H1365  H     0.18898   0.04293   0.76675   0.00000  Uiso   1.00
H1366  H     0.13608   0.28984   0.89708   0.00000  Uiso   1.00
H1367  H     0.13696   0.26821   0.68506   0.00000  Uiso   1.00
H1368  H     0.10696   0.26570   0.73721   0.00000  Uiso   1.00
H1369  H     0.11026   0.31287   0.70400   0.00000  Uiso   1.00
H1370  H     0.20166   0.32295   0.72345   0.00000  Uiso   1.00
H1371  H     0.20953   0.27450   0.74922   0.00000  Uiso   1.00
H1372  H     0.20443   0.06774   0.94201   0.00000  Uiso   1.00
H1373  H     0.16373   0.05375   0.98575   0.00000  Uiso   1.00
H1374  H     0.29050   0.12456   0.70724   0.00000  Uiso   1.00
H1375  H     0.19827   0.01576   0.96300   0.00000  Uiso   1.00
H1376  H     0.10853   0.06038   0.90697   0.00000  Uiso   1.00
H1377  H     0.10547   0.01065   0.93060   0.00000  Uiso   1.00
H1378  H     0.03434   0.11267   0.99210   0.00000  Uiso   1.00
H1379  H     0.06544   0.06714   0.98110   0.00000  Uiso   1.00
H1380  H     0.03046   0.06812   0.69635   0.00000  Uiso   1.00
H1381  H     0.12851   0.07702   0.71570   0.00000  Uiso   1.00
H1382  H     0.09111   0.11150   0.73969   0.00000  Uiso   1.00
H1383  H     0.25333   0.28931   0.94997   0.00000  Uiso   1.00
H1384  H     0.18940   0.27477   0.96169   0.00000  Uiso   1.00
H1385  H     0.29148   0.17425   0.73312   0.00000  Uiso   1.00
H1386  H     0.24250   0.27617   0.67537   0.00000  Uiso   1.00
H1387  H     0.27621   0.21758   0.98114   0.00000  Uiso   1.00
H1388  H     0.24036   0.22221   0.92510   0.00000  Uiso   1.00
H1389  H     0.11329   0.11708   0.94901   0.00000  Uiso   1.00
H1390  H     0.22263   0.21510   0.71741   0.00000  Uiso   1.00
H1391  H     0.01728   0.10297   0.77956   0.00000  Uiso   1.00
H1392  H     0.28852   0.11025   0.79014   0.00000  Uiso   1.00
H1393  H     0.32040   0.17326   0.94527   0.00000  Uiso   1.00
H1394  H     0.05078   0.16767   0.93511   0.00000  Uiso   1.00
H1395  H     0.03558   0.21464   0.95899   0.00000  Uiso   1.00
H1396  H     0.04399   0.22465   0.87404   0.00000  Uiso   1.00
N1397  N     0.16668   0.16668   0.95069   0.00000  Uiso   1.00
N1398  N     0.16665   0.16666   0.71597   0.00000  Uiso   1.00
O1399  O     0.16666   0.10655   0.87291   0.00000  Uiso   1.00
O1400  O     0.16667   0.22678   0.79375   0.00000  Uiso   1.00
O1401  O     0.16666   0.10654   0.79372   0.00000  Uiso   1.00
O1402  O     0.16667   0.22679   0.87294   0.00000  Uiso   1.00
O1403  O     0.09161   0.16667   0.86379   0.00000  Uiso   1.00
O1404  O     0.24172   0.16666   0.80288   0.00000  Uiso   1.00
O1405  O     0.09161   0.16666   0.78460   0.00000  Uiso   1.00
O1406  O     0.24172   0.16667   0.88207   0.00000  Uiso   1.00
C1407  C     0.49886   0.08737   0.83393   0.00000  Uiso   1.00
C1408  C     0.48238   0.01776   0.87231   0.00000  Uiso   1.00
C1409  C     0.49688   0.29050   0.83033   0.00000  Uiso   1.00
C1410  C     0.49774   0.04261   0.83494   0.00000  Uiso   1.00
C1411  C     0.46905   0.13825   0.68734   0.00000  Uiso   1.00
C1412  C     0.53154   0.19443   0.97955   0.00000  Uiso   1.00
C1413  C     0.46998   0.13884   0.97139   0.00000  Uiso   1.00
C1414  C     0.53061   0.19412   0.69532   0.00000  Uiso   1.00
C1415  C     0.65689   0.12716   0.78071   0.00000  Uiso   1.00
C1416  C     0.64630   0.14677   0.73193   0.00000  Uiso   1.00
C1417  C     0.34282   0.20760   0.88447   0.00000  Uiso   1.00
C1418  C     0.49929   0.24590   0.83240   0.00000  Uiso   1.00
C1419  C     0.35471   0.18978   0.93396   0.00000  Uiso   1.00
C1420  C     0.51613   0.29901   0.74454   0.00000  Uiso   1.00
C1421  C     0.46452   0.28553   0.71614   0.00000  Uiso   1.00
C1422  C     0.46513   0.03389   0.91577   0.00000  Uiso   1.00
C1423  C     0.51069   0.04352   0.95370   0.00000  Uiso   1.00
C1424  C     0.43748   0.10297   0.70728   0.00000  Uiso   1.00
C1425  C     0.38910   0.08704   0.67533   0.00000  Uiso   1.00
C1426  C     0.57152   0.22434   0.96233   0.00000  Uiso   1.00
C1427  C     0.56339   0.26882   0.97134   0.00000  Uiso   1.00
C1428  C     0.40149   0.16615   0.82156   0.00000  Uiso   1.00
C1429  C     0.59854   0.16720   0.84509   0.00000  Uiso   1.00
C1430  C     0.34649   0.15896   0.81701   0.00000  Uiso   1.00
C1431  C     0.65357   0.17459   0.84951   0.00000  Uiso   1.00
C1432  C     0.51083   0.02417   0.79550   0.00000  Uiso   1.00
C1433  C     0.48223   0.30882   0.86912   0.00000  Uiso   1.00
C1434  C     0.50860   0.31528   0.79155   0.00000  Uiso   1.00
Cu1435 Cu    0.50000   0.16667   0.88022   0.00000  Uiso   1.00
Cu1436 Cu    0.50000   0.16666   0.78645   0.00000  Uiso   1.00
H1437  H     0.34920   0.15659   0.71848   0.00000  Uiso   1.00
H1438  H     0.64835   0.23133   0.88500   0.00000  Uiso   1.00
H1439  H     0.52231   0.04293   0.76675   0.00000  Uiso   1.00
H1440  H     0.46942   0.28984   0.89708   0.00000  Uiso   1.00
H1441  H     0.47029   0.26821   0.68506   0.00000  Uiso   1.00
H1442  H     0.44029   0.26570   0.73721   0.00000  Uiso   1.00
H1443  H     0.44359   0.31287   0.70400   0.00000  Uiso   1.00
H1444  H     0.53500   0.32295   0.72345   0.00000  Uiso   1.00
H1445  H     0.54287   0.27450   0.74922   0.00000  Uiso   1.00
H1446  H     0.53776   0.06774   0.94201   0.00000  Uiso   1.00
H1447  H     0.49706   0.05375   0.98575   0.00000  Uiso   1.00
H1448  H     0.62383   0.12456   0.70724   0.00000  Uiso   1.00
H1449  H     0.53160   0.01576   0.96300   0.00000  Uiso   1.00
H1450  H     0.44187   0.06038   0.90697   0.00000  Uiso   1.00
H1451  H     0.43880   0.01065   0.93060   0.00000  Uiso   1.00
H1452  H     0.36768   0.11267   0.99210   0.00000  Uiso   1.00
H1453  H     0.39877   0.06714   0.98110   0.00000  Uiso   1.00
H1454  H     0.36379   0.06812   0.69635   0.00000  Uiso   1.00
H1455  H     0.46184   0.07702   0.71570   0.00000  Uiso   1.00
H1456  H     0.42445   0.11150   0.73969   0.00000  Uiso   1.00
H1457  H     0.58666   0.28931   0.94997   0.00000  Uiso   1.00
H1458  H     0.52273   0.27477   0.96169   0.00000  Uiso   1.00
H1459  H     0.62481   0.17425   0.73312   0.00000  Uiso   1.00
H1460  H     0.57583   0.27617   0.67537   0.00000  Uiso   1.00
H1461  H     0.60954   0.21758   0.98114   0.00000  Uiso   1.00
H1462  H     0.57369   0.22221   0.92510   0.00000  Uiso   1.00
H1463  H     0.44662   0.11708   0.94901   0.00000  Uiso   1.00
H1464  H     0.55596   0.21510   0.71741   0.00000  Uiso   1.00
H1465  H     0.35061   0.10297   0.77956   0.00000  Uiso   1.00
H1466  H     0.62185   0.11025   0.79014   0.00000  Uiso   1.00
H1467  H     0.65373   0.17326   0.94527   0.00000  Uiso   1.00
H1468  H     0.38412   0.16767   0.93511   0.00000  Uiso   1.00
H1469  H     0.36891   0.21464   0.95899   0.00000  Uiso   1.00
H1470  H     0.37732   0.22465   0.87404   0.00000  Uiso   1.00
N1471  N     0.50001   0.16668   0.95069   0.00000  Uiso   1.00
N1472  N     0.49999   0.16666   0.71597   0.00000  Uiso   1.00
O1473  O     0.50000   0.10655   0.87291   0.00000  Uiso   1.00
O1474  O     0.50000   0.22678   0.79375   0.00000  Uiso   1.00
O1475  O     0.50000   0.10654   0.79372   0.00000  Uiso   1.00
O1476  O     0.50000   0.22679   0.87294   0.00000  Uiso   1.00
O1477  O     0.42495   0.16667   0.86379   0.00000  Uiso   1.00
O1478  O     0.57505   0.16666   0.80288   0.00000  Uiso   1.00
O1479  O     0.42494   0.16666   0.78460   0.00000  Uiso   1.00
O1480  O     0.57506   0.16667   0.88207   0.00000  Uiso   1.00
C1481  C     0.83219   0.08737   0.83393   0.00000  Uiso   1.00
C1482  C     0.81571   0.01776   0.87231   0.00000  Uiso   1.00
C1483  C     0.83021   0.29050   0.83033   0.00000  Uiso   1.00
C1484  C     0.83107   0.04261   0.83494   0.00000  Uiso   1.00
C1485  C     0.80238   0.13825   0.68734   0.00000  Uiso   1.00
C1486  C     0.86487   0.19443   0.97955   0.00000  Uiso   1.00
C1487  C     0.80331   0.13884   0.97139   0.00000  Uiso   1.00
C1488  C     0.86394   0.19412   0.69532   0.00000  Uiso   1.00
C1489  C     0.99023   0.12716   0.78071   0.00000  Uiso   1.00
C1490  C     0.97963   0.14677   0.73193   0.00000  Uiso   1.00
C1491  C     0.67615   0.20760   0.88447   0.00000  Uiso   1.00
C1492  C     0.83262   0.24590   0.83240   0.00000  Uiso   1.00
C1493  C     0.68804   0.18978   0.93396   0.00000  Uiso   1.00
C1494  C     0.84946   0.29901   0.74454   0.00000  Uiso   1.00
C1495  C     0.79786   0.28553   0.71614   0.00000  Uiso   1.00
C1496  C     0.79847   0.03389   0.91577   0.00000  Uiso   1.00
C1497  C     0.84403   0.04352   0.95370   0.00000  Uiso   1.00
C1498  C     0.77081   0.10297   0.70728   0.00000  Uiso   1.00
C1499  C     0.72244   0.08704   0.67533   0.00000  Uiso   1.00
C1500  C     0.90485   0.22434   0.96233   0.00000  Uiso   1.00
C1501  C     0.89672   0.26882   0.97134   0.00000  Uiso   1.00
C1502  C     0.73483   0.16615   0.82156   0.00000  Uiso   1.00
C1503  C     0.93187   0.16720   0.84509   0.00000  Uiso   1.00
C1504  C     0.67982   0.15896   0.81701   0.00000  Uiso   1.00
C1505  C     0.98690   0.17459   0.84951   0.00000  Uiso   1.00
C1506  C     0.84417   0.02417   0.79550   0.00000  Uiso   1.00
C1507  C     0.81557   0.30882   0.86912   0.00000  Uiso   1.00
C1508  C     0.84193   0.31528   0.79155   0.00000  Uiso   1.00
Cu1509 Cu    0.83333   0.16667   0.88022   0.00000  Uiso   1.00
Cu1510 Cu    0.83333   0.16666   0.78645   0.00000  Uiso   1.00
H1511  H     0.68254   0.15659   0.71848   0.00000  Uiso   1.00
H1512  H     0.98168   0.23133   0.88500   0.00000  Uiso   1.00
H1513  H     0.85565   0.04293   0.76675   0.00000  Uiso   1.00
H1514  H     0.80275   0.28984   0.89708   0.00000  Uiso   1.00
H1515  H     0.80362   0.26821   0.68506   0.00000  Uiso   1.00
H1516  H     0.77362   0.26570   0.73721   0.00000  Uiso   1.00
H1517  H     0.77693   0.31287   0.70400   0.00000  Uiso   1.00
H1518  H     0.86833   0.32295   0.72345   0.00000  Uiso   1.00
H1519  H     0.87620   0.27450   0.74922   0.00000  Uiso   1.00
H1520  H     0.87110   0.06774   0.94201   0.00000  Uiso   1.00
H1521  H     0.83039   0.05375   0.98575   0.00000  Uiso   1.00
H1522  H     0.95716   0.12456   0.70724   0.00000  Uiso   1.00
H1523  H     0.86493   0.01576   0.96300   0.00000  Uiso   1.00
H1524  H     0.77520   0.06038   0.90697   0.00000  Uiso   1.00
H1525  H     0.77214   0.01065   0.93060   0.00000  Uiso   1.00
H1526  H     0.70101   0.11267   0.99210   0.00000  Uiso   1.00
H1527  H     0.73211   0.06714   0.98110   0.00000  Uiso   1.00
H1528  H     0.69713   0.06812   0.69635   0.00000  Uiso   1.00
H1529  H     0.79518   0.07702   0.71570   0.00000  Uiso   1.00
H1530  H     0.75778   0.11150   0.73969   0.00000  Uiso   1.00
H1531  H     0.91999   0.28931   0.94997   0.00000  Uiso   1.00
H1532  H     0.85606   0.27477   0.96169   0.00000  Uiso   1.00
H1533  H     0.95815   0.17425   0.73312   0.00000  Uiso   1.00
H1534  H     0.90916   0.27617   0.67537   0.00000  Uiso   1.00
H1535  H     0.94288   0.21758   0.98114   0.00000  Uiso   1.00
H1536  H     0.90702   0.22221   0.92510   0.00000  Uiso   1.00
H1537  H     0.77995   0.11708   0.94901   0.00000  Uiso   1.00
H1538  H     0.88930   0.21510   0.71741   0.00000  Uiso   1.00
H1539  H     0.68394   0.10297   0.77956   0.00000  Uiso   1.00
H1540  H     0.95518   0.11025   0.79014   0.00000  Uiso   1.00
H1541  H     0.98707   0.17326   0.94527   0.00000  Uiso   1.00
H1542  H     0.71745   0.16767   0.93511   0.00000  Uiso   1.00
H1543  H     0.70224   0.21464   0.95899   0.00000  Uiso   1.00
H1544  H     0.71066   0.22465   0.87404   0.00000  Uiso   1.00
N1545  N     0.83335   0.16668   0.95069   0.00000  Uiso   1.00
N1546  N     0.83332   0.16666   0.71597   0.00000  Uiso   1.00
O1547  O     0.83333   0.10655   0.87291   0.00000  Uiso   1.00
O1548  O     0.83334   0.22678   0.79375   0.00000  Uiso   1.00
O1549  O     0.83333   0.10654   0.79372   0.00000  Uiso   1.00
O1550  O     0.83334   0.22679   0.87294   0.00000  Uiso   1.00
O1551  O     0.75828   0.16667   0.86379   0.00000  Uiso   1.00
O1552  O     0.90839   0.16666   0.80288   0.00000  Uiso   1.00
O1553  O     0.75828   0.16666   0.78460   0.00000  Uiso   1.00
O1554  O     0.90839   0.16667   0.88207   0.00000  Uiso   1.00
C1555  C     0.16553   0.42071   0.83393   0.00000  Uiso   1.00
C1556  C     0.14905   0.35109   0.87231   0.00000  Uiso   1.00
C1557  C     0.16354   0.62383   0.83033   0.00000  Uiso   1.00
C1558  C     0.16441   0.37594   0.83494   0.00000  Uiso   1.00
C1559  C     0.13572   0.47158   0.68734   0.00000  Uiso   1.00
C1560  C     0.19820   0.52777   0.97955   0.00000  Uiso   1.00
C1561  C     0.13664   0.47217   0.97139   0.00000  Uiso   1.00
C1562  C     0.19727   0.52745   0.69532   0.00000  Uiso   1.00
C1563  C     0.32356   0.46050   0.78071   0.00000  Uiso   1.00
C1564  C     0.31297   0.48010   0.73193   0.00000  Uiso   1.00
C1565  C     0.00949   0.54093   0.88447   0.00000  Uiso   1.00
C1566  C     0.16595   0.57923   0.83240   0.00000  Uiso   1.00
C1567  C     0.02137   0.52311   0.93396   0.00000  Uiso   1.00
C1568  C     0.18280   0.63235   0.74454   0.00000  Uiso   1.00
C1569  C     0.13119   0.61887   0.71614   0.00000  Uiso   1.00
C1570  C     0.13180   0.36723   0.91577   0.00000  Uiso   1.00
C1571  C     0.17736   0.37685   0.95370   0.00000  Uiso   1.00
C1572  C     0.10414   0.43630   0.70728   0.00000  Uiso   1.00
C1573  C     0.05577   0.42038   0.67533   0.00000  Uiso   1.00
C1574  C     0.23818   0.55767   0.96233   0.00000  Uiso   1.00
C1575  C     0.23005   0.60215   0.97134   0.00000  Uiso   1.00
C1576  C     0.06816   0.49949   0.82156   0.00000  Uiso   1.00
C1577  C     0.26520   0.50053   0.84509   0.00000  Uiso   1.00
C1578  C     0.01315   0.49229   0.81701   0.00000  Uiso   1.00
C1579  C     0.32023   0.50792   0.84951   0.00000  Uiso   1.00
C1580  C     0.17750   0.35751   0.79550   0.00000  Uiso   1.00
C1581  C     0.14890   0.64215   0.86912   0.00000  Uiso   1.00
C1582  C     0.17527   0.64862   0.79155   0.00000  Uiso   1.00
Cu1583 Cu    0.16667   0.50001   0.88022   0.00000  Uiso   1.00
Cu1584 Cu    0.16667   0.49999   0.78645   0.00000  Uiso   1.00
H1585  H     0.01587   0.48992   0.71848   0.00000  Uiso   1.00
H1586  H     0.31502   0.56466   0.88500   0.00000  Uiso   1.00
H1587  H     0.18898   0.37626   0.76675   0.00000  Uiso   1.00
H1588  H     0.13608   0.62318   0.89708   0.00000  Uiso   1.00
H1589  H     0.13696   0.60155   0.68506   0.00000  Uiso   1.00
H1590  H     0.10696   0.59903   0.73721   0.00000  Uiso   1.00
H1591  H     0.11026   0.64620   0.70400   0.00000  Uiso   1.00
H1592  H     0.20166   0.65629   0.72345   0.00000  Uiso   1.00
H1593  H     0.20953   0.60783   0.74922   0.00000  Uiso   1.00
H1594  H     0.20443   0.40107   0.94201   0.00000  Uiso   1.00
H1595  H     0.16373   0.38709   0.98575   0.00000  Uiso   1.00
H1596  H     0.29050   0.45790   0.70724   0.00000  Uiso   1.00
H1597  H     0.19827   0.34909   0.96300   0.00000  Uiso   1.00
H1598  H     0.10853   0.39371   0.90697   0.00000  Uiso   1.00
H1599  H     0.10547   0.34398   0.93060   0.00000  Uiso   1.00
H1600  H     0.03434   0.44600   0.99210   0.00000  Uiso   1.00
H1601  H     0.06544   0.40047   0.98110   0.00000  Uiso   1.00
H1602  H     0.03046   0.40146   0.69635   0.00000  Uiso   1.00
H1603  H     0.12851   0.41035   0.71570   0.00000  Uiso   1.00
H1604  H     0.09111   0.44484   0.73969   0.00000  Uiso   1.00
H1605  H     0.25333   0.62265   0.94997   0.00000  Uiso   1.00
H1606  H     0.18940   0.60811   0.96169   0.00000  Uiso   1.00
H1607  H     0.29148   0.50758   0.73312   0.00000  Uiso   1.00
H1608  H     0.24250   0.60950   0.67537   0.00000  Uiso   1.00
H1609  H     0.27621   0.55091   0.98114   0.00000  Uiso   1.00
H1610  H     0.24036   0.55555   0.92510   0.00000  Uiso   1.00
H1611  H     0.11329   0.45042   0.94901   0.00000  Uiso   1.00
H1612  H     0.22263   0.54843   0.71741   0.00000  Uiso   1.00
H1613  H     0.01728   0.43630   0.77956   0.00000  Uiso   1.00
H1614  H     0.28852   0.44358   0.79014   0.00000  Uiso   1.00
H1615  H     0.32040   0.50659   0.94527   0.00000  Uiso   1.00
H1616  H     0.05078   0.50100   0.93511   0.00000  Uiso   1.00
H1617  H     0.03558   0.54797   0.95899   0.00000  Uiso   1.00
H1618  H     0.04399   0.55799   0.87404   0.00000  Uiso   1.00
N1619  N     0.16668   0.50001   0.95069   0.00000  Uiso   1.00
N1620  N     0.16665   0.49999   0.71597   0.00000  Uiso   1.00
O1621  O     0.16666   0.43989   0.87291   0.00000  Uiso   1.00
O1622  O     0.16667   0.56011   0.79375   0.00000  Uiso   1.00
O1623  O     0.16666   0.43988   0.79372   0.00000  Uiso   1.00
O1624  O     0.16667   0.56012   0.87294   0.00000  Uiso   1.00
O1625  O     0.09161   0.50000   0.86379   0.00000  Uiso   1.00
O1626  O     0.24172   0.50000   0.80288   0.00000  Uiso   1.00
O1627  O     0.09161   0.49999   0.78460   0.00000  Uiso   1.00
O1628  O     0.24172   0.50001   0.88207   0.00000  Uiso   1.00
C1629  C     0.49886   0.42071   0.83393   0.00000  Uiso   1.00
C1630  C     0.48238   0.35109   0.87231   0.00000  Uiso   1.00
C1631  C     0.49688   0.62383   0.83033   0.00000  Uiso   1.00
C1632  C     0.49774   0.37594   0.83494   0.00000  Uiso   1.00
C1633  C     0.46905   0.47158   0.68734   0.00000  Uiso   1.00
C1634  C     0.53154   0.52777   0.97955   0.00000  Uiso   1.00
C1635  C     0.46998   0.47217   0.97139   0.00000  Uiso   1.00
C1636  C     0.53061   0.52745   0.69532   0.00000  Uiso   1.00
C1637  C     0.65689   0.46050   0.78071   0.00000  Uiso   1.00
C1638  C     0.64630   0.48010   0.73193   0.00000  Uiso   1.00
C1639  C     0.34282   0.54093   0.88447   0.00000  Uiso   1.00
C1640  C     0.49929   0.57923   0.83240   0.00000  Uiso   1.00
C1641  C     0.35471   0.52311   0.93396   0.00000  Uiso   1.00
C1642  C     0.51613   0.63235   0.74454   0.00000  Uiso   1.00
C1643  C     0.46452   0.61887   0.71614   0.00000  Uiso   1.00
C1644  C     0.46513   0.36723   0.91577   0.00000  Uiso   1.00
C1645  C     0.51069   0.37685   0.95370   0.00000  Uiso   1.00
C1646  C     0.43748   0.43630   0.70728   0.00000  Uiso   1.00
C1647  C     0.38910   0.42038   0.67533   0.00000  Uiso   1.00
C1648  C     0.57152   0.55767   0.96233   0.00000  Uiso   1.00
C1649  C     0.56339   0.60215   0.97134   0.00000  Uiso   1.00
C1650  C     0.40149   0.49949   0.82156   0.00000  Uiso   1.00
C1651  C     0.59854   0.50053   0.84509   0.00000  Uiso   1.00
C1652  C     0.34649   0.49229   0.81701   0.00000  Uiso   1.00
C1653  C     0.65357   0.50792   0.84951   0.00000  Uiso   1.00
C1654  C     0.51083   0.35751   0.79550   0.00000  Uiso   1.00
C1655  C     0.48223   0.64215   0.86912   0.00000  Uiso   1.00
C1656  C     0.50860   0.64862   0.79155   0.00000  Uiso   1.00
Cu1657 Cu    0.50000   0.50001   0.88022   0.00000  Uiso   1.00
Cu1658 Cu    0.50000   0.49999   0.78645   0.00000  Uiso   1.00
H1659  H     0.34920   0.48992   0.71848   0.00000  Uiso   1.00
H1660  H     0.64835   0.56466   0.88500   0.00000  Uiso   1.00
H1661  H     0.52231   0.37626   0.76675   0.00000  Uiso   1.00
H1662  H     0.46942   0.62318   0.89708   0.00000  Uiso   1.00
H1663  H     0.47029   0.60155   0.68506   0.00000  Uiso   1.00
H1664  H     0.44029   0.59903   0.73721   0.00000  Uiso   1.00
H1665  H     0.44359   0.64620   0.70400   0.00000  Uiso   1.00
H1666  H     0.53500   0.65629   0.72345   0.00000  Uiso   1.00
H1667  H     0.54287   0.60783   0.74922   0.00000  Uiso   1.00
H1668  H     0.53776   0.40107   0.94201   0.00000  Uiso   1.00
H1669  H     0.49706   0.38709   0.98575   0.00000  Uiso   1.00
H1670  H     0.62383   0.45790   0.70724   0.00000  Uiso   1.00
H1671  H     0.53160   0.34909   0.96300   0.00000  Uiso   1.00
H1672  H     0.44187   0.39371   0.90697   0.00000  Uiso   1.00
H1673  H     0.43880   0.34398   0.93060   0.00000  Uiso   1.00
H1674  H     0.36768   0.44600   0.99210   0.00000  Uiso   1.00
H1675  H     0.39877   0.40047   0.98110   0.00000  Uiso   1.00
H1676  H     0.36379   0.40146   0.69635   0.00000  Uiso   1.00
H1677  H     0.46184   0.41035   0.71570   0.00000  Uiso   1.00
H1678  H     0.42445   0.44484   0.73969   0.00000  Uiso   1.00
H1679  H     0.58666   0.62265   0.94997   0.00000  Uiso   1.00
H1680  H     0.52273   0.60811   0.96169   0.00000  Uiso   1.00
H1681  H     0.62481   0.50758   0.73312   0.00000  Uiso   1.00
H1682  H     0.57583   0.60950   0.67537   0.00000  Uiso   1.00
H1683  H     0.60954   0.55091   0.98114   0.00000  Uiso   1.00
H1684  H     0.57369   0.55555   0.92510   0.00000  Uiso   1.00
H1685  H     0.44662   0.45042   0.94901   0.00000  Uiso   1.00
H1686  H     0.55596   0.54843   0.71741   0.00000  Uiso   1.00
H1687  H     0.35061   0.43630   0.77956   0.00000  Uiso   1.00
H1688  H     0.62185   0.44358   0.79014   0.00000  Uiso   1.00
H1689  H     0.65373   0.50659   0.94527   0.00000  Uiso   1.00
H1690  H     0.38412   0.50100   0.93511   0.00000  Uiso   1.00
H1691  H     0.36891   0.54797   0.95899   0.00000  Uiso   1.00
H1692  H     0.37732   0.55799   0.87404   0.00000  Uiso   1.00
N1693  N     0.50001   0.50001   0.95069   0.00000  Uiso   1.00
N1694  N     0.49999   0.49999   0.71597   0.00000  Uiso   1.00
O1695  O     0.50000   0.43989   0.87291   0.00000  Uiso   1.00
O1696  O     0.50000   0.56011   0.79375   0.00000  Uiso   1.00
O1697  O     0.50000   0.43988   0.79372   0.00000  Uiso   1.00
O1698  O     0.50000   0.56012   0.87294   0.00000  Uiso   1.00
O1699  O     0.42495   0.50000   0.86379   0.00000  Uiso   1.00
O1700  O     0.57505   0.50000   0.80288   0.00000  Uiso   1.00
O1701  O     0.42494   0.49999   0.78460   0.00000  Uiso   1.00
O1702  O     0.57506   0.50001   0.88207   0.00000  Uiso   1.00
C1703  C     0.83219   0.42071   0.83393   0.00000  Uiso   1.00
C1704  C     0.81571   0.35109   0.87231   0.00000  Uiso   1.00
C1705  C     0.83021   0.62383   0.83033   0.00000  Uiso   1.00
C1706  C     0.83107   0.37594   0.83494   0.00000  Uiso   1.00
C1707  C     0.80238   0.47158   0.68734   0.00000  Uiso   1.00
C1708  C     0.86487   0.52777   0.97955   0.00000  Uiso   1.00
C1709  C     0.80331   0.47217   0.97139   0.00000  Uiso   1.00
C1710  C     0.86394   0.52745   0.69532   0.00000  Uiso   1.00
C1711  C     0.99023   0.46050   0.78071   0.00000  Uiso   1.00
C1712  C     0.97963   0.48010   0.73193   0.00000  Uiso   1.00
C1713  C     0.67615   0.54093   0.88447   0.00000  Uiso   1.00
C1714  C     0.83262   0.57923   0.83240   0.00000  Uiso   1.00
C1715  C     0.68804   0.52311   0.93396   0.00000  Uiso   1.00
C1716  C     0.84946   0.63235   0.74454   0.00000  Uiso   1.00
C1717  C     0.79786   0.61887   0.71614   0.00000  Uiso   1.00
C1718  C     0.79847   0.36723   0.91577   0.00000  Uiso   1.00
C1719  C     0.84403   0.37685   0.95370   0.00000  Uiso   1.00
C1720  C     0.77081   0.43630   0.70728   0.00000  Uiso   1.00
C1721  C     0.72244   0.42038   0.67533   0.00000  Uiso   1.00
C1722  C     0.90485   0.55767   0.96233   0.00000  Uiso   1.00
C1723  C     0.89672   0.60215   0.97134   0.00000  Uiso   1.00
C1724  C     0.73483   0.49949   0.82156   0.00000  Uiso   1.00
C1725  C     0.93187   0.50053   0.84509   0.00000  Uiso   1.00
C1726  C     0.67982   0.49229   0.81701   0.00000  Uiso   1.00
C1727  C     0.98690   0.50792   0.84951   0.00000  Uiso   1.00
C1728  C     0.84417   0.35751   0.79550   0.00000  Uiso   1.00
C1729  C     0.81557   0.64215   0.86912   0.00000  Uiso   1.00
C1730  C     0.84193   0.64862   0.79155   0.00000  Uiso   1.00
Cu1731 Cu    0.83333   0.50001   0.88022   0.00000  Uiso   1.00
Cu1732 Cu    0.83333   0.49999   0.78645   0.00000  Uiso   1.00
H1733  H     0.68254   0.48992   0.71848   0.00000  Uiso   1.00
H1734  H     0.98168   0.56466   0.88500   0.00000  Uiso   1.00
H1735  H     0.85565   0.37626   0.76675   0.00000  Uiso   1.00
H1736  H     0.80275   0.62318   0.89708   0.00000  Uiso   1.00
H1737  H     0.80362   0.60155   0.68506   0.00000  Uiso   1.00
H1738  H     0.77362   0.59903   0.73721   0.00000  Uiso   1.00
H1739  H     0.77693   0.64620   0.70400   0.00000  Uiso   1.00
H1740  H     0.86833   0.65629   0.72345   0.00000  Uiso   1.00
H1741  H     0.87620   0.60783   0.74922   0.00000  Uiso   1.00
H1742  H     0.87110   0.40107   0.94201   0.00000  Uiso   1.00
H1743  H     0.83039   0.38709   0.98575   0.00000  Uiso   1.00
H1744  H     0.95716   0.45790   0.70724   0.00000  Uiso   1.00
H1745  H     0.86493   0.34909   0.96300   0.00000  Uiso   1.00
H1746  H     0.77520   0.39371   0.90697   0.00000  Uiso   1.00
H1747  H     0.77214   0.34398   0.93060   0.00000  Uiso   1.00
H1748  H     0.70101   0.44600   0.99210   0.00000  Uiso   1.00
H1749  H     0.73211   0.40047   0.98110   0.00000  Uiso   1.00
H1750  H     0.69713   0.40146   0.69635   0.00000  Uiso   1.00
H1751  H     0.79518   0.41035   0.71570   0.00000  Uiso   1.00
H1752  H     0.75778   0.44484   0.73969   0.00000  Uiso   1.00
H1753  H     0.91999   0.62265   0.94997   0.00000  Uiso   1.00
H1754  H     0.85606   0.60811   0.96169   0.00000  Uiso   1.00
H1755  H     0.95815   0.50758   0.73312   0.00000  Uiso   1.00
H1756  H     0.90916   0.60950   0.67537   0.00000  Uiso   1.00
H1757  H     0.94288   0.55091   0.98114   0.00000  Uiso   1.00
H1758  H     0.90702   0.55555   0.92510   0.00000  Uiso   1.00
H1759  H     0.77995   0.45042   0.94901   0.00000  Uiso   1.00
H1760  H     0.88930   0.54843   0.71741   0.00000  Uiso   1.00
H1761  H     0.68394   0.43630   0.77956   0.00000  Uiso   1.00
H1762  H     0.95518   0.44358   0.79014   0.00000  Uiso   1.00
H1763  H     0.98707   0.50659   0.94527   0.00000  Uiso   1.00
H1764  H     0.71745   0.50100   0.93511   0.00000  Uiso   1.00
H1765  H     0.70224   0.54797   0.95899   0.00000  Uiso   1.00
H1766  H     0.71066   0.55799   0.87404   0.00000  Uiso   1.00
N1767  N     0.83335   0.50001   0.95069   0.00000  Uiso   1.00
N1768  N     0.83332   0.49999   0.71597   0.00000  Uiso   1.00
O1769  O     0.83333   0.43989   0.87291   0.00000  Uiso   1.00
O1770  O     0.83334   0.56011   0.79375   0.00000  Uiso   1.00
O1771  O     0.83333   0.43988   0.79372   0.00000  Uiso   1.00
O1772  O     0.83334   0.56012   0.87294   0.00000  Uiso   1.00
O1773  O     0.75828   0.50000   0.86379   0.00000  Uiso   1.00
O1774  O     0.90839   0.50000   0.80288   0.00000  Uiso   1.00
O1775  O     0.75828   0.49999   0.78460   0.00000  Uiso   1.00
O1776  O     0.90839   0.50001   0.88207   0.00000  Uiso   1.00
C1777  C     0.16553   0.75404   0.83393   0.00000  Uiso   1.00
C1778  C     0.14905   0.68442   0.87231   0.00000  Uiso   1.00
C1779  C     0.16354   0.95716   0.83033   0.00000  Uiso   1.00
C1780  C     0.16441   0.70927   0.83494   0.00000  Uiso   1.00
C1781  C     0.13572   0.80491   0.68734   0.00000  Uiso   1.00
C1782  C     0.19820   0.86110   0.97955   0.00000  Uiso   1.00
C1783  C     0.13664   0.80550   0.97139   0.00000  Uiso   1.00
C1784  C     0.19727   0.86079   0.69532   0.00000  Uiso   1.00
C1785  C     0.32356   0.79383   0.78071   0.00000  Uiso   1.00
C1786  C     0.31297   0.81344   0.73193   0.00000  Uiso   1.00
C1787  C     0.00949   0.87426   0.88447   0.00000  Uiso   1.00
C1788  C     0.16595   0.91256   0.83240   0.00000  Uiso   1.00
C1789  C     0.02137   0.85645   0.93396   0.00000  Uiso   1.00
C1790  C     0.18280   0.96568   0.74454   0.00000  Uiso   1.00
C1791  C     0.13119   0.95220   0.71614   0.00000  Uiso   1.00
C1792  C     0.13180   0.70056   0.91577   0.00000  Uiso   1.00
C1793  C     0.17736   0.71018   0.95370   0.00000  Uiso   1.00
C1794  C     0.10414   0.76963   0.70728   0.00000  Uiso   1.00
C1795  C     0.05577   0.75371   0.67533   0.00000  Uiso   1.00
C1796  C     0.23818   0.89101   0.96233   0.00000  Uiso   1.00
C1797  C     0.23005   0.93549   0.97134   0.00000  Uiso   1.00
C1798  C     0.06816   0.83282   0.82156   0.00000  Uiso   1.00
C1799  C     0.26520   0.83387   0.84509   0.00000  Uiso   1.00
C1800  C     0.01315   0.82563   0.81701   0.00000  Uiso   1.00
C1801  C     0.32023   0.84125   0.84951   0.00000  Uiso   1.00
C1802  C     0.17750   0.69084   0.79550   0.00000  Uiso   1.00
C1803  C     0.14890   0.97548   0.86912   0.00000  Uiso   1.00
C1804  C     0.17527   0.98195   0.79155   0.00000  Uiso   1.00
Cu1805 Cu    0.16667   0.83334   0.88022   0.00000  Uiso   1.00
Cu1806 Cu    0.16667   0.83333   0.78645   0.00000  Uiso   1.00
H1807  H     0.01587   0.82326   0.71848   0.00000  Uiso   1.00
H1808  H     0.31502   0.89799   0.88500   0.00000  Uiso   1.00
H1809  H     0.18898   0.70959   0.76675   0.00000  Uiso   1.00
H1810  H     0.13608   0.95651   0.89708   0.00000  Uiso   1.00
H1811  H     0.13696   0.93488   0.68506   0.00000  Uiso   1.00
H1812  H     0.10696   0.93236   0.73721   0.00000  Uiso   1.00
H1813  H     0.11026   0.97954   0.70400   0.00000  Uiso   1.00
H1814  H     0.20166   0.98962   0.72345   0.00000  Uiso   1.00
H1815  H     0.20953   0.94116   0.74922   0.00000  Uiso   1.00
H1816  H     0.20443   0.73440   0.94201   0.00000  Uiso   1.00
H1817  H     0.16373   0.72042   0.98575   0.00000  Uiso   1.00
H1818  H     0.29050   0.79123   0.70724   0.00000  Uiso   1.00
H1819  H     0.19827   0.68242   0.96300   0.00000  Uiso   1.00
H1820  H     0.10853   0.72705   0.90697   0.00000  Uiso   1.00
H1821  H     0.10547   0.67732   0.93060   0.00000  Uiso   1.00
H1822  H     0.03434   0.77934   0.99210   0.00000  Uiso   1.00
H1823  H     0.06544   0.73381   0.98110   0.00000  Uiso   1.00
H1824  H     0.03046   0.73479   0.69635   0.00000  Uiso   1.00
H1825  H     0.12851   0.74368   0.71570   0.00000  Uiso   1.00
H1826  H     0.09111   0.77817   0.73969   0.00000  Uiso   1.00
H1827  H     0.25333   0.95598   0.94997   0.00000  Uiso   1.00
H1828  H     0.18940   0.94144   0.96169   0.00000  Uiso   1.00
H1829  H     0.29148   0.84092   0.73312   0.00000  Uiso   1.00
H1830  H     0.24250   0.94283   0.67537   0.00000  Uiso   1.00
H1831  H     0.27621   0.88424   0.98114   0.00000  Uiso   1.00
H1832  H     0.24036   0.88888   0.92510   0.00000  Uiso   1.00
H1833  H     0.11329   0.78375   0.94901   0.00000  Uiso   1.00
H1834  H     0.22263   0.88177   0.71741   0.00000  Uiso   1.00
H1835  H     0.01728   0.76964   0.77956   0.00000  Uiso   1.00
H1836  H     0.28852   0.77691   0.79014   0.00000  Uiso   1.00
H1837  H     0.32040   0.83993   0.94527   0.00000  Uiso   1.00
H1838  H     0.05078   0.83433   0.93511   0.00000  Uiso   1.00
H1839  H     0.03558   0.88130   0.95899   0.00000  Uiso   1.00
H1840  H     0.04399   0.89132   0.87404   0.00000  Uiso   1.00
N1841  N     0.16668   0.83334   0.95069   0.00000  Uiso   1.00
N1842  N     0.16665   0.83332   0.71597   0.00000  Uiso   1.00
O1843  O     0.16666   0.77322   0.87291   0.00000  Uiso   1.00
O1844  O     0.16667   0.89345   0.79375   0.00000  Uiso   1.00
O1845  O     0.16666   0.77321   0.79372   0.00000  Uiso   1.00
O1846  O     0.16667   0.89346   0.87294   0.00000  Uiso   1.00
O1847  O     0.09161   0.83334   0.86379   0.00000  Uiso   1.00
O1848  O     0.24172   0.83333   0.80288   0.00000  Uiso   1.00
O1849  O     0.09161   0.83333   0.78460   0.00000  Uiso   1.00
O1850  O     0.24172   0.83334   0.88207   0.00000  Uiso   1.00
C1851  C     0.49886   0.75404   0.83393   0.00000  Uiso   1.00
C1852  C     0.48238   0.68442   0.87231   0.00000  Uiso   1.00
C1853  C     0.49688   0.95716   0.83033   0.00000  Uiso   1.00
C1854  C     0.49774   0.70927   0.83494   0.00000  Uiso   1.00
C1855  C     0.46905   0.80491   0.68734   0.00000  Uiso   1.00
C1856  C     0.53154   0.86110   0.97955   0.00000  Uiso   1.00
C1857  C     0.46998   0.80550   0.97139   0.00000  Uiso   1.00
C1858  C     0.53061   0.86079   0.69532   0.00000  Uiso   1.00
C1859  C     0.65689   0.79383   0.78071   0.00000  Uiso   1.00
C1860  C     0.64630   0.81344   0.73193   0.00000  Uiso   1.00
C1861  C     0.34282   0.87426   0.88447   0.00000  Uiso   1.00
C1862  C     0.49929   0.91256   0.83240   0.00000  Uiso   1.00
C1863  C     0.35471   0.85645   0.93396   0.00000  Uiso   1.00
C1864  C     0.51613   0.96568   0.74454   0.00000  Uiso   1.00
C1865  C     0.46452   0.95220   0.71614   0.00000  Uiso   1.00
C1866  C     0.46513   0.70056   0.91577   0.00000  Uiso   1.00
C1867  C     0.51069   0.71018   0.95370   0.00000  Uiso   1.00
C1868  C     0.43748   0.76963   0.70728   0.00000  Uiso   1.00
C1869  C     0.38910   0.75371   0.67533   0.00000  Uiso   1.00
C1870  C     0.57152   0.89101   0.96233   0.00000  Uiso   1.00
C1871  C     0.56339   0.93549   0.97134   0.00000  Uiso   1.00
C1872  C     0.40149   0.83282   0.82156   0.00000  Uiso   1.00
C1873  C     0.59854   0.83387   0.84509   0.00000  Uiso   1.00
C1874  C     0.34649   0.82563   0.81701   0.00000  Uiso   1.00
C1875  C     0.65357   0.84125   0.84951   0.00000  Uiso   1.00
C1876  C     0.51083   0.69084   0.79550   0.00000  Uiso   1.00
C1877  C     0.48223   0.97548   0.86912   0.00000  Uiso   1.00
C1878  C     0.50860   0.98195   0.79155   0.00000  Uiso   1.00
Cu1879 Cu    0.50000   0.83334   0.88022   0.00000  Uiso   1.00
Cu1880 Cu    0.50000   0.83333   0.78645   0.00000  Uiso   1.00
H1881  H     0.34920   0.82326   0.71848   0.00000  Uiso   1.00
H1882  H     0.64835   0.89799   0.88500   0.00000  Uiso   1.00
H1883  H     0.52231   0.70959   0.76675   0.00000  Uiso   1.00
H1884  H     0.46942   0.95651   0.89708   0.00000  Uiso   1.00
H1885  H     0.47029   0.93488   0.68506   0.00000  Uiso   1.00
H1886  H     0.44029   0.93236   0.73721   0.00000  Uiso   1.00
H1887  H     0.44359   0.97954   0.70400   0.00000  Uiso   1.00
H1888  H     0.53500   0.98962   0.72345   0.00000  Uiso   1.00
H1889  H     0.54287   0.94116   0.74922   0.00000  Uiso   1.00
H1890  H     0.53776   0.73440   0.94201   0.00000  Uiso   1.00
H1891  H     0.49706   0.72042   0.98575   0.00000  Uiso   1.00
H1892  H     0.62383   0.79123   0.70724   0.00000  Uiso   1.00
H1893  H     0.53160   0.68242   0.96300   0.00000  Uiso   1.00
H1894  H     0.44187   0.72705   0.90697   0.00000  Uiso   1.00
H1895  H     0.43880   0.67732   0.93060   0.00000  Uiso   1.00
H1896  H     0.36768   0.77934   0.99210   0.00000  Uiso   1.00
H1897  H     0.39877   0.73381   0.98110   0.00000  Uiso   1.00
H1898  H     0.36379   0.73479   0.69635   0.00000  Uiso   1.00
H1899  H     0.46184   0.74368   0.71570   0.00000  Uiso   1.00
H1900  H     0.42445   0.77817   0.73969   0.00000  Uiso   1.00
H1901  H     0.58666   0.95598   0.94997   0.00000  Uiso   1.00
H1902  H     0.52273   0.94144   0.96169   0.00000  Uiso   1.00
H1903  H     0.62481   0.84092   0.73312   0.00000  Uiso   1.00
H1904  H     0.57583   0.94283   0.67537   0.00000  Uiso   1.00
H1905  H     0.60954   0.88424   0.98114   0.00000  Uiso   1.00
H1906  H     0.57369   0.88888   0.92510   0.00000  Uiso   1.00
H1907  H     0.44662   0.78375   0.94901   0.00000  Uiso   1.00
H1908  H     0.55596   0.88177   0.71741   0.00000  Uiso   1.00
H1909  H     0.35061   0.76964   0.77956   0.00000  Uiso   1.00
H1910  H     0.62185   0.77691   0.79014   0.00000  Uiso   1.00
H1911  H     0.65373   0.83993   0.94527   0.00000  Uiso   1.00
H1912  H     0.38412   0.83433   0.93511   0.00000  Uiso   1.00
H1913  H     0.36891   0.88130   0.95899   0.00000  Uiso   1.00
H1914  H     0.37732   0.89132   0.87404   0.00000  Uiso   1.00
N1915  N     0.50001   0.83334   0.95069   0.00000  Uiso   1.00
N1916  N     0.49999   0.83332   0.71597   0.00000  Uiso   1.00
O1917  O     0.50000   0.77322   0.87291   0.00000  Uiso   1.00
O1918  O     0.50000   0.89345   0.79375   0.00000  Uiso   1.00
O1919  O     0.50000   0.77321   0.79372   0.00000  Uiso   1.00
O1920  O     0.50000   0.89346   0.87294   0.00000  Uiso   1.00
O1921  O     0.42495   0.83334   0.86379   0.00000  Uiso   1.00
O1922  O     0.57505   0.83333   0.80288   0.00000  Uiso   1.00
O1923  O     0.42494   0.83333   0.78460   0.00000  Uiso   1.00
O1924  O     0.57506   0.83334   0.88207   0.00000  Uiso   1.00
C1925  C     0.83219   0.75404   0.83393   0.00000  Uiso   1.00
C1926  C     0.81571   0.68442   0.87231   0.00000  Uiso   1.00
C1927  C     0.83021   0.95716   0.83033   0.00000  Uiso   1.00
C1928  C     0.83107   0.70927   0.83494   0.00000  Uiso   1.00
C1929  C     0.80238   0.80491   0.68734   0.00000  Uiso   1.00
C1930  C     0.86487   0.86110   0.97955   0.00000  Uiso   1.00
C1931  C     0.80331   0.80550   0.97139   0.00000  Uiso   1.00
C1932  C     0.86394   0.86079   0.69532   0.00000  Uiso   1.00
C1933  C     0.99023   0.79383   0.78071   0.00000  Uiso   1.00
C1934  C     0.97963   0.81344   0.73193   0.00000  Uiso   1.00
C1935  C     0.67615   0.87426   0.88447   0.00000  Uiso   1.00
C1936  C     0.83262   0.91256   0.83240   0.00000  Uiso   1.00
C1937  C     0.68804   0.85645   0.93396   0.00000  Uiso   1.00
C1938  C     0.84946   0.96568   0.74454   0.00000  Uiso   1.00
C1939  C     0.79786   0.95220   0.71614   0.00000  Uiso   1.00
C1940  C     0.79847   0.70056   0.91577   0.00000  Uiso   1.00
C1941  C     0.84403   0.71018   0.95370   0.00000  Uiso   1.00
C1942  C     0.77081   0.76963   0.70728   0.00000  Uiso   1.00
C1943  C     0.72244   0.75371   0.67533   0.00000  Uiso   1.00
C1944  C     0.90485   0.89101   0.96233   0.00000  Uiso   1.00
C1945  C     0.89672   0.93549   0.97134   0.00000  Uiso   1.00
C1946  C     0.73483   0.83282   0.82156   0.00000  Uiso   1.00
C1947  C     0.93187   0.83387   0.84509   0.00000  Uiso   1.00
C1948  C     0.67982   0.82563   0.81701   0.00000  Uiso   1.00
C1949  C     0.98690   0.84125   0.84951   0.00000  Uiso   1.00
C1950  C     0.84417   0.69084   0.79550   0.00000  Uiso   1.00
C1951  C     0.81557   0.97548   0.86912   0.00000  Uiso   1.00
C1952  C     0.84193   0.98195   0.79155   0.00000  Uiso   1.00
Cu1953 Cu    0.83333   0.83334   0.88022   0.00000  Uiso   1.00
Cu1954 Cu    0.83333   0.83333   0.78645   0.00000  Uiso   1.00
H1955  H     0.68254   0.82326   0.71848   0.00000  Uiso   1.00
H1956  H     0.98168   0.89799   0.88500   0.00000  Uiso   1.00
H1957  H     0.85565   0.70959   0.76675   0.00000  Uiso   1.00
H1958  H     0.80275   0.95651   0.89708   0.00000  Uiso   1.00
H1959  H     0.80362   0.93488   0.68506   0.00000  Uiso   1.00
H1960  H     0.77362   0.93236   0.73721   0.00000  Uiso   1.00
H1961  H     0.77693   0.97954   0.70400   0.00000  Uiso   1.00
H1962  H     0.86833   0.98962   0.72345   0.00000  Uiso   1.00
H1963  H     0.87620   0.94116   0.74922   0.00000  Uiso   1.00
H1964  H     0.87110   0.73440   0.94201   0.00000  Uiso   1.00
H1965  H     0.83039   0.72042   0.98575   0.00000  Uiso   1.00
H1966  H     0.95716   0.79123   0.70724   0.00000  Uiso   1.00
H1967  H     0.86493   0.68242   0.96300   0.00000  Uiso   1.00
H1968  H     0.77520   0.72705   0.90697   0.00000  Uiso   1.00
H1969  H     0.77214   0.67732   0.93060   0.00000  Uiso   1.00
H1970  H     0.70101   0.77934   0.99210   0.00000  Uiso   1.00
H1971  H     0.73211   0.73381   0.98110   0.00000  Uiso   1.00
H1972  H     0.69713   0.73479   0.69635   0.00000  Uiso   1.00
H1973  H     0.79518   0.74368   0.71570   0.00000  Uiso   1.00
H1974  H     0.75778   0.77817   0.73969   0.00000  Uiso   1.00
H1975  H     0.91999   0.95598   0.94997   0.00000  Uiso   1.00
H1976  H     0.85606   0.94144   0.96169   0.00000  Uiso   1.00
H1977  H     0.95815   0.84092   0.73312   0.00000  Uiso   1.00
H1978  H     0.90916   0.94283   0.67537   0.00000  Uiso   1.00
H1979  H     0.94288   0.88424   0.98114   0.00000  Uiso   1.00
H1980  H     0.90702   0.88888   0.92510   0.00000  Uiso   1.00
H1981  H     0.77995   0.78375   0.94901   0.00000  Uiso   1.00
H1982  H     0.88930   0.88177   0.71741   0.00000  Uiso   1.00
H1983  H     0.68394   0.76964   0.77956   0.00000  Uiso   1.00
H1984  H     0.95518   0.77691   0.79014   0.00000  Uiso   1.00
H1985  H     0.98707   0.83993   0.94527   0.00000  Uiso   1.00
H1986  H     0.71745   0.83433   0.93511   0.00000  Uiso   1.00
H1987  H     0.70224   0.88130   0.95899   0.00000  Uiso   1.00
H1988  H     0.71066   0.89132   0.87404   0.00000  Uiso   1.00
N1989  N     0.83335   0.83334   0.95069   0.00000  Uiso   1.00
N1990  N     0.83332   0.83332   0.71597   0.00000  Uiso   1.00
O1991  O     0.83333   0.77322   0.87291   0.00000  Uiso   1.00
O1992  O     0.83334   0.89345   0.79375   0.00000  Uiso   1.00
O1993  O     0.83333   0.77321   0.79372   0.00000  Uiso   1.00
O1994  O     0.83334   0.89346   0.87294   0.00000  Uiso   1.00
O1995  O     0.75828   0.83334   0.86379   0.00000  Uiso   1.00
O1996  O     0.90839   0.83333   0.80288   0.00000  Uiso   1.00
O1997  O     0.75828   0.83333   0.78460   0.00000  Uiso   1.00
O1998  O     0.90839   0.83334   0.88207   0.00000  Uiso   1.00
loop_
_geom_bond_atom_site_label_1
_geom_bond_atom_site_label_2
_geom_bond_distance
_geom_bond_site_symmetry_2
_ccdc_geom_bond_type
C1     C4      1.465   .     S
C1     O69     1.306   .     A
C1     O67     1.296   .     A
C2     C4      1.420   .     A
C2     C16     1.512   .     S
C2     C471    1.390   1_545 S
C3     C12     1.467   .     S
C3     C27     1.396   .     A
C3     C28     1.420   .     A
C4     C26     1.397   .     A
C5     N66     1.398   .     A
C5     C18     1.525   .     S
C5     C1339   1.422   1_554 S
C6     C20     1.516   .     S
C6     N65     1.395   .     A
C6     C674    1.418   .     S
C7     N65     1.349   .     A
C7     H57     1.074   .     S
C7     C671    1.422   .     S
C8     N66     1.350   .     A
C8     H58     1.078   .     S
C8     C1338   1.418   1_554 S
C9     C10     1.528   .     S
C9     H60     1.109   .     S
C9     C98     1.527   .     S
C9     H133    1.111   .     S
C10    H42     1.110   .     S
C10    H53     1.104   .     S
C10    H105    1.108   .     S
C11    C13     1.526   .     S
C11    H64     1.110   .     S
C11    C173    1.527   1_455 S
C11    H180    1.112   1_455 S
C12    O68     1.294   .     A
C12    O70     1.309   .     A
C13    H63     1.111   .     S
C13    H62     1.099   .     S
C13    H209    1.108   1_455 S
C14    C28     1.512   .     S
C14    H38     1.112   .     S
C14    C15     1.532   .     S
C14    H39     1.103   .     S
C15    H36     1.109   .     S
C15    H35     1.106   .     S
C15    H37     1.111   .     S
C16    H45     1.113   .     S
C16    H44     1.105   .     S
C16    C17     1.530   .     S
C17    H43     1.107   .     S
C17    H41     1.106   .     S
C17    H40     1.108   .     S
C18    H50     1.090   .     S
C18    C19     1.535   .     S
C18    H49     1.107   .     S
C19    H48     1.111   .     S
C19    H1378   1.108   1_554 S
C19    H1379   1.109   1_554 S
C20    H56     1.086   .     S
C20    H55     1.109   .     S
C20    C21     1.523   .     S
C21    H51     1.111   .     S
C21    H52     1.104   .     S
C21    H720    1.107   .     S
C22    C24     1.447   .     S
C22    O71     1.285   .     A
C22    O73     1.305   .     A
C23    O72     1.285   .     A
C23    C25     1.448   .     S
C23    O74     1.306   .     A
C24    C157    1.527   1_455 S
C24    C173    1.372   1_455 S
C25    C98     1.372   .     S
C25    C85     1.527   .     S
C26    H33     1.083   .     S
C26    C472    1.388   1_545 S
C27    H34     1.082   .     S
C27    C224    1.390   .     S
C28    C248    1.388   .     S
Cu29   Cu30    2.700   .     S
Cu29   N65     2.029   .     S
Cu29   O70     1.976   .     S
Cu29   O71     1.978   .     S
Cu29   O74     1.982   .     S
Cu29   O67     1.987   .     S
Cu30   N66     2.029   .     S
Cu30   O73     1.982   .     S
Cu30   O69     1.976   .     S
Cu30   O68     1.987   .     S
Cu30   O72     1.978   .     S
H31    C158    1.108   1_455 S
H32    C85     1.112   .     S
H46    C685    1.108   .     S
H47    C685    1.109   .     S
H54    C1353   1.107   1_554 S
H59    C157    1.111   1_455 S
H61    C87     1.108   .     S
C75    C78     1.465   .     S
C75    O143    1.306   .     A
C75    O141    1.296   .     A
C76    C78     1.420   .     A
C76    C90     1.512   .     S
C76    C545    1.390   1_545 S
C77    C86     1.467   .     S
C77    C101    1.396   .     A
C77    C102    1.420   .     A
C78    C100    1.397   .     A
C79    N140    1.398   .     A
C79    C92     1.525   .     S
C79    C1413   1.422   1_554 S
C80    C94     1.516   .     S
C80    N139    1.395   .     A
C80    C748    1.418   .     S
C81    N139    1.349   .     A
C81    H131    1.074   .     S
C81    C745    1.422   .     S
C82    N140    1.350   .     A
C82    H132    1.078   .     S
C82    C1412   1.418   1_554 S
C83    C84     1.528   .     S
C83    H134    1.109   .     S
C83    C172    1.527   .     S
C83    H207    1.111   .     S
C84    H116    1.110   .     S
C84    H127    1.104   .     S
C84    H179    1.108   .     S
C85    C87     1.526   .     S
C85    H138    1.110   .     S
C86    O142    1.294   .     A
C86    O144    1.309   .     A
C87    H137    1.111   .     S
C87    H136    1.099   .     S
C88    C102    1.512   .     S
C88    H112    1.112   .     S
C88    C89     1.532   .     S
C88    H113    1.103   .     S
C89    H110    1.109   .     S
C89    H109    1.106   .     S
C89    H111    1.111   .     S
C90    H119    1.113   .     S
C90    H118    1.105   .     S
C90    C91     1.530   .     S
C91    H117    1.107   .     S
C91    H115    1.106   .     S
C91    H114    1.108   .     S
C92    H124    1.090   .     S
C92    C93     1.535   .     S
C92    H123    1.107   .     S
C93    H122    1.111   .     S
C93    H1452   1.108   1_554 S
C93    H1453   1.109   1_554 S
C94    H130    1.086   .     S
C94    H129    1.109   .     S
C94    C95     1.523   .     S
C95    H125    1.111   .     S
C95    H126    1.104   .     S
C95    H794    1.107   .     S
C96    C98     1.447   .     S
C96    O145    1.285   .     A
C96    O147    1.305   .     A
C97    O146    1.285   .     A
C97    C99     1.448   .     S
C97    O148    1.306   .     A
C99    C172    1.372   .     S
C99    C159    1.527   .     S
C100   H107    1.083   .     S
C100   C546    1.388   1_545 S
C101   H108    1.082   .     S
C101   C298    1.390   .     S
C102   C322    1.388   .     S
Cu103  Cu104   2.700   .     S
Cu103  N139    2.029   .     S
Cu103  O144    1.976   .     S
Cu103  O145    1.978   .     S
Cu103  O148    1.982   .     S
Cu103  O141    1.987   .     S
Cu104  N140    2.029   .     S
Cu104  O147    1.982   .     S
Cu104  O143    1.976   .     S
Cu104  O142    1.987   .     S
Cu104  O146    1.978   .     S
H106   C159    1.112   .     S
H120   C759    1.108   .     S
H121   C759    1.109   .     S
H128   C1427   1.107   1_554 S
H135   C161    1.108   .     S
C149   C152    1.465   .     S
C149   O217    1.306   .     A
C149   O215    1.296   .     A
C150   C152    1.420   .     A
C150   C164    1.512   .     S
C150   C619    1.390   1_545 S
C151   C160    1.467   .     S
C151   C175    1.396   .     A
C151   C176    1.420   .     A
C152   C174    1.397   .     A
C153   N214    1.398   .     A
C153   C166    1.525   .     S
C153   C1487   1.422   1_554 S
C154   C168    1.516   .     S
C154   N213    1.395   .     A
C154   C822    1.418   .     S
C155   N213    1.349   .     A
C155   H205    1.074   .     S
C155   C819    1.422   .     S
C156   N214    1.350   .     A
C156   H206    1.078   .     S
C156   C1486   1.418   1_554 S
C157   C158    1.528   .     S
C157   H208    1.109   .     S
C157   C24     1.527   1_655 S
C157   H59     1.111   1_655 S
C158   H190    1.110   .     S
C158   H201    1.104   .     S
C158   H31     1.108   1_655 S
C159   C161    1.526   .     S
C159   H212    1.110   .     S
C160   O216    1.294   .     A
C160   O218    1.309   .     A
C161   H211    1.111   .     S
C161   H210    1.099   .     S
C162   C176    1.512   .     S
C162   H186    1.112   .     S
C162   C163    1.532   .     S
C162   H187    1.103   .     S
C163   H184    1.109   .     S
C163   H183    1.106   .     S
C163   H185    1.111   .     S
C164   H193    1.113   .     S
C164   H192    1.105   .     S
C164   C165    1.530   .     S
C165   H191    1.107   .     S
C165   H189    1.106   .     S
C165   H188    1.108   .     S
C166   H198    1.090   .     S
C166   C167    1.535   .     S
C166   H197    1.107   .     S
C167   H196    1.111   .     S
C167   H1526   1.108   1_554 S
C167   H1527   1.109   1_554 S
C168   H204    1.086   .     S
C168   H203    1.109   .     S
C168   C169    1.523   .     S
C169   H199    1.111   .     S
C169   H200    1.104   .     S
C169   H868    1.107   .     S
C170   C172    1.447   .     S
C170   O219    1.285   .     A
C170   O221    1.305   .     A
C171   O220    1.285   .     A
C171   C173    1.448   .     S
C171   O222    1.306   .     A
C173   C24     1.372   1_655 S
C173   C11     1.527   1_655 S
C174   H181    1.083   .     S
C174   C620    1.388   1_545 S
C175   H182    1.082   .     S
C175   C372    1.390   .     S
C176   C396    1.388   .     S
Cu177  Cu178   2.700   .     S
Cu177  N213    2.029   .     S
Cu177  O218    1.976   .     S
Cu177  O219    1.978   .     S
Cu177  O222    1.982   .     S
Cu177  O215    1.987   .     S
Cu178  N214    2.029   .     S
Cu178  O221    1.982   .     S
Cu178  O217    1.976   .     S
Cu178  O216    1.987   .     S
Cu178  O220    1.978   .     S
H180   C11     1.112   1_655 S
H194   C833    1.108   .     S
H195   C833    1.109   .     S
H202   C1501   1.107   1_554 S
H209   C13     1.108   1_655 S
C223   C226    1.465   .     S
C223   O291    1.306   .     A
C223   O289    1.296   .     A
C224   C226    1.420   .     A
C224   C238    1.512   .     S
C225   C234    1.467   .     S
C225   C249    1.396   .     A
C225   C250    1.420   .     A
C226   C248    1.397   .     A
C227   N288    1.398   .     A
C227   C240    1.525   .     S
C227   C1561   1.422   1_554 S
C228   C242    1.516   .     S
C228   N287    1.395   .     A
C228   C896    1.418   .     S
C229   N287    1.349   .     A
C229   H279    1.074   .     S
C229   C893    1.422   .     S
C230   N288    1.350   .     A
C230   H280    1.078   .     S
C230   C1560   1.418   1_554 S
C231   C232    1.528   .     S
C231   H282    1.109   .     S
C231   C320    1.527   .     S
C231   H355    1.111   .     S
C232   H264    1.110   .     S
C232   H275    1.104   .     S
C232   H327    1.108   .     S
C233   C235    1.526   .     S
C233   H286    1.110   .     S
C233   C395    1.527   1_455 S
C233   H402    1.112   1_455 S
C234   O290    1.294   .     A
C234   O292    1.309   .     A
C235   H285    1.111   .     S
C235   H284    1.099   .     S
C235   H431    1.108   1_455 S
C236   C250    1.512   .     S
C236   H260    1.112   .     S
C236   C237    1.532   .     S
C236   H261    1.103   .     S
C237   H258    1.109   .     S
C237   H257    1.106   .     S
C237   H259    1.111   .     S
C238   H267    1.113   .     S
C238   H266    1.105   .     S
C238   C239    1.530   .     S
C239   H265    1.107   .     S
C239   H263    1.106   .     S
C239   H262    1.108   .     S
C240   H272    1.090   .     S
C240   C241    1.535   .     S
C240   H271    1.107   .     S
C241   H270    1.111   .     S
C241   H1600   1.108   1_554 S
C241   H1601   1.109   1_554 S
C242   H278    1.086   .     S
C242   H277    1.109   .     S
C242   C243    1.523   .     S
C243   H273    1.111   .     S
C243   H274    1.104   .     S
C243   H942    1.107   .     S
C244   C246    1.447   .     S
C244   O293    1.285   .     A
C244   O295    1.305   .     A
C245   O294    1.285   .     A
C245   C247    1.448   .     S
C245   O296    1.306   .     A
C246   C379    1.527   1_455 S
C246   C395    1.372   1_455 S
C247   C320    1.372   .     S
C247   C307    1.527   .     S
C248   H255    1.083   .     S
C249   H256    1.082   .     S
C249   C446    1.390   .     S
C250   C470    1.388   .     S
Cu251  Cu252   2.700   .     S
Cu251  N287    2.029   .     S
Cu251  O292    1.976   .     S
Cu251  O293    1.978   .     S
Cu251  O296    1.982   .     S
Cu251  O289    1.987   .     S
Cu252  N288    2.029   .     S
Cu252  O295    1.982   .     S
Cu252  O291    1.976   .     S
Cu252  O290    1.987   .     S
Cu252  O294    1.978   .     S
H253   C380    1.108   1_455 S
H254   C307    1.112   .     S
H268   C907    1.108   .     S
H269   C907    1.109   .     S
H276   C1575   1.107   1_554 S
H281   C379    1.111   1_455 S
H283   C309    1.108   .     S
C297   C300    1.465   .     S
C297   O365    1.306   .     A
C297   O363    1.296   .     A
C298   C300    1.420   .     A
C298   C312    1.512   .     S
C299   C308    1.467   .     S
C299   C323    1.396   .     A
C299   C324    1.420   .     A
C300   C322    1.397   .     A
C301   N362    1.398   .     A
C301   C314    1.525   .     S
C301   C1635   1.422   1_554 S
C302   C316    1.516   .     S
C302   N361    1.395   .     A
C302   C970    1.418   .     S
C303   N361    1.349   .     A
C303   H353    1.074   .     S
C303   C967    1.422   .     S
C304   N362    1.350   .     A
C304   H354    1.078   .     S
C304   C1634   1.418   1_554 S
C305   C306    1.528   .     S
C305   H356    1.109   .     S
C305   C394    1.527   .     S
C305   H429    1.111   .     S
C306   H338    1.110   .     S
C306   H349    1.104   .     S
C306   H401    1.108   .     S
C307   C309    1.526   .     S
C307   H360    1.110   .     S
C308   O364    1.294   .     A
C308   O366    1.309   .     A
C309   H359    1.111   .     S
C309   H358    1.099   .     S
C310   C324    1.512   .     S
C310   H334    1.112   .     S
C310   C311    1.532   .     S
C310   H335    1.103   .     S
C311   H332    1.109   .     S
C311   H331    1.106   .     S
C311   H333    1.111   .     S
C312   H341    1.113   .     S
C312   H340    1.105   .     S
C312   C313    1.530   .     S
C313   H339    1.107   .     S
C313   H337    1.106   .     S
C313   H336    1.108   .     S
C314   H346    1.090   .     S
C314   C315    1.535   .     S
C314   H345    1.107   .     S
C315   H344    1.111   .     S
C315   H1674   1.108   1_554 S
C315   H1675   1.109   1_554 S
C316   H352    1.086   .     S
C316   H351    1.109   .     S
C316   C317    1.523   .     S
C317   H347    1.111   .     S
C317   H348    1.104   .     S
C317   H1016   1.107   .     S
C318   C320    1.447   .     S
C318   O367    1.285   .     A
C318   O369    1.305   .     A
C319   O368    1.285   .     A
C319   C321    1.448   .     S
C319   O370    1.306   .     A
C321   C394    1.372   .     S
C321   C381    1.527   .     S
C322   H329    1.083   .     S
C323   H330    1.082   .     S
C323   C520    1.390   .     S
C324   C544    1.388   .     S
Cu325  Cu326   2.700   .     S
Cu325  N361    2.029   .     S
Cu325  O366    1.976   .     S
Cu325  O367    1.978   .     S
Cu325  O370    1.982   .     S
Cu325  O363    1.987   .     S
Cu326  N362    2.029   .     S
Cu326  O369    1.982   .     S
Cu326  O365    1.976   .     S
Cu326  O364    1.987   .     S
Cu326  O368    1.978   .     S
H328   C381    1.112   .     S
H342   C981    1.108   .     S
H343   C981    1.109   .     S
H350   C1649   1.107   1_554 S
H357   C383    1.108   .     S
C371   C374    1.465   .     S
C371   O439    1.306   .     A
C371   O437    1.296   .     A
C372   C374    1.420   .     A
C372   C386    1.512   .     S
C373   C382    1.467   .     S
C373   C397    1.396   .     A
C373   C398    1.420   .     A
C374   C396    1.397   .     A
C375   N436    1.398   .     A
C375   C388    1.525   .     S
C375   C1709   1.422   1_554 S
C376   C390    1.516   .     S
C376   N435    1.395   .     A
C376   C1044   1.418   .     S
C377   N435    1.349   .     A
C377   H427    1.074   .     S
C377   C1041   1.422   .     S
C378   N436    1.350   .     A
C378   H428    1.078   .     S
C378   C1708   1.418   1_554 S
C379   C380    1.528   .     S
C379   H430    1.109   .     S
C379   C246    1.527   1_655 S
C379   H281    1.111   1_655 S
C380   H412    1.110   .     S
C380   H423    1.104   .     S
C380   H253    1.108   1_655 S
C381   C383    1.526   .     S
C381   H434    1.110   .     S
C382   O438    1.294   .     A
C382   O440    1.309   .     A
C383   H433    1.111   .     S
C383   H432    1.099   .     S
C384   C398    1.512   .     S
C384   H408    1.112   .     S
C384   C385    1.532   .     S
C384   H409    1.103   .     S
C385   H406    1.109   .     S
C385   H405    1.106   .     S
C385   H407    1.111   .     S
C386   H415    1.113   .     S
C386   H414    1.105   .     S
C386   C387    1.530   .     S
C387   H413    1.107   .     S
C387   H411    1.106   .     S
C387   H410    1.108   .     S
C388   H420    1.090   .     S
C388   C389    1.535   .     S
C388   H419    1.107   .     S
C389   H418    1.111   .     S
C389   H1748   1.108   1_554 S
C389   H1749   1.109   1_554 S
C390   H426    1.086   .     S
C390   H425    1.109   .     S
C390   C391    1.523   .     S
C391   H421    1.111   .     S
C391   H422    1.104   .     S
C391   H1090   1.107   .     S
C392   C394    1.447   .     S
C392   O441    1.285   .     A
C392   O443    1.305   .     A
C393   O442    1.285   .     A
C393   C395    1.448   .     S
C393   O444    1.306   .     A
C395   C246    1.372   1_655 S
C395   C233    1.527   1_655 S
C396   H403    1.083   .     S
C397   H404    1.082   .     S
C397   C594    1.390   .     S
C398   C618    1.388   .     S
Cu399  Cu400   2.700   .     S
Cu399  N435    2.029   .     S
Cu399  O440    1.976   .     S
Cu399  O441    1.978   .     S
Cu399  O444    1.982   .     S
Cu399  O437    1.987   .     S
Cu400  N436    2.029   .     S
Cu400  O443    1.982   .     S
Cu400  O439    1.976   .     S
Cu400  O438    1.987   .     S
Cu400  O442    1.978   .     S
H402   C233    1.112   1_655 S
H416   C1055   1.108   .     S
H417   C1055   1.109   .     S
H424   C1723   1.107   1_554 S
H431   C235    1.108   1_655 S
C445   C448    1.465   .     S
C445   O513    1.306   .     A
C445   O511    1.296   .     A
C446   C448    1.420   .     A
C446   C460    1.512   .     S
C447   C456    1.467   .     S
C447   C471    1.396   .     A
C447   C472    1.420   .     A
C448   C470    1.397   .     A
C449   N510    1.398   .     A
C449   C462    1.525   .     S
C449   C1783   1.422   1_554 S
C450   C464    1.516   .     S
C450   N509    1.395   .     A
C450   C1118   1.418   .     S
C451   N509    1.349   .     A
C451   H501    1.074   .     S
C451   C1115   1.422   .     S
C452   N510    1.350   .     A
C452   H502    1.078   .     S
C452   C1782   1.418   1_554 S
C453   C454    1.528   .     S
C453   H504    1.109   .     S
C453   C542    1.527   .     S
C453   H577    1.111   .     S
C454   H486    1.110   .     S
C454   H497    1.104   .     S
C454   H549    1.108   .     S
C455   C457    1.526   .     S
C455   H508    1.110   .     S
C455   C617    1.527   1_455 S
C455   H624    1.112   1_455 S
C456   O512    1.294   .     A
C456   O514    1.309   .     A
C457   H507    1.111   .     S
C457   H506    1.099   .     S
C457   H653    1.108   1_455 S
C458   C472    1.512   .     S
C458   H482    1.112   .     S
C458   C459    1.532   .     S
C458   H483    1.103   .     S
C459   H480    1.109   .     S
C459   H479    1.106   .     S
C459   H481    1.111   .     S
C460   H489    1.113   .     S
C460   H488    1.105   .     S
C460   C461    1.530   .     S
C461   H487    1.107   .     S
C461   H485    1.106   .     S
C461   H484    1.108   .     S
C462   H494    1.090   .     S
C462   C463    1.535   .     S
C462   H493    1.107   .     S
C463   H492    1.111   .     S
C463   H1822   1.108   1_554 S
C463   H1823   1.109   1_554 S
C464   H500    1.086   .     S
C464   H499    1.109   .     S
C464   C465    1.523   .     S
C465   H495    1.111   .     S
C465   H496    1.104   .     S
C465   H1164   1.107   .     S
C466   C468    1.447   .     S
C466   O515    1.285   .     A
C466   O517    1.305   .     A
C467   O516    1.285   .     A
C467   C469    1.448   .     S
C467   O518    1.306   .     A
C468   C601    1.527   1_455 S
C468   C617    1.372   1_455 S
C469   C542    1.372   .     S
C469   C529    1.527   .     S
C470   H477    1.083   .     S
C471   H478    1.082   .     S
C471   C2      1.390   1_565 S
C472   C26     1.388   1_565 S
Cu473  Cu474   2.700   .     S
Cu473  N509    2.029   .     S
Cu473  O514    1.976   .     S
Cu473  O515    1.978   .     S
Cu473  O518    1.982   .     S
Cu473  O511    1.987   .     S
Cu474  N510    2.029   .     S
Cu474  O517    1.982   .     S
Cu474  O513    1.976   .     S
Cu474  O512    1.987   .     S
Cu474  O516    1.978   .     S
H475   C602    1.108   1_455 S
H476   C529    1.112   .     S
H490   C1129   1.108   .     S
H491   C1129   1.109   .     S
H498   C1797   1.107   1_554 S
H503   C601    1.111   1_455 S
H505   C531    1.108   .     S
C519   C522    1.465   .     S
C519   O587    1.306   .     A
C519   O585    1.296   .     A
C520   C522    1.420   .     A
C520   C534    1.512   .     S
C521   C530    1.467   .     S
C521   C545    1.396   .     A
C521   C546    1.420   .     A
C522   C544    1.397   .     A
C523   N584    1.398   .     A
C523   C536    1.525   .     S
C523   C1857   1.422   1_554 S
C524   C538    1.516   .     S
C524   N583    1.395   .     A
C524   C1192   1.418   .     S
C525   N583    1.349   .     A
C525   H575    1.074   .     S
C525   C1189   1.422   .     S
C526   N584    1.350   .     A
C526   H576    1.078   .     S
C526   C1856   1.418   1_554 S
C527   C528    1.528   .     S
C527   H578    1.109   .     S
C527   C616    1.527   .     S
C527   H651    1.111   .     S
C528   H560    1.110   .     S
C528   H571    1.104   .     S
C528   H623    1.108   .     S
C529   C531    1.526   .     S
C529   H582    1.110   .     S
C530   O586    1.294   .     A
C530   O588    1.309   .     A
C531   H581    1.111   .     S
C531   H580    1.099   .     S
C532   C546    1.512   .     S
C532   H556    1.112   .     S
C532   C533    1.532   .     S
C532   H557    1.103   .     S
C533   H554    1.109   .     S
C533   H553    1.106   .     S
C533   H555    1.111   .     S
C534   H563    1.113   .     S
C534   H562    1.105   .     S
C534   C535    1.530   .     S
C535   H561    1.107   .     S
C535   H559    1.106   .     S
C535   H558    1.108   .     S
C536   H568    1.090   .     S
C536   C537    1.535   .     S
C536   H567    1.107   .     S
C537   H566    1.111   .     S
C537   H1896   1.108   1_554 S
C537   H1897   1.109   1_554 S
C538   H574    1.086   .     S
C538   H573    1.109   .     S
C538   C539    1.523   .     S
C539   H569    1.111   .     S
C539   H570    1.104   .     S
C539   H1238   1.107   .     S
C540   C542    1.447   .     S
C540   O589    1.285   .     A
C540   O591    1.305   .     A
C541   O590    1.285   .     A
C541   C543    1.448   .     S
C541   O592    1.306   .     A
C543   C616    1.372   .     S
C543   C603    1.527   .     S
C544   H551    1.083   .     S
C545   H552    1.082   .     S
C545   C76     1.390   1_565 S
C546   C100    1.388   1_565 S
Cu547  Cu548   2.700   .     S
Cu547  N583    2.029   .     S
Cu547  O588    1.976   .     S
Cu547  O589    1.978   .     S
Cu547  O592    1.982   .     S
Cu547  O585    1.987   .     S
Cu548  N584    2.029   .     S
Cu548  O591    1.982   .     S
Cu548  O587    1.976   .     S
Cu548  O586    1.987   .     S
Cu548  O590    1.978   .     S
H550   C603    1.112   .     S
H564   C1203   1.108   .     S
H565   C1203   1.109   .     S
H572   C1871   1.107   1_554 S
H579   C605    1.108   .     S
C593   C596    1.465   .     S
C593   O661    1.306   .     A
C593   O659    1.296   .     A
C594   C596    1.420   .     A
C594   C608    1.512   .     S
C595   C604    1.467   .     S
C595   C619    1.396   .     A
C595   C620    1.420   .     A
C596   C618    1.397   .     A
C597   N658    1.398   .     A
C597   C610    1.525   .     S
C597   C1931   1.422   1_554 S
C598   C612    1.516   .     S
C598   N657    1.395   .     A
C598   C1266   1.418   .     S
C599   N657    1.349   .     A
C599   H649    1.074   .     S
C599   C1263   1.422   .     S
C600   N658    1.350   .     A
C600   H650    1.078   .     S
C600   C1930   1.418   1_554 S
C601   C602    1.528   .     S
C601   H652    1.109   .     S
C601   C468    1.527   1_655 S
C601   H503    1.111   1_655 S
C602   H634    1.110   .     S
C602   H645    1.104   .     S
C602   H475    1.108   1_655 S
C603   C605    1.526   .     S
C603   H656    1.110   .     S
C604   O660    1.294   .     A
C604   O662    1.309   .     A
C605   H655    1.111   .     S
C605   H654    1.099   .     S
C606   C620    1.512   .     S
C606   H630    1.112   .     S
C606   C607    1.532   .     S
C606   H631    1.103   .     S
C607   H628    1.109   .     S
C607   H627    1.106   .     S
C607   H629    1.111   .     S
C608   H637    1.113   .     S
C608   H636    1.105   .     S
C608   C609    1.530   .     S
C609   H635    1.107   .     S
C609   H633    1.106   .     S
C609   H632    1.108   .     S
C610   H642    1.090   .     S
C610   C611    1.535   .     S
C610   H641    1.107   .     S
C611   H640    1.111   .     S
C611   H1970   1.108   1_554 S
C611   H1971   1.109   1_554 S
C612   H648    1.086   .     S
C612   H647    1.109   .     S
C612   C613    1.523   .     S
C613   H643    1.111   .     S
C613   H644    1.104   .     S
C613   H1312   1.107   .     S
C614   C616    1.447   .     S
C614   O663    1.285   .     A
C614   O665    1.305   .     A
C615   O664    1.285   .     A
C615   C617    1.448   .     S
C615   O666    1.306   .     A
C617   C468    1.372   1_655 S
C617   C455    1.527   1_655 S
C618   H625    1.083   .     S
C619   H626    1.082   .     S
C619   C150    1.390   1_565 S
C620   C174    1.388   1_565 S
Cu621  Cu622   2.700   .     S
Cu621  N657    2.029   .     S
Cu621  O662    1.976   .     S
Cu621  O663    1.978   .     S
Cu621  O666    1.982   .     S
Cu621  O659    1.987   .     S
Cu622  N658    2.029   .     S
Cu622  O665    1.982   .     S
Cu622  O661    1.976   .     S
Cu622  O660    1.987   .     S
Cu622  O664    1.978   .     S
H624   C455    1.112   1_655 S
H638   C1277   1.108   .     S
H639   C1277   1.109   .     S
H646   C1945   1.107   1_554 S
H653   C457    1.108   1_655 S
C667   C670    1.465   .     S
C667   O735    1.306   .     A
C667   O733    1.296   .     A
C668   C670    1.420   .     A
C668   C682    1.512   .     S
C668   C1137   1.390   1_545 S
C669   C678    1.467   .     S
C669   C693    1.396   .     A
C669   C694    1.420   .     A
C670   C692    1.397   .     A
C671   N732    1.398   .     A
C671   C684    1.525   .     S
C672   C686    1.516   .     S
C672   N731    1.395   .     A
C672   C1340   1.418   .     S
C673   N731    1.349   .     A
C673   H723    1.074   .     S
C673   C1337   1.422   .     S
C674   N732    1.350   .     A
C674   H724    1.078   .     S
C675   C676    1.528   .     S
C675   H726    1.109   .     S
C675   C764    1.527   .     S
C675   H799    1.111   .     S
C676   H708    1.110   .     S
C676   H719    1.104   .     S
C676   H771    1.108   .     S
C677   C679    1.526   .     S
C677   H730    1.110   .     S
C677   C839    1.527   1_455 S
C677   H846    1.112   1_455 S
C678   O734    1.294   .     A
C678   O736    1.309   .     A
C679   H729    1.111   .     S
C679   H728    1.099   .     S
C679   H875    1.108   1_455 S
C680   C694    1.512   .     S
C680   H704    1.112   .     S
C680   C681    1.532   .     S
C680   H705    1.103   .     S
C681   H702    1.109   .     S
C681   H701    1.106   .     S
C681   H703    1.111   .     S
C682   H711    1.113   .     S
C682   H710    1.105   .     S
C682   C683    1.530   .     S
C683   H709    1.107   .     S
C683   H707    1.106   .     S
C683   H706    1.108   .     S
C684   H716    1.090   .     S
C684   C685    1.535   .     S
C684   H715    1.107   .     S
C685   H714    1.111   .     S
C686   H722    1.086   .     S
C686   H721    1.109   .     S
C686   C687    1.523   .     S
C687   H717    1.111   .     S
C687   H718    1.104   .     S
C687   H1386   1.107   .     S
C688   C690    1.447   .     S
C688   O737    1.285   .     A
C688   O739    1.305   .     A
C689   O738    1.285   .     A
C689   C691    1.448   .     S
C689   O740    1.306   .     A
C690   C823    1.527   1_455 S
C690   C839    1.372   1_455 S
C691   C764    1.372   .     S
C691   C751    1.527   .     S
C692   H699    1.083   .     S
C692   C1138   1.388   1_545 S
C693   H700    1.082   .     S
C693   C890    1.390   .     S
C694   C914    1.388   .     S
Cu695  Cu696   2.700   .     S
Cu695  N731    2.029   .     S
Cu695  O736    1.976   .     S
Cu695  O737    1.978   .     S
Cu695  O740    1.982   .     S
Cu695  O733    1.987   .     S
Cu696  N732    2.029   .     S
Cu696  O739    1.982   .     S
Cu696  O735    1.976   .     S
Cu696  O734    1.987   .     S
Cu696  O738    1.978   .     S
H697   C824    1.108   1_455 S
H698   C751    1.112   .     S
H712   C1351   1.108   .     S
H713   C1351   1.109   .     S
H725   C823    1.111   1_455 S
H727   C753    1.108   .     S
C741   C744    1.465   .     S
C741   O809    1.306   .     A
C741   O807    1.296   .     A
C742   C744    1.420   .     A
C742   C756    1.512   .     S
C742   C1211   1.390   1_545 S
C743   C752    1.467   .     S
C743   C767    1.396   .     A
C743   C768    1.420   .     A
C744   C766    1.397   .     A
C745   N806    1.398   .     A
C745   C758    1.525   .     S
C746   C760    1.516   .     S
C746   N805    1.395   .     A
C746   C1414   1.418   .     S
C747   N805    1.349   .     A
C747   H797    1.074   .     S
C747   C1411   1.422   .     S
C748   N806    1.350   .     A
C748   H798    1.078   .     S
C749   C750    1.528   .     S
C749   H800    1.109   .     S
C749   C838    1.527   .     S
C749   H873    1.111   .     S
C750   H782    1.110   .     S
C750   H793    1.104   .     S
C750   H845    1.108   .     S
C751   C753    1.526   .     S
C751   H804    1.110   .     S
C752   O808    1.294   .     A
C752   O810    1.309   .     A
C753   H803    1.111   .     S
C753   H802    1.099   .     S
C754   C768    1.512   .     S
C754   H778    1.112   .     S
C754   C755    1.532   .     S
C754   H779    1.103   .     S
C755   H776    1.109   .     S
C755   H775    1.106   .     S
C755   H777    1.111   .     S
C756   H785    1.113   .     S
C756   H784    1.105   .     S
C756   C757    1.530   .     S
C757   H783    1.107   .     S
C757   H781    1.106   .     S
C757   H780    1.108   .     S
C758   H790    1.090   .     S
C758   C759    1.535   .     S
C758   H789    1.107   .     S
C759   H788    1.111   .     S
C760   H796    1.086   .     S
C760   H795    1.109   .     S
C760   C761    1.523   .     S
C761   H791    1.111   .     S
C761   H792    1.104   .     S
C761   H1460   1.107   .     S
C762   C764    1.447   .     S
C762   O811    1.285   .     A
C762   O813    1.305   .     A
C763   O812    1.285   .     A
C763   C765    1.448   .     S
C763   O814    1.306   .     A
C765   C838    1.372   .     S
C765   C825    1.527   .     S
C766   H773    1.083   .     S
C766   C1212   1.388   1_545 S
C767   H774    1.082   .     S
C767   C964    1.390   .     S
C768   C988    1.388   .     S
Cu769  Cu770   2.700   .     S
Cu769  N805    2.029   .     S
Cu769  O810    1.976   .     S
Cu769  O811    1.978   .     S
Cu769  O814    1.982   .     S
Cu769  O807    1.987   .     S
Cu770  N806    2.029   .     S
Cu770  O813    1.982   .     S
Cu770  O809    1.976   .     S
Cu770  O808    1.987   .     S
Cu770  O812    1.978   .     S
H772   C825    1.112   .     S
H786   C1425   1.108   .     S
H787   C1425   1.109   .     S
H801   C827    1.108   .     S
C815   C818    1.465   .     S
C815   O883    1.306   .     A
C815   O881    1.296   .     A
C816   C818    1.420   .     A
C816   C830    1.512   .     S
C816   C1285   1.390   1_545 S
C817   C826    1.467   .     S
C817   C841    1.396   .     A
C817   C842    1.420   .     A
C818   C840    1.397   .     A
C819   N880    1.398   .     A
C819   C832    1.525   .     S
C820   C834    1.516   .     S
C820   N879    1.395   .     A
C820   C1488   1.418   .     S
C821   N879    1.349   .     A
C821   H871    1.074   .     S
C821   C1485   1.422   .     S
C822   N880    1.350   .     A
C822   H872    1.078   .     S
C823   C824    1.528   .     S
C823   H874    1.109   .     S
C823   C690    1.527   1_655 S
C823   H725    1.111   1_655 S
C824   H856    1.110   .     S
C824   H867    1.104   .     S
C824   H697    1.108   1_655 S
C825   C827    1.526   .     S
C825   H878    1.110   .     S
C826   O882    1.294   .     A
C826   O884    1.309   .     A
C827   H877    1.111   .     S
C827   H876    1.099   .     S
C828   C842    1.512   .     S
C828   H852    1.112   .     S
C828   C829    1.532   .     S
C828   H853    1.103   .     S
C829   H850    1.109   .     S
C829   H849    1.106   .     S
C829   H851    1.111   .     S
C830   H859    1.113   .     S
C830   H858    1.105   .     S
C830   C831    1.530   .     S
C831   H857    1.107   .     S
C831   H855    1.106   .     S
C831   H854    1.108   .     S
C832   H864    1.090   .     S
C832   C833    1.535   .     S
C832   H863    1.107   .     S
C833   H862    1.111   .     S
C834   H870    1.086   .     S
C834   H869    1.109   .     S
C834   C835    1.523   .     S
C835   H865    1.111   .     S
C835   H866    1.104   .     S
C835   H1534   1.107   .     S
C836   C838    1.447   .     S
C836   O885    1.285   .     A
C836   O887    1.305   .     A
C837   O886    1.285   .     A
C837   C839    1.448   .     S
C837   O888    1.306   .     A
C839   C690    1.372   1_655 S
C839   C677    1.527   1_655 S
C840   H847    1.083   .     S
C840   C1286   1.388   1_545 S
C841   H848    1.082   .     S
C841   C1038   1.390   .     S
C842   C1062   1.388   .     S
Cu843  Cu844   2.700   .     S
Cu843  N879    2.029   .     S
Cu843  O884    1.976   .     S
Cu843  O885    1.978   .     S
Cu843  O888    1.982   .     S
Cu843  O881    1.987   .     S
Cu844  N880    2.029   .     S
Cu844  O887    1.982   .     S
Cu844  O883    1.976   .     S
Cu844  O882    1.987   .     S
Cu844  O886    1.978   .     S
H846   C677    1.112   1_655 S
H860   C1499   1.108   .     S
H861   C1499   1.109   .     S
H875   C679    1.108   1_655 S
C889   C892    1.465   .     S
C889   O957    1.306   .     A
C889   O955    1.296   .     A
C890   C892    1.420   .     A
C890   C904    1.512   .     S
C891   C900    1.467   .     S
C891   C915    1.396   .     A
C891   C916    1.420   .     A
C892   C914    1.397   .     A
C893   N954    1.398   .     A
C893   C906    1.525   .     S
C894   C908    1.516   .     S
C894   N953    1.395   .     A
C894   C1562   1.418   .     S
C895   N953    1.349   .     A
C895   H945    1.074   .     S
C895   C1559   1.422   .     S
C896   N954    1.350   .     A
C896   H946    1.078   .     S
C897   C898    1.528   .     S
C897   H948    1.109   .     S
C897   C986    1.527   .     S
C897   H1021   1.111   .     S
C898   H930    1.110   .     S
C898   H941    1.104   .     S
C898   H993    1.108   .     S
C899   C901    1.526   .     S
C899   H952    1.110   .     S
C899   C1061   1.527   1_455 S
C899   H1068   1.112   1_455 S
C900   O956    1.294   .     A
C900   O958    1.309   .     A
C901   H951    1.111   .     S
C901   H950    1.099   .     S
C901   H1097   1.108   1_455 S
C902   C916    1.512   .     S
C902   H926    1.112   .     S
C902   C903    1.532   .     S
C902   H927    1.103   .     S
C903   H924    1.109   .     S
C903   H923    1.106   .     S
C903   H925    1.111   .     S
C904   H933    1.113   .     S
C904   H932    1.105   .     S
C904   C905    1.530   .     S
C905   H931    1.107   .     S
C905   H929    1.106   .     S
C905   H928    1.108   .     S
C906   H938    1.090   .     S
C906   C907    1.535   .     S
C906   H937    1.107   .     S
C907   H936    1.111   .     S
C908   H944    1.086   .     S
C908   H943    1.109   .     S
C908   C909    1.523   .     S
C909   H939    1.111   .     S
C909   H940    1.104   .     S
C909   H1608   1.107   .     S
C910   C912    1.447   .     S
C910   O959    1.285   .     A
C910   O961    1.305   .     A
C911   O960    1.285   .     A
C911   C913    1.448   .     S
C911   O962    1.306   .     A
C912   C1045   1.527   1_455 S
C912   C1061   1.372   1_455 S
C913   C986    1.372   .     S
C913   C973    1.527   .     S
C914   H921    1.083   .     S
C915   H922    1.082   .     S
C915   C1112   1.390   .     S
C916   C1136   1.388   .     S
Cu917  Cu918   2.700   .     S
Cu917  N953    2.029   .     S
Cu917  O958    1.976   .     S
Cu917  O959    1.978   .     S
Cu917  O962    1.982   .     S
Cu917  O955    1.987   .     S
Cu918  N954    2.029   .     S
Cu918  O961    1.982   .     S
Cu918  O957    1.976   .     S
Cu918  O956    1.987   .     S
Cu918  O960    1.978   .     S
H919   C1046   1.108   1_455 S
H920   C973    1.112   .     S
H934   C1573   1.108   .     S
H935   C1573   1.109   .     S
H947   C1045   1.111   1_455 S
H949   C975    1.108   .     S
C963   C966    1.465   .     S
C963   O1031   1.306   .     A
C963   O1029   1.296   .     A
C964   C966    1.420   .     A
C964   C978    1.512   .     S
C965   C974    1.467   .     S
C965   C989    1.396   .     A
C965   C990    1.420   .     A
C966   C988    1.397   .     A
C967   N1028   1.398   .     A
C967   C980    1.525   .     S
C968   C982    1.516   .     S
C968   N1027   1.395   .     A
C968   C1636   1.418   .     S
C969   N1027   1.349   .     A
C969   H1019   1.074   .     S
C969   C1633   1.422   .     S
C970   N1028   1.350   .     A
C970   H1020   1.078   .     S
C971   C972    1.528   .     S
C971   H1022   1.109   .     S
C971   C1060   1.527   .     S
C971   H1095   1.111   .     S
C972   H1004   1.110   .     S
C972   H1015   1.104   .     S
C972   H1067   1.108   .     S
C973   C975    1.526   .     S
C973   H1026   1.110   .     S
C974   O1030   1.294   .     A
C974   O1032   1.309   .     A
C975   H1025   1.111   .     S
C975   H1024   1.099   .     S
C976   C990    1.512   .     S
C976   H1000   1.112   .     S
C976   C977    1.532   .     S
C976   H1001   1.103   .     S
C977   H998    1.109   .     S
C977   H997    1.106   .     S
C977   H999    1.111   .     S
C978   H1007   1.113   .     S
C978   H1006   1.105   .     S
C978   C979    1.530   .     S
C979   H1005   1.107   .     S
C979   H1003   1.106   .     S
C979   H1002   1.108   .     S
C980   H1012   1.090   .     S
C980   C981    1.535   .     S
C980   H1011   1.107   .     S
C981   H1010   1.111   .     S
C982   H1018   1.086   .     S
C982   H1017   1.109   .     S
C982   C983    1.523   .     S
C983   H1013   1.111   .     S
C983   H1014   1.104   .     S
C983   H1682   1.107   .     S
C984   C986    1.447   .     S
C984   O1033   1.285   .     A
C984   O1035   1.305   .     A
C985   O1034   1.285   .     A
C985   C987    1.448   .     S
C985   O1036   1.306   .     A
C987   C1060   1.372   .     S
C987   C1047   1.527   .     S
C988   H995    1.083   .     S
C989   H996    1.082   .     S
C989   C1186   1.390   .     S
C990   C1210   1.388   .     S
Cu991  Cu992   2.700   .     S
Cu991  N1027   2.029   .     S
Cu991  O1032   1.976   .     S
Cu991  O1033   1.978   .     S
Cu991  O1036   1.982   .     S
Cu991  O1029   1.987   .     S
Cu992  N1028   2.029   .     S
Cu992  O1035   1.982   .     S
Cu992  O1031   1.976   .     S
Cu992  O1030   1.987   .     S
Cu992  O1034   1.978   .     S
H994   C1047   1.112   .     S
H1008  C1647   1.108   .     S
H1009  C1647   1.109   .     S
H1023  C1049   1.108   .     S
C1037  C1040   1.465   .     S
C1037  O1105   1.306   .     A
C1037  O1103   1.296   .     A
C1038  C1040   1.420   .     A
C1038  C1052   1.512   .     S
C1039  C1048   1.467   .     S
C1039  C1063   1.396   .     A
C1039  C1064   1.420   .     A
C1040  C1062   1.397   .     A
C1041  N1102   1.398   .     A
C1041  C1054   1.525   .     S
C1042  C1056   1.516   .     S
C1042  N1101   1.395   .     A
C1042  C1710   1.418   .     S
C1043  N1101   1.349   .     A
C1043  H1093   1.074   .     S
C1043  C1707   1.422   .     S
C1044  N1102   1.350   .     A
C1044  H1094   1.078   .     S
C1045  C1046   1.528   .     S
C1045  H1096   1.109   .     S
C1045  C912    1.527   1_655 S
C1045  H947    1.111   1_655 S
C1046  H1078   1.110   .     S
C1046  H1089   1.104   .     S
C1046  H919    1.108   1_655 S
C1047  C1049   1.526   .     S
C1047  H1100   1.110   .     S
C1048  O1104   1.294   .     A
C1048  O1106   1.309   .     A
C1049  H1099   1.111   .     S
C1049  H1098   1.099   .     S
C1050  C1064   1.512   .     S
C1050  H1074   1.112   .     S
C1050  C1051   1.532   .     S
C1050  H1075   1.103   .     S
C1051  H1072   1.109   .     S
C1051  H1071   1.106   .     S
C1051  H1073   1.111   .     S
C1052  H1081   1.113   .     S
C1052  H1080   1.105   .     S
C1052  C1053   1.530   .     S
C1053  H1079   1.107   .     S
C1053  H1077   1.106   .     S
C1053  H1076   1.108   .     S
C1054  H1086   1.090   .     S
C1054  C1055   1.535   .     S
C1054  H1085   1.107   .     S
C1055  H1084   1.111   .     S
C1056  H1092   1.086   .     S
C1056  H1091   1.109   .     S
C1056  C1057   1.523   .     S
C1057  H1087   1.111   .     S
C1057  H1088   1.104   .     S
C1057  H1756   1.107   .     S
C1058  C1060   1.447   .     S
C1058  O1107   1.285   .     A
C1058  O1109   1.305   .     A
C1059  O1108   1.285   .     A
C1059  C1061   1.448   .     S
C1059  O1110   1.306   .     A
C1061  C912    1.372   1_655 S
C1061  C899    1.527   1_655 S
C1062  H1069   1.083   .     S
C1063  H1070   1.082   .     S
C1063  C1260   1.390   .     S
C1064  C1284   1.388   .     S
Cu1065 Cu1066  2.700   .     S
Cu1065 N1101   2.029   .     S
Cu1065 O1106   1.976   .     S
Cu1065 O1107   1.978   .     S
Cu1065 O1110   1.982   .     S
Cu1065 O1103   1.987   .     S
Cu1066 N1102   2.029   .     S
Cu1066 O1109   1.982   .     S
Cu1066 O1105   1.976   .     S
Cu1066 O1104   1.987   .     S
Cu1066 O1108   1.978   .     S
H1068  C899    1.112   1_655 S
H1082  C1721   1.108   .     S
H1083  C1721   1.109   .     S
H1097  C901    1.108   1_655 S
C1111  C1114   1.465   .     S
C1111  O1179   1.306   .     A
C1111  O1177   1.296   .     A
C1112  C1114   1.420   .     A
C1112  C1126   1.512   .     S
C1113  C1122   1.467   .     S
C1113  C1137   1.396   .     A
C1113  C1138   1.420   .     A
C1114  C1136   1.397   .     A
C1115  N1176   1.398   .     A
C1115  C1128   1.525   .     S
C1116  C1130   1.516   .     S
C1116  N1175   1.395   .     A
C1116  C1784   1.418   .     S
C1117  N1175   1.349   .     A
C1117  H1167   1.074   .     S
C1117  C1781   1.422   .     S
C1118  N1176   1.350   .     A
C1118  H1168   1.078   .     S
C1119  C1120   1.528   .     S
C1119  H1170   1.109   .     S
C1119  C1208   1.527   .     S
C1119  H1243   1.111   .     S
C1120  H1152   1.110   .     S
C1120  H1163   1.104   .     S
C1120  H1215   1.108   .     S
C1121  C1123   1.526   .     S
C1121  H1174   1.110   .     S
C1121  C1283   1.527   1_455 S
C1121  H1290   1.112   1_455 S
C1122  O1178   1.294   .     A
C1122  O1180   1.309   .     A
C1123  H1173   1.111   .     S
C1123  H1172   1.099   .     S
C1123  H1319   1.108   1_455 S
C1124  C1138   1.512   .     S
C1124  H1148   1.112   .     S
C1124  C1125   1.532   .     S
C1124  H1149   1.103   .     S
C1125  H1146   1.109   .     S
C1125  H1145   1.106   .     S
C1125  H1147   1.111   .     S
C1126  H1155   1.113   .     S
C1126  H1154   1.105   .     S
C1126  C1127   1.530   .     S
C1127  H1153   1.107   .     S
C1127  H1151   1.106   .     S
C1127  H1150   1.108   .     S
C1128  H1160   1.090   .     S
C1128  C1129   1.535   .     S
C1128  H1159   1.107   .     S
C1129  H1158   1.111   .     S
C1130  H1166   1.086   .     S
C1130  H1165   1.109   .     S
C1130  C1131   1.523   .     S
C1131  H1161   1.111   .     S
C1131  H1162   1.104   .     S
C1131  H1830   1.107   .     S
C1132  C1134   1.447   .     S
C1132  O1181   1.285   .     A
C1132  O1183   1.305   .     A
C1133  O1182   1.285   .     A
C1133  C1135   1.448   .     S
C1133  O1184   1.306   .     A
C1134  C1267   1.527   1_455 S
C1134  C1283   1.372   1_455 S
C1135  C1208   1.372   .     S
C1135  C1195   1.527   .     S
C1136  H1143   1.083   .     S
C1137  H1144   1.082   .     S
C1137  C668    1.390   1_565 S
C1138  C692    1.388   1_565 S
Cu1139 Cu1140  2.700   .     S
Cu1139 N1175   2.029   .     S
Cu1139 O1180   1.976   .     S
Cu1139 O1181   1.978   .     S
Cu1139 O1184   1.982   .     S
Cu1139 O1177   1.987   .     S
Cu1140 N1176   2.029   .     S
Cu1140 O1183   1.982   .     S
Cu1140 O1179   1.976   .     S
Cu1140 O1178   1.987   .     S
Cu1140 O1182   1.978   .     S
H1141  C1268   1.108   1_455 S
H1142  C1195   1.112   .     S
H1156  C1795   1.108   .     S
H1157  C1795   1.109   .     S
H1169  C1267   1.111   1_455 S
H1171  C1197   1.108   .     S
C1185  C1188   1.465   .     S
C1185  O1253   1.306   .     A
C1185  O1251   1.296   .     A
C1186  C1188   1.420   .     A
C1186  C1200   1.512   .     S
C1187  C1196   1.467   .     S
C1187  C1211   1.396   .     A
C1187  C1212   1.420   .     A
C1188  C1210   1.397   .     A
C1189  N1250   1.398   .     A
C1189  C1202   1.525   .     S
C1190  C1204   1.516   .     S
C1190  N1249   1.395   .     A
C1190  C1858   1.418   .     S
C1191  N1249   1.349   .     A
C1191  H1241   1.074   .     S
C1191  C1855   1.422   .     S
C1192  N1250   1.350   .     A
C1192  H1242   1.078   .     S
C1193  C1194   1.528   .     S
C1193  H1244   1.109   .     S
C1193  C1282   1.527   .     S
C1193  H1317   1.111   .     S
C1194  H1226   1.110   .     S
C1194  H1237   1.104   .     S
C1194  H1289   1.108   .     S
C1195  C1197   1.526   .     S
C1195  H1248   1.110   .     S
C1196  O1252   1.294   .     A
C1196  O1254   1.309   .     A
C1197  H1247   1.111   .     S
C1197  H1246   1.099   .     S
C1198  C1212   1.512   .     S
C1198  H1222   1.112   .     S
C1198  C1199   1.532   .     S
C1198  H1223   1.103   .     S
C1199  H1220   1.109   .     S
C1199  H1219   1.106   .     S
C1199  H1221   1.111   .     S
C1200  H1229   1.113   .     S
C1200  H1228   1.105   .     S
C1200  C1201   1.530   .     S
C1201  H1227   1.107   .     S
C1201  H1225   1.106   .     S
C1201  H1224   1.108   .     S
C1202  H1234   1.090   .     S
C1202  C1203   1.535   .     S
C1202  H1233   1.107   .     S
C1203  H1232   1.111   .     S
C1204  H1240   1.086   .     S
C1204  H1239   1.109   .     S
C1204  C1205   1.523   .     S
C1205  H1235   1.111   .     S
C1205  H1236   1.104   .     S
C1205  H1904   1.107   .     S
C1206  C1208   1.447   .     S
C1206  O1255   1.285   .     A
C1206  O1257   1.305   .     A
C1207  O1256   1.285   .     A
C1207  C1209   1.448   .     S
C1207  O1258   1.306   .     A
C1209  C1282   1.372   .     S
C1209  C1269   1.527   .     S
C1210  H1217   1.083   .     S
C1211  H1218   1.082   .     S
C1211  C742    1.390   1_565 S
C1212  C766    1.388   1_565 S
Cu1213 Cu1214  2.700   .     S
Cu1213 N1249   2.029   .     S
Cu1213 O1254   1.976   .     S
Cu1213 O1255   1.978   .     S
Cu1213 O1258   1.982   .     S
Cu1213 O1251   1.987   .     S
Cu1214 N1250   2.029   .     S
Cu1214 O1257   1.982   .     S
Cu1214 O1253   1.976   .     S
Cu1214 O1252   1.987   .     S
Cu1214 O1256   1.978   .     S
H1216  C1269   1.112   .     S
H1230  C1869   1.108   .     S
H1231  C1869   1.109   .     S
H1245  C1271   1.108   .     S
C1259  C1262   1.465   .     S
C1259  O1327   1.306   .     A
C1259  O1325   1.296   .     A
C1260  C1262   1.420   .     A
C1260  C1274   1.512   .     S
C1261  C1270   1.467   .     S
C1261  C1285   1.396   .     A
C1261  C1286   1.420   .     A
C1262  C1284   1.397   .     A
C1263  N1324   1.398   .     A
C1263  C1276   1.525   .     S
C1264  C1278   1.516   .     S
C1264  N1323   1.395   .     A
C1264  C1932   1.418   .     S
C1265  N1323   1.349   .     A
C1265  H1315   1.074   .     S
C1265  C1929   1.422   .     S
C1266  N1324   1.350   .     A
C1266  H1316   1.078   .     S
C1267  C1268   1.528   .     S
C1267  H1318   1.109   .     S
C1267  C1134   1.527   1_655 S
C1267  H1169   1.111   1_655 S
C1268  H1300   1.110   .     S
C1268  H1311   1.104   .     S
C1268  H1141   1.108   1_655 S
C1269  C1271   1.526   .     S
C1269  H1322   1.110   .     S
C1270  O1326   1.294   .     A
C1270  O1328   1.309   .     A
C1271  H1321   1.111   .     S
C1271  H1320   1.099   .     S
C1272  C1286   1.512   .     S
C1272  H1296   1.112   .     S
C1272  C1273   1.532   .     S
C1272  H1297   1.103   .     S
C1273  H1294   1.109   .     S
C1273  H1293   1.106   .     S
C1273  H1295   1.111   .     S
C1274  H1303   1.113   .     S
C1274  H1302   1.105   .     S
C1274  C1275   1.530   .     S
C1275  H1301   1.107   .     S
C1275  H1299   1.106   .     S
C1275  H1298   1.108   .     S
C1276  H1308   1.090   .     S
C1276  C1277   1.535   .     S
C1276  H1307   1.107   .     S
C1277  H1306   1.111   .     S
C1278  H1314   1.086   .     S
C1278  H1313   1.109   .     S
C1278  C1279   1.523   .     S
C1279  H1309   1.111   .     S
C1279  H1310   1.104   .     S
C1279  H1978   1.107   .     S
C1280  C1282   1.447   .     S
C1280  O1329   1.285   .     A
C1280  O1331   1.305   .     A
C1281  O1330   1.285   .     A
C1281  C1283   1.448   .     S
C1281  O1332   1.306   .     A
C1283  C1134   1.372   1_655 S
C1283  C1121   1.527   1_655 S
C1284  H1291   1.083   .     S
C1285  H1292   1.082   .     S
C1285  C816    1.390   1_565 S
C1286  C840    1.388   1_565 S
Cu1287 Cu1288  2.700   .     S
Cu1287 N1323   2.029   .     S
Cu1287 O1328   1.976   .     S
Cu1287 O1329   1.978   .     S
Cu1287 O1332   1.982   .     S
Cu1287 O1325   1.987   .     S
Cu1288 N1324   2.029   .     S
Cu1288 O1331   1.982   .     S
Cu1288 O1327   1.976   .     S
Cu1288 O1326   1.987   .     S
Cu1288 O1330   1.978   .     S
H1290  C1121   1.112   1_655 S
H1304  C1943   1.108   .     S
H1305  C1943   1.109   .     S
H1319  C1123   1.108   1_655 S
C1333  C1336   1.465   .     S
C1333  O1401   1.306   .     A
C1333  O1399   1.296   .     A
C1334  C1336   1.420   .     A
C1334  C1348   1.512   .     S
C1334  C1803   1.390   1_545 S
C1335  C1344   1.467   .     S
C1335  C1359   1.396   .     A
C1335  C1360   1.420   .     A
C1336  C1358   1.397   .     A
C1337  N1398   1.398   .     A
C1337  C1350   1.525   .     S
C1338  C1352   1.516   .     S
C1338  N1397   1.395   .     A
C1338  C8      1.418   1_556 S
C1339  N1397   1.349   .     A
C1339  H1389   1.074   .     S
C1339  C5      1.422   1_556 S
C1340  N1398   1.350   .     A
C1340  H1390   1.078   .     S
C1341  C1342   1.528   .     S
C1341  H1392   1.109   .     S
C1341  C1430   1.527   .     S
C1341  H1465   1.111   .     S
C1342  H1374   1.110   .     S
C1342  H1385   1.104   .     S
C1342  H1437   1.108   .     S
C1343  C1345   1.526   .     S
C1343  H1396   1.110   .     S
C1343  C1505   1.527   1_455 S
C1343  H1512   1.112   1_455 S
C1344  O1400   1.294   .     A
C1344  O1402   1.309   .     A
C1345  H1395   1.111   .     S
C1345  H1394   1.099   .     S
C1345  H1541   1.108   1_455 S
C1346  C1360   1.512   .     S
C1346  H1370   1.112   .     S
C1346  C1347   1.532   .     S
C1346  H1371   1.103   .     S
C1347  H1368   1.109   .     S
C1347  H1367   1.106   .     S
C1347  H1369   1.111   .     S
C1348  H1377   1.113   .     S
C1348  H1376   1.105   .     S
C1348  C1349   1.530   .     S
C1349  H1375   1.107   .     S
C1349  H1373   1.106   .     S
C1349  H1372   1.108   .     S
C1350  H1382   1.090   .     S
C1350  C1351   1.535   .     S
C1350  H1381   1.107   .     S
C1351  H1380   1.111   .     S
C1352  H1388   1.086   .     S
C1352  H1387   1.109   .     S
C1352  C1353   1.523   .     S
C1353  H1383   1.111   .     S
C1353  H1384   1.104   .     S
C1353  H54     1.107   1_556 S
C1354  C1356   1.447   .     S
C1354  O1403   1.285   .     A
C1354  O1405   1.305   .     A
C1355  O1404   1.285   .     A
C1355  C1357   1.448   .     S
C1355  O1406   1.306   .     A
C1356  C1489   1.527   1_455 S
C1356  C1505   1.372   1_455 S
C1357  C1430   1.372   .     S
C1357  C1417   1.527   .     S
C1358  H1365   1.083   .     S
C1358  C1804   1.388   1_545 S
C1359  H1366   1.082   .     S
C1359  C1556   1.390   .     S
C1360  C1580   1.388   .     S
Cu1361 Cu1362  2.700   .     S
Cu1361 N1397   2.029   .     S
Cu1361 O1402   1.976   .     S
Cu1361 O1403   1.978   .     S
Cu1361 O1406   1.982   .     S
Cu1361 O1399   1.987   .     S
Cu1362 N1398   2.029   .     S
Cu1362 O1405   1.982   .     S
Cu1362 O1401   1.976   .     S
Cu1362 O1400   1.987   .     S
Cu1362 O1404   1.978   .     S
H1363  C1490   1.108   1_455 S
H1364  C1417   1.112   .     S
H1378  C19     1.108   1_556 S
H1379  C19     1.109   1_556 S
H1391  C1489   1.111   1_455 S
H1393  C1419   1.108   .     S
C1407  C1410   1.465   .     S
C1407  O1475   1.306   .     A
C1407  O1473   1.296   .     A
C1408  C1410   1.420   .     A
C1408  C1422   1.512   .     S
C1408  C1877   1.390   1_545 S
C1409  C1418   1.467   .     S
C1409  C1433   1.396   .     A
C1409  C1434   1.420   .     A
C1410  C1432   1.397   .     A
C1411  N1472   1.398   .     A
C1411  C1424   1.525   .     S
C1412  C1426   1.516   .     S
C1412  N1471   1.395   .     A
C1412  C82     1.418   1_556 S
C1413  N1471   1.349   .     A
C1413  H1463   1.074   .     S
C1413  C79     1.422   1_556 S
C1414  N1472   1.350   .     A
C1414  H1464   1.078   .     S
C1415  C1416   1.528   .     S
C1415  H1466   1.109   .     S
C1415  C1504   1.527   .     S
C1415  H1539   1.111   .     S
C1416  H1448   1.110   .     S
C1416  H1459   1.104   .     S
C1416  H1511   1.108   .     S
C1417  C1419   1.526   .     S
C1417  H1470   1.110   .     S
C1418  O1474   1.294   .     A
C1418  O1476   1.309   .     A
C1419  H1469   1.111   .     S
C1419  H1468   1.099   .     S
C1420  C1434   1.512   .     S
C1420  H1444   1.112   .     S
C1420  C1421   1.532   .     S
C1420  H1445   1.103   .     S
C1421  H1442   1.109   .     S
C1421  H1441   1.106   .     S
C1421  H1443   1.111   .     S
C1422  H1451   1.113   .     S
C1422  H1450   1.105   .     S
C1422  C1423   1.530   .     S
C1423  H1449   1.107   .     S
C1423  H1447   1.106   .     S
C1423  H1446   1.108   .     S
C1424  H1456   1.090   .     S
C1424  C1425   1.535   .     S
C1424  H1455   1.107   .     S
C1425  H1454   1.111   .     S
C1426  H1462   1.086   .     S
C1426  H1461   1.109   .     S
C1426  C1427   1.523   .     S
C1427  H1457   1.111   .     S
C1427  H1458   1.104   .     S
C1427  H128    1.107   1_556 S
C1428  C1430   1.447   .     S
C1428  O1477   1.285   .     A
C1428  O1479   1.305   .     A
C1429  O1478   1.285   .     A
C1429  C1431   1.448   .     S
C1429  O1480   1.306   .     A
C1431  C1504   1.372   .     S
C1431  C1491   1.527   .     S
C1432  H1439   1.083   .     S
C1432  C1878   1.388   1_545 S
C1433  H1440   1.082   .     S
C1433  C1630   1.390   .     S
C1434  C1654   1.388   .     S
Cu1435 Cu1436  2.700   .     S
Cu1435 N1471   2.029   .     S
Cu1435 O1476   1.976   .     S
Cu1435 O1477   1.978   .     S
Cu1435 O1480   1.982   .     S
Cu1435 O1473   1.987   .     S
Cu1436 N1472   2.029   .     S
Cu1436 O1479   1.982   .     S
Cu1436 O1475   1.976   .     S
Cu1436 O1474   1.987   .     S
Cu1436 O1478   1.978   .     S
H1438  C1491   1.112   .     S
H1452  C93     1.108   1_556 S
H1453  C93     1.109   1_556 S
H1467  C1493   1.108   .     S
C1481  C1484   1.465   .     S
C1481  O1549   1.306   .     A
C1481  O1547   1.296   .     A
C1482  C1484   1.420   .     A
C1482  C1496   1.512   .     S
C1482  C1951   1.390   1_545 S
C1483  C1492   1.467   .     S
C1483  C1507   1.396   .     A
C1483  C1508   1.420   .     A
C1484  C1506   1.397   .     A
C1485  N1546   1.398   .     A
C1485  C1498   1.525   .     S
C1486  C1500   1.516   .     S
C1486  N1545   1.395   .     A
C1486  C156    1.418   1_556 S
C1487  N1545   1.349   .     A
C1487  H1537   1.074   .     S
C1487  C153    1.422   1_556 S
C1488  N1546   1.350   .     A
C1488  H1538   1.078   .     S
C1489  C1490   1.528   .     S
C1489  H1540   1.109   .     S
C1489  C1356   1.527   1_655 S
C1489  H1391   1.111   1_655 S
C1490  H1522   1.110   .     S
C1490  H1533   1.104   .     S
C1490  H1363   1.108   1_655 S
C1491  C1493   1.526   .     S
C1491  H1544   1.110   .     S
C1492  O1548   1.294   .     A
C1492  O1550   1.309   .     A
C1493  H1543   1.111   .     S
C1493  H1542   1.099   .     S
C1494  C1508   1.512   .     S
C1494  H1518   1.112   .     S
C1494  C1495   1.532   .     S
C1494  H1519   1.103   .     S
C1495  H1516   1.109   .     S
C1495  H1515   1.106   .     S
C1495  H1517   1.111   .     S
C1496  H1525   1.113   .     S
C1496  H1524   1.105   .     S
C1496  C1497   1.530   .     S
C1497  H1523   1.107   .     S
C1497  H1521   1.106   .     S
C1497  H1520   1.108   .     S
C1498  H1530   1.090   .     S
C1498  C1499   1.535   .     S
C1498  H1529   1.107   .     S
C1499  H1528   1.111   .     S
C1500  H1536   1.086   .     S
C1500  H1535   1.109   .     S
C1500  C1501   1.523   .     S
C1501  H1531   1.111   .     S
C1501  H1532   1.104   .     S
C1501  H202    1.107   1_556 S
C1502  C1504   1.447   .     S
C1502  O1551   1.285   .     A
C1502  O1553   1.305   .     A
C1503  O1552   1.285   .     A
C1503  C1505   1.448   .     S
C1503  O1554   1.306   .     A
C1505  C1356   1.372   1_655 S
C1505  C1343   1.527   1_655 S
C1506  H1513   1.083   .     S
C1506  C1952   1.388   1_545 S
C1507  H1514   1.082   .     S
C1507  C1704   1.390   .     S
C1508  C1728   1.388   .     S
Cu1509 Cu1510  2.700   .     S
Cu1509 N1545   2.029   .     S
Cu1509 O1550   1.976   .     S
Cu1509 O1551   1.978   .     S
Cu1509 O1554   1.982   .     S
Cu1509 O1547   1.987   .     S
Cu1510 N1546   2.029   .     S
Cu1510 O1553   1.982   .     S
Cu1510 O1549   1.976   .     S
Cu1510 O1548   1.987   .     S
Cu1510 O1552   1.978   .     S
H1512  C1343   1.112   1_655 S
H1526  C167    1.108   1_556 S
H1527  C167    1.109   1_556 S
H1541  C1345   1.108   1_655 S
C1555  C1558   1.465   .     S
C1555  O1623   1.306   .     A
C1555  O1621   1.296   .     A
C1556  C1558   1.420   .     A
C1556  C1570   1.512   .     S
C1557  C1566   1.467   .     S
C1557  C1581   1.396   .     A
C1557  C1582   1.420   .     A
C1558  C1580   1.397   .     A
C1559  N1620   1.398   .     A
C1559  C1572   1.525   .     S
C1560  C1574   1.516   .     S
C1560  N1619   1.395   .     A
C1560  C230    1.418   1_556 S
C1561  N1619   1.349   .     A
C1561  H1611   1.074   .     S
C1561  C227    1.422   1_556 S
C1562  N1620   1.350   .     A
C1562  H1612   1.078   .     S
C1563  C1564   1.528   .     S
C1563  H1614   1.109   .     S
C1563  C1652   1.527   .     S
C1563  H1687   1.111   .     S
C1564  H1596   1.110   .     S
C1564  H1607   1.104   .     S
C1564  H1659   1.108   .     S
C1565  C1567   1.526   .     S
C1565  H1618   1.110   .     S
C1565  C1727   1.527   1_455 S
C1565  H1734   1.112   1_455 S
C1566  O1622   1.294   .     A
C1566  O1624   1.309   .     A
C1567  H1617   1.111   .     S
C1567  H1616   1.099   .     S
C1567  H1763   1.108   1_455 S
C1568  C1582   1.512   .     S
C1568  H1592   1.112   .     S
C1568  C1569   1.532   .     S
C1568  H1593   1.103   .     S
C1569  H1590   1.109   .     S
C1569  H1589   1.106   .     S
C1569  H1591   1.111   .     S
C1570  H1599   1.113   .     S
C1570  H1598   1.105   .     S
C1570  C1571   1.530   .     S
C1571  H1597   1.107   .     S
C1571  H1595   1.106   .     S
C1571  H1594   1.108   .     S
C1572  H1604   1.090   .     S
C1572  C1573   1.535   .     S
C1572  H1603   1.107   .     S
C1573  H1602   1.111   .     S
C1574  H1610   1.086   .     S
C1574  H1609   1.109   .     S
C1574  C1575   1.523   .     S
C1575  H1605   1.111   .     S
C1575  H1606   1.104   .     S
C1575  H276    1.107   1_556 S
C1576  C1578   1.447   .     S
C1576  O1625   1.285   .     A
C1576  O1627   1.305   .     A
C1577  O1626   1.285   .     A
C1577  C1579   1.448   .     S
C1577  O1628   1.306   .     A
C1578  C1711   1.527   1_455 S
C1578  C1727   1.372   1_455 S
C1579  C1652   1.372   .     S
C1579  C1639   1.527   .     S
C1580  H1587   1.083   .     S
C1581  H1588   1.082   .     S
C1581  C1778   1.390   .     S
C1582  C1802   1.388   .     S
Cu1583 Cu1584  2.700   .     S
Cu1583 N1619   2.029   .     S
Cu1583 O1624   1.976   .     S
Cu1583 O1625   1.978   .     S
Cu1583 O1628   1.982   .     S
Cu1583 O1621   1.987   .     S
Cu1584 N1620   2.029   .     S
Cu1584 O1627   1.982   .     S
Cu1584 O1623   1.976   .     S
Cu1584 O1622   1.987   .     S
Cu1584 O1626   1.978   .     S
H1585  C1712   1.108   1_455 S
H1586  C1639   1.112   .     S
H1600  C241    1.108   1_556 S
H1601  C241    1.109   1_556 S
H1613  C1711   1.111   1_455 S
H1615  C1641   1.108   .     S
C1629  C1632   1.465   .     S
C1629  O1697   1.306   .     A
C1629  O1695   1.296   .     A
C1630  C1632   1.420   .     A
C1630  C1644   1.512   .     S
C1631  C1640   1.467   .     S
C1631  C1655   1.396   .     A
C1631  C1656   1.420   .     A
C1632  C1654   1.397   .     A
C1633  N1694   1.398   .     A
C1633  C1646   1.525   .     S
C1634  C1648   1.516   .     S
C1634  N1693   1.395   .     A
C1634  C304    1.418   1_556 S
C1635  N1693   1.349   .     A
C1635  H1685   1.074   .     S
C1635  C301    1.422   1_556 S
C1636  N1694   1.350   .     A
C1636  H1686   1.078   .     S
C1637  C1638   1.528   .     S
C1637  H1688   1.109   .     S
C1637  C1726   1.527   .     S
C1637  H1761   1.111   .     S
C1638  H1670   1.110   .     S
C1638  H1681   1.104   .     S
C1638  H1733   1.108   .     S
C1639  C1641   1.526   .     S
C1639  H1692   1.110   .     S
C1640  O1696   1.294   .     A
C1640  O1698   1.309   .     A
C1641  H1691   1.111   .     S
C1641  H1690   1.099   .     S
C1642  C1656   1.512   .     S
C1642  H1666   1.112   .     S
C1642  C1643   1.532   .     S
C1642  H1667   1.103   .     S
C1643  H1664   1.109   .     S
C1643  H1663   1.106   .     S
C1643  H1665   1.111   .     S
C1644  H1673   1.113   .     S
C1644  H1672   1.105   .     S
C1644  C1645   1.530   .     S
C1645  H1671   1.107   .     S
C1645  H1669   1.106   .     S
C1645  H1668   1.108   .     S
C1646  H1678   1.090   .     S
C1646  C1647   1.535   .     S
C1646  H1677   1.107   .     S
C1647  H1676   1.111   .     S
C1648  H1684   1.086   .     S
C1648  H1683   1.109   .     S
C1648  C1649   1.523   .     S
C1649  H1679   1.111   .     S
C1649  H1680   1.104   .     S
C1649  H350    1.107   1_556 S
C1650  C1652   1.447   .     S
C1650  O1699   1.285   .     A
C1650  O1701   1.305   .     A
C1651  O1700   1.285   .     A
C1651  C1653   1.448   .     S
C1651  O1702   1.306   .     A
C1653  C1726   1.372   .     S
C1653  C1713   1.527   .     S
C1654  H1661   1.083   .     S
C1655  H1662   1.082   .     S
C1655  C1852   1.390   .     S
C1656  C1876   1.388   .     S
Cu1657 Cu1658  2.700   .     S
Cu1657 N1693   2.029   .     S
Cu1657 O1698   1.976   .     S
Cu1657 O1699   1.978   .     S
Cu1657 O1702   1.982   .     S
Cu1657 O1695   1.987   .     S
Cu1658 N1694   2.029   .     S
Cu1658 O1701   1.982   .     S
Cu1658 O1697   1.976   .     S
Cu1658 O1696   1.987   .     S
Cu1658 O1700   1.978   .     S
H1660  C1713   1.112   .     S
H1674  C315    1.108   1_556 S
H1675  C315    1.109   1_556 S
H1689  C1715   1.108   .     S
C1703  C1706   1.465   .     S
C1703  O1771   1.306   .     A
C1703  O1769   1.296   .     A
C1704  C1706   1.420   .     A
C1704  C1718   1.512   .     S
C1705  C1714   1.467   .     S
C1705  C1729   1.396   .     A
C1705  C1730   1.420   .     A
C1706  C1728   1.397   .     A
C1707  N1768   1.398   .     A
C1707  C1720   1.525   .     S
C1708  C1722   1.516   .     S
C1708  N1767   1.395   .     A
C1708  C378    1.418   1_556 S
C1709  N1767   1.349   .     A
C1709  H1759   1.074   .     S
C1709  C375    1.422   1_556 S
C1710  N1768   1.350   .     A
C1710  H1760   1.078   .     S
C1711  C1712   1.528   .     S
C1711  H1762   1.109   .     S
C1711  C1578   1.527   1_655 S
C1711  H1613   1.111   1_655 S
C1712  H1744   1.110   .     S
C1712  H1755   1.104   .     S
C1712  H1585   1.108   1_655 S
C1713  C1715   1.526   .     S
C1713  H1766   1.110   .     S
C1714  O1770   1.294   .     A
C1714  O1772   1.309   .     A
C1715  H1765   1.111   .     S
C1715  H1764   1.099   .     S
C1716  C1730   1.512   .     S
C1716  H1740   1.112   .     S
C1716  C1717   1.532   .     S
C1716  H1741   1.103   .     S
C1717  H1738   1.109   .     S
C1717  H1737   1.106   .     S
C1717  H1739   1.111   .     S
C1718  H1747   1.113   .     S
C1718  H1746   1.105   .     S
C1718  C1719   1.530   .     S
C1719  H1745   1.107   .     S
C1719  H1743   1.106   .     S
C1719  H1742   1.108   .     S
C1720  H1752   1.090   .     S
C1720  C1721   1.535   .     S
C1720  H1751   1.107   .     S
C1721  H1750   1.111   .     S
C1722  H1758   1.086   .     S
C1722  H1757   1.109   .     S
C1722  C1723   1.523   .     S
C1723  H1753   1.111   .     S
C1723  H1754   1.104   .     S
C1723  H424    1.107   1_556 S
C1724  C1726   1.447   .     S
C1724  O1773   1.285   .     A
C1724  O1775   1.305   .     A
C1725  O1774   1.285   .     A
C1725  C1727   1.448   .     S
C1725  O1776   1.306   .     A
C1727  C1578   1.372   1_655 S
C1727  C1565   1.527   1_655 S
C1728  H1735   1.083   .     S
C1729  H1736   1.082   .     S
C1729  C1926   1.390   .     S
C1730  C1950   1.388   .     S
Cu1731 Cu1732  2.700   .     S
Cu1731 N1767   2.029   .     S
Cu1731 O1772   1.976   .     S
Cu1731 O1773   1.978   .     S
Cu1731 O1776   1.982   .     S
Cu1731 O1769   1.987   .     S
Cu1732 N1768   2.029   .     S
Cu1732 O1775   1.982   .     S
Cu1732 O1771   1.976   .     S
Cu1732 O1770   1.987   .     S
Cu1732 O1774   1.978   .     S
H1734  C1565   1.112   1_655 S
H1748  C389    1.108   1_556 S
H1749  C389    1.109   1_556 S
H1763  C1567   1.108   1_655 S
C1777  C1780   1.465   .     S
C1777  O1845   1.306   .     A
C1777  O1843   1.296   .     A
C1778  C1780   1.420   .     A
C1778  C1792   1.512   .     S
C1779  C1788   1.467   .     S
C1779  C1803   1.396   .     A
C1779  C1804   1.420   .     A
C1780  C1802   1.397   .     A
C1781  N1842   1.398   .     A
C1781  C1794   1.525   .     S
C1782  C1796   1.516   .     S
C1782  N1841   1.395   .     A
C1782  C452    1.418   1_556 S
C1783  N1841   1.349   .     A
C1783  H1833   1.074   .     S
C1783  C449    1.422   1_556 S
C1784  N1842   1.350   .     A
C1784  H1834   1.078   .     S
C1785  C1786   1.528   .     S
C1785  H1836   1.109   .     S
C1785  C1874   1.527   .     S
C1785  H1909   1.111   .     S
C1786  H1818   1.110   .     S
C1786  H1829   1.104   .     S
C1786  H1881   1.108   .     S
C1787  C1789   1.526   .     S
C1787  H1840   1.110   .     S
C1787  C1949   1.527   1_455 S
C1787  H1956   1.112   1_455 S
C1788  O1844   1.294   .     A
C1788  O1846   1.309   .     A
C1789  H1839   1.111   .     S
C1789  H1838   1.099   .     S
C1789  H1985   1.108   1_455 S
C1790  C1804   1.512   .     S
C1790  H1814   1.112   .     S
C1790  C1791   1.532   .     S
C1790  H1815   1.103   .     S
C1791  H1812   1.109   .     S
C1791  H1811   1.106   .     S
C1791  H1813   1.111   .     S
C1792  H1821   1.113   .     S
C1792  H1820   1.105   .     S
C1792  C1793   1.530   .     S
C1793  H1819   1.107   .     S
C1793  H1817   1.106   .     S
C1793  H1816   1.108   .     S
C1794  H1826   1.090   .     S
C1794  C1795   1.535   .     S
C1794  H1825   1.107   .     S
C1795  H1824   1.111   .     S
C1796  H1832   1.086   .     S
C1796  H1831   1.109   .     S
C1796  C1797   1.523   .     S
C1797  H1827   1.111   .     S
C1797  H1828   1.104   .     S
C1797  H498    1.107   1_556 S
C1798  C1800   1.447   .     S
C1798  O1847   1.285   .     A
C1798  O1849   1.305   .     A
C1799  O1848   1.285   .     A
C1799  C1801   1.448   .     S
C1799  O1850   1.306   .     A
C1800  C1933   1.527   1_455 S
C1800  C1949   1.372   1_455 S
C1801  C1874   1.372   .     S
C1801  C1861   1.527   .     S
C1802  H1809   1.083   .     S
C1803  H1810   1.082   .     S
C1803  C1334   1.390   1_565 S
C1804  C1358   1.388   1_565 S
Cu1805 Cu1806  2.700   .     S
Cu1805 N1841   2.029   .     S
Cu1805 O1846   1.976   .     S
Cu1805 O1847   1.978   .     S
Cu1805 O1850   1.982   .     S
Cu1805 O1843   1.987   .     S
Cu1806 N1842   2.029   .     S
Cu1806 O1849   1.982   .     S
Cu1806 O1845   1.976   .     S
Cu1806 O1844   1.987   .     S
Cu1806 O1848   1.978   .     S
H1807  C1934   1.108   1_455 S
H1808  C1861   1.112   .     S
H1822  C463    1.108   1_556 S
H1823  C463    1.109   1_556 S
H1835  C1933   1.111   1_455 S
H1837  C1863   1.108   .     S
C1851  C1854   1.465   .     S
C1851  O1919   1.306   .     A
C1851  O1917   1.296   .     A
C1852  C1854   1.420   .     A
C1852  C1866   1.512   .     S
C1853  C1862   1.467   .     S
C1853  C1877   1.396   .     A
C1853  C1878   1.420   .     A
C1854  C1876   1.397   .     A
C1855  N1916   1.398   .     A
C1855  C1868   1.525   .     S
C1856  C1870   1.516   .     S
C1856  N1915   1.395   .     A
C1856  C526    1.418   1_556 S
C1857  N1915   1.349   .     A
C1857  H1907   1.074   .     S
C1857  C523    1.422   1_556 S
C1858  N1916   1.350   .     A
C1858  H1908   1.078   .     S
C1859  C1860   1.528   .     S
C1859  H1910   1.109   .     S
C1859  C1948   1.527   .     S
C1859  H1983   1.111   .     S
C1860  H1892   1.110   .     S
C1860  H1903   1.104   .     S
C1860  H1955   1.108   .     S
C1861  C1863   1.526   .     S
C1861  H1914   1.110   .     S
C1862  O1918   1.294   .     A
C1862  O1920   1.309   .     A
C1863  H1913   1.111   .     S
C1863  H1912   1.099   .     S
C1864  C1878   1.512   .     S
C1864  H1888   1.112   .     S
C1864  C1865   1.532   .     S
C1864  H1889   1.103   .     S
C1865  H1886   1.109   .     S
C1865  H1885   1.106   .     S
C1865  H1887   1.111   .     S
C1866  H1895   1.113   .     S
C1866  H1894   1.105   .     S
C1866  C1867   1.530   .     S
C1867  H1893   1.107   .     S
C1867  H1891   1.106   .     S
C1867  H1890   1.108   .     S
C1868  H1900   1.090   .     S
C1868  C1869   1.535   .     S
C1868  H1899   1.107   .     S
C1869  H1898   1.111   .     S
C1870  H1906   1.086   .     S
C1870  H1905   1.109   .     S
C1870  C1871   1.523   .     S
C1871  H1901   1.111   .     S
C1871  H1902   1.104   .     S
C1871  H572    1.107   1_556 S
C1872  C1874   1.447   .     S
C1872  O1921   1.285   .     A
C1872  O1923   1.305   .     A
C1873  O1922   1.285   .     A
C1873  C1875   1.448   .     S
C1873  O1924   1.306   .     A
C1875  C1948   1.372   .     S
C1875  C1935   1.527   .     S
C1876  H1883   1.083   .     S
C1877  H1884   1.082   .     S
C1877  C1408   1.390   1_565 S
C1878  C1432   1.388   1_565 S
Cu1879 Cu1880  2.700   .     S
Cu1879 N1915   2.029   .     S
Cu1879 O1920   1.976   .     S
Cu1879 O1921   1.978   .     S
Cu1879 O1924   1.982   .     S
Cu1879 O1917   1.987   .     S
Cu1880 N1916   2.029   .     S
Cu1880 O1923   1.982   .     S
Cu1880 O1919   1.976   .     S
Cu1880 O1918   1.987   .     S
Cu1880 O1922   1.978   .     S
H1882  C1935   1.112   .     S
H1896  C537    1.108   1_556 S
H1897  C537    1.109   1_556 S
H1911  C1937   1.108   .     S
C1925  C1928   1.465   .     S
C1925  O1993   1.306   .     A
C1925  O1991   1.296   .     A
C1926  C1928   1.420   .     A
C1926  C1940   1.512   .     S
C1927  C1936   1.467   .     S
C1927  C1951   1.396   .     A
C1927  C1952   1.420   .     A
C1928  C1950   1.397   .     A
C1929  N1990   1.398   .     A
C1929  C1942   1.525   .     S
C1930  C1944   1.516   .     S
C1930  N1989   1.395   .     A
C1930  C600    1.418   1_556 S
C1931  N1989   1.349   .     A
C1931  H1981   1.074   .     S
C1931  C597    1.422   1_556 S
C1932  N1990   1.350   .     A
C1932  H1982   1.078   .     S
C1933  C1934   1.528   .     S
C1933  H1984   1.109   .     S
C1933  C1800   1.527   1_655 S
C1933  H1835   1.111   1_655 S
C1934  H1966   1.110   .     S
C1934  H1977   1.104   .     S
C1934  H1807   1.108   1_655 S
C1935  C1937   1.526   .     S
C1935  H1988   1.110   .     S
C1936  O1992   1.294   .     A
C1936  O1994   1.309   .     A
C1937  H1987   1.111   .     S
C1937  H1986   1.099   .     S
C1938  C1952   1.512   .     S
C1938  H1962   1.112   .     S
C1938  C1939   1.532   .     S
C1938  H1963   1.103   .     S
C1939  H1960   1.109   .     S
C1939  H1959   1.106   .     S
C1939  H1961   1.111   .     S
C1940  H1969   1.113   .     S
C1940  H1968   1.105   .     S
C1940  C1941   1.530   .     S
C1941  H1967   1.107   .     S
C1941  H1965   1.106   .     S
C1941  H1964   1.108   .     S
C1942  H1974   1.090   .     S
C1942  C1943   1.535   .     S
C1942  H1973   1.107   .     S
C1943  H1972   1.111   .     S
C1944  H1980   1.086   .     S
C1944  H1979   1.109   .     S
C1944  C1945   1.523   .     S
C1945  H1975   1.111   .     S
C1945  H1976   1.104   .     S
C1945  H646    1.107   1_556 S
C1946  C1948   1.447   .     S
C1946  O1995   1.285   .     A
C1946  O1997   1.305   .     A
C1947  O1996   1.285   .     A
C1947  C1949   1.448   .     S
C1947  O1998   1.306   .     A
C1949  C1800   1.372   1_655 S
C1949  C1787   1.527   1_655 S
C1950  H1957   1.083   .     S
C1951  H1958   1.082   .     S
C1951  C1482   1.390   1_565 S
C1952  C1506   1.388   1_565 S
Cu1953 Cu1954  2.700   .     S
Cu1953 N1989   2.029   .     S
Cu1953 O1994   1.976   .     S
Cu1953 O1995   1.978   .     S
Cu1953 O1998   1.982   .     S
Cu1953 O1991   1.987   .     S
Cu1954 N1990   2.029   .     S
Cu1954 O1997   1.982   .     S
Cu1954 O1993   1.976   .     S
Cu1954 O1992   1.987   .     S
Cu1954 O1996   1.978   .     S
H1956  C1787   1.112   1_655 S
H1970  C611    1.108   1_556 S
H1971  C611    1.109   1_556 S
H1985  C1789   1.108   1_655 S
