data_str_m3_o1_o16_pcu_sym.71
_audit_creation_date              2020-01-03
_audit_creation_method            'Materials Studio'
_symmetry_space_group_name_H-M    'P1'
_symmetry_Int_Tables_number       1
_symmetry_cell_setting            triclinic
loop_
_symmetry_equiv_pos_as_xyz
  x,y,z
_cell_length_a                    30.6752
_cell_length_b                    32.4445
_cell_length_c                    26.6261
_cell_angle_alpha                 92.0553
_cell_angle_beta                  70.7169
_cell_angle_gamma                 90.6918
loop_
_atom_site_label
_atom_site_type_symbol
_atom_site_fract_x
_atom_site_fract_y
_atom_site_fract_z
_atom_site_U_iso_or_equiv
_atom_site_adp_type
_atom_site_occupancy
C1     C     0.16735   0.24614   0.24884   0.00000  Uiso   1.00
C2     C     0.12289   0.17400   0.41179   0.00000  Uiso   1.00
C3     C     0.16276   0.31387   0.29285   0.00000  Uiso   1.00
C4     C     0.14016   0.16722   0.35217   0.00000  Uiso   1.00
C5     C     0.16144   0.02328   0.29132   0.00000  Uiso   1.00
C6     C     0.16852   0.04239   0.24314   0.00000  Uiso   1.00
C7     C     0.18306   0.01907   0.19484   0.00000  Uiso   1.00
C8     C     0.18147   0.30898   0.19637   0.00000  Uiso   1.00
C9     C     0.16944   0.29032   0.24603   0.00000  Uiso   1.00
C10    C     0.31702   0.13683   0.22310   0.00000  Uiso   1.00
C11    C     0.03140   0.13736   0.22213   0.00000  Uiso   1.00
C12    C     0.15298   0.18465   0.48592   0.00000  Uiso   1.00
C13    C     0.01724   0.19854   0.27268   0.00000  Uiso   1.00
C14    C     0.30220   0.19655   0.27675   0.00000  Uiso   1.00
C15    C     0.16814   0.08714   0.24437   0.00000  Uiso   1.00
C16    C     0.19266   0.16729   0.14851   0.00000  Uiso   1.00
C17    C     0.24899   0.12645   0.00926   0.00000  Uiso   1.00
C18    C     0.20801   0.16592   0.08986   0.00000  Uiso   1.00
C19    C     0.08608   0.20108   0.43788   0.00000  Uiso   1.00
C20    C     0.08687   0.22354   0.48369   0.00000  Uiso   1.00
C21    C     0.12432   0.22002   0.00269   0.00000  Uiso   1.00
C22    C     0.20783   0.05345   0.33922   0.00000  Uiso   1.00
C23    C     0.14908   0.16029   0.44230   0.00000  Uiso   1.00
C24    C     0.17878   0.05723   0.12054   0.00000  Uiso   1.00
C25    C     0.23615   0.26678   0.12693   0.00000  Uiso   1.00
C26    C     0.30310   0.10396   0.19197   0.00000  Uiso   1.00
C27    C     0.31330   0.10885   0.13738   0.00000  Uiso   1.00
C28    C     0.31834   0.07435   0.10304   0.00000  Uiso   1.00
C29    C     0.31180   0.03483   0.12317   0.00000  Uiso   1.00
C30    C     0.29896   0.02971   0.17801   0.00000  Uiso   1.00
C31    C     0.29581   0.06417   0.21204   0.00000  Uiso   1.00
C32    C     0.06473   0.11334   0.17875   0.00000  Uiso   1.00
C33    C     0.08181   0.13205   0.12933   0.00000  Uiso   1.00
C34    C     0.18392   0.17076   0.01176   0.00000  Uiso   1.00
C35    C     0.09624   0.10806   0.08236   0.00000  Uiso   1.00
C36    C     0.09199   0.06537   0.08393   0.00000  Uiso   1.00
C37    C     0.07592   0.04647   0.13301   0.00000  Uiso   1.00
C38    C     0.06459   0.07026   0.18041   0.00000  Uiso   1.00
C39    C     0.03589   0.23986   0.27843   0.00000  Uiso   1.00
C40    C     0.02572   0.25997   0.32835   0.00000  Uiso   1.00
C41    C     0.03451   0.30211   0.33242   0.00000  Uiso   1.00
C42    C     0.05610   0.32393   0.28673   0.00000  Uiso   1.00
C43    C     0.06729   0.30393   0.23682   0.00000  Uiso   1.00
C44    C     0.05562   0.26258   0.23240   0.00000  Uiso   1.00
C45    C     0.21558   0.13855   0.48697   0.00000  Uiso   1.00
C46    C     0.26998   0.22578   0.31416   0.00000  Uiso   1.00
C47    C     0.27235   0.26769   0.30212   0.00000  Uiso   1.00
C48    C     0.26390   0.29757   0.34330   0.00000  Uiso   1.00
C49    C     0.24664   0.28635   0.39639   0.00000  Uiso   1.00
C50    C     0.23939   0.24485   0.40838   0.00000  Uiso   1.00
C51    C     0.25151   0.21457   0.36753   0.00000  Uiso   1.00
C52    C     0.27114   0.05381   0.49343   0.00000  Uiso   1.00
C53    C     0.01529   0.17619   0.42796   0.00000  Uiso   1.00
C54    C     0.11186   0.29153   0.04185   0.00000  Uiso   1.00
C55    C     0.08918   0.08855   0.44740   0.00000  Uiso   1.00
C56    C     0.20783   0.11465   0.44610   0.00000  Uiso   1.00
C57    C     0.11563   0.28916   0.37741   0.00000  Uiso   1.00
C58    C     0.16731   0.12039   0.43464   0.00000  Uiso   1.00
C59    C     0.17934   0.18252   0.06454   0.00000  Uiso   1.00
C60    C     0.24595   0.14214   0.05994   0.00000  Uiso   1.00
H61    H     0.26906   0.13078   0.07844   0.00000  Uiso   1.00
H62    H     0.20035   0.07414   0.08618   0.00000  Uiso   1.00
H63    H     0.15479   0.07960   0.14771   0.00000  Uiso   1.00
H64    H     0.16134   0.03246   0.10495   0.00000  Uiso   1.00
H65    H     0.17938   0.29715   0.12003   0.00000  Uiso   1.00
H66    H     0.26253   0.29129   0.11568   0.00000  Uiso   1.00
H67    H     0.23883   0.24770   0.09063   0.00000  Uiso   1.00
H68    H     0.24401   0.24715   0.15593   0.00000  Uiso   1.00
H69    H     0.32258   0.13901   0.12082   0.00000  Uiso   1.00
H70    H     0.33047   0.07818   0.06055   0.00000  Uiso   1.00
H71    H     0.31797   0.00830   0.09602   0.00000  Uiso   1.00
H72    H     0.22720   0.08677   0.43155   0.00000  Uiso   1.00
H73    H     0.29511   0.33237   0.19357   0.00000  Uiso   1.00
H74    H     0.29469   0.05977   0.25233   0.00000  Uiso   1.00
H75    H     0.07960   0.16518   0.12698   0.00000  Uiso   1.00
H76    H     0.10754   0.12267   0.04476   0.00000  Uiso   1.00
H77    H     0.10054   0.04708   0.04727   0.00000  Uiso   1.00
H78    H     0.07087   0.01355   0.13408   0.00000  Uiso   1.00
H79    H     0.04987   0.05551   0.21799   0.00000  Uiso   1.00
H80    H     0.00654   0.24417   0.36357   0.00000  Uiso   1.00
H81    H     0.02406   0.31784   0.37107   0.00000  Uiso   1.00
H82    H     0.06422   0.02289   0.29013   0.00000  Uiso   1.00
H83    H     0.15029   0.20076   0.08861   0.00000  Uiso   1.00
H84    H     0.08554   0.32024   0.20161   0.00000  Uiso   1.00
H85    H     0.06268   0.24803   0.19325   0.00000  Uiso   1.00
H86    H     0.28812   0.27698   0.26143   0.00000  Uiso   1.00
H87    H     0.27390   0.32903   0.33414   0.00000  Uiso   1.00
H88    H     0.24025   0.30966   0.42809   0.00000  Uiso   1.00
H89    H     0.22826   0.23611   0.44935   0.00000  Uiso   1.00
H90    H     0.25096   0.18252   0.37770   0.00000  Uiso   1.00
H91    H     0.31544   0.10318   0.48600   0.00000  Uiso   1.00
H92    H     0.29547   0.03378   0.46224   0.00000  Uiso   1.00
H93    H     0.23551   0.04702   0.49375   0.00000  Uiso   1.00
H94    H     0.06042   0.24655   0.00080   0.00000  Uiso   1.00
H95    H     0.27352   0.04585   0.03248   0.00000  Uiso   1.00
H96    H     0.03446   0.23673   0.42940   0.00000  Uiso   1.00
H97    H     0.32039   0.18465   0.41292   0.00000  Uiso   1.00
H98    H     0.00031   0.17230   0.47157   0.00000  Uiso   1.00
H99    H     0.03040   0.14688   0.40744   0.00000  Uiso   1.00
H100   H     0.16969   0.25537   0.02965   0.00000  Uiso   1.00
H101   H     0.12717   0.31286   0.06479   0.00000  Uiso   1.00
H102   H     0.07455   0.28820   0.06461   0.00000  Uiso   1.00
H103   H     0.11691   0.30504   0.00260   0.00000  Uiso   1.00
H104   H     0.14793   0.05896   0.45146   0.00000  Uiso   1.00
H105   H     0.14284   0.07395   0.34224   0.00000  Uiso   1.00
H106   H     0.08200   0.10016   0.41243   0.00000  Uiso   1.00
H107   H     0.07322   0.10912   0.48270   0.00000  Uiso   1.00
H108   H     0.07278   0.05767   0.45533   0.00000  Uiso   1.00
H109   H     0.18058   0.30998   0.36020   0.00000  Uiso   1.00
H110   H     0.11832   0.27937   0.41547   0.00000  Uiso   1.00
H111   H     0.09833   0.26486   0.36099   0.00000  Uiso   1.00
H112   H     0.09608   0.31862   0.38566   0.00000  Uiso   1.00
H113   H     0.20986   0.04071   0.37631   0.00000  Uiso   1.00
H114   H     0.23357   0.03689   0.30602   0.00000  Uiso   1.00
H115   H     0.21712   0.08665   0.33735   0.00000  Uiso   1.00
H116   H     0.23158   0.02043   0.11967   0.00000  Uiso   1.00
N117   N     0.04760   0.16668   0.25002   0.00000  Uiso   1.00
N118   N     0.16120   0.29483   0.34069   0.00000  Uiso   1.00
N119   N     0.28573   0.16665   0.25000   0.00000  Uiso   1.00
N120   N     0.16176   0.04721   0.33663   0.00000  Uiso   1.00
N121   N     0.20718   0.03873   0.14655   0.00000  Uiso   1.00
N122   N     0.19018   0.28417   0.14866   0.00000  Uiso   1.00
N123   N     0.28356   0.09665   0.48264   0.00000  Uiso   1.00
N124   N     0.04979   0.20831   0.41725   0.00000  Uiso   1.00
N125   N     0.13495   0.25216   0.03517   0.00000  Uiso   1.00
N126   N     0.13866   0.08485   0.43590   0.00000  Uiso   1.00
O127   O     0.12846   0.22775   0.25001   0.00000  Uiso   1.00
O128   O     0.20490   0.22774   0.25000   0.00000  Uiso   1.00
O129   O     0.10947   0.16666   0.32681   0.00000  Uiso   1.00
O130   O     0.18591   0.16665   0.32681   0.00000  Uiso   1.00
O131   O     0.12843   0.10559   0.24999   0.00000  Uiso   1.00
O132   O     0.20488   0.10558   0.24999   0.00000  Uiso   1.00
O133   O     0.14742   0.16668   0.17319   0.00000  Uiso   1.00
O134   O     0.22387   0.16667   0.17319   0.00000  Uiso   1.00
Zn135  Zn    0.11562   0.16667   0.25000   0.00000  Uiso   1.00
Zn136  Zn    0.21771   0.16666   0.25000   0.00000  Uiso   1.00
C137   C     0.50068   0.24614   0.24884   0.00000  Uiso   1.00
C138   C     0.45622   0.17400   0.41179   0.00000  Uiso   1.00
C139   C     0.49610   0.31387   0.29285   0.00000  Uiso   1.00
C140   C     0.47350   0.16722   0.35217   0.00000  Uiso   1.00
C141   C     0.49477   0.02328   0.29132   0.00000  Uiso   1.00
C142   C     0.50186   0.04239   0.24314   0.00000  Uiso   1.00
C143   C     0.51640   0.01907   0.19484   0.00000  Uiso   1.00
C144   C     0.51480   0.30898   0.19637   0.00000  Uiso   1.00
C145   C     0.50277   0.29032   0.24603   0.00000  Uiso   1.00
C146   C     0.65035   0.13683   0.22310   0.00000  Uiso   1.00
C147   C     0.36474   0.13736   0.22213   0.00000  Uiso   1.00
C148   C     0.48631   0.18465   0.48592   0.00000  Uiso   1.00
C149   C     0.35057   0.19854   0.27268   0.00000  Uiso   1.00
C150   C     0.63554   0.19655   0.27675   0.00000  Uiso   1.00
C151   C     0.50147   0.08714   0.24437   0.00000  Uiso   1.00
C152   C     0.52599   0.16729   0.14851   0.00000  Uiso   1.00
C153   C     0.58233   0.12645   0.00926   0.00000  Uiso   1.00
C154   C     0.54134   0.16592   0.08986   0.00000  Uiso   1.00
C155   C     0.41942   0.20108   0.43788   0.00000  Uiso   1.00
C156   C     0.42020   0.22354   0.48369   0.00000  Uiso   1.00
C157   C     0.45765   0.22002   0.00269   0.00000  Uiso   1.00
C158   C     0.54117   0.05345   0.33922   0.00000  Uiso   1.00
C159   C     0.48241   0.16029   0.44230   0.00000  Uiso   1.00
C160   C     0.51212   0.05723   0.12054   0.00000  Uiso   1.00
C161   C     0.56948   0.26678   0.12693   0.00000  Uiso   1.00
C162   C     0.63644   0.10396   0.19197   0.00000  Uiso   1.00
C163   C     0.64663   0.10885   0.13738   0.00000  Uiso   1.00
C164   C     0.65167   0.07435   0.10304   0.00000  Uiso   1.00
C165   C     0.64513   0.03483   0.12317   0.00000  Uiso   1.00
C166   C     0.63229   0.02971   0.17801   0.00000  Uiso   1.00
C167   C     0.62915   0.06417   0.21204   0.00000  Uiso   1.00
C168   C     0.39806   0.11334   0.17875   0.00000  Uiso   1.00
C169   C     0.41515   0.13205   0.12933   0.00000  Uiso   1.00
C170   C     0.51726   0.17076   0.01176   0.00000  Uiso   1.00
C171   C     0.42958   0.10806   0.08236   0.00000  Uiso   1.00
C172   C     0.42532   0.06537   0.08393   0.00000  Uiso   1.00
C173   C     0.40925   0.04647   0.13301   0.00000  Uiso   1.00
C174   C     0.39793   0.07026   0.18041   0.00000  Uiso   1.00
C175   C     0.36923   0.23986   0.27843   0.00000  Uiso   1.00
C176   C     0.35906   0.25997   0.32835   0.00000  Uiso   1.00
C177   C     0.36784   0.30211   0.33242   0.00000  Uiso   1.00
C178   C     0.38943   0.32393   0.28673   0.00000  Uiso   1.00
C179   C     0.40062   0.30393   0.23682   0.00000  Uiso   1.00
C180   C     0.38896   0.26258   0.23240   0.00000  Uiso   1.00
C181   C     0.54891   0.13855   0.48697   0.00000  Uiso   1.00
C182   C     0.60332   0.22578   0.31416   0.00000  Uiso   1.00
C183   C     0.60568   0.26769   0.30212   0.00000  Uiso   1.00
C184   C     0.59723   0.29757   0.34330   0.00000  Uiso   1.00
C185   C     0.57997   0.28635   0.39639   0.00000  Uiso   1.00
C186   C     0.57272   0.24485   0.40838   0.00000  Uiso   1.00
C187   C     0.58484   0.21457   0.36753   0.00000  Uiso   1.00
C188   C     0.60448   0.05381   0.49343   0.00000  Uiso   1.00
C189   C     0.34863   0.17619   0.42796   0.00000  Uiso   1.00
C190   C     0.44519   0.29153   0.04185   0.00000  Uiso   1.00
C191   C     0.42252   0.08855   0.44740   0.00000  Uiso   1.00
C192   C     0.54117   0.11465   0.44610   0.00000  Uiso   1.00
C193   C     0.44897   0.28916   0.37741   0.00000  Uiso   1.00
C194   C     0.50064   0.12039   0.43464   0.00000  Uiso   1.00
C195   C     0.51267   0.18252   0.06454   0.00000  Uiso   1.00
C196   C     0.57928   0.14214   0.05994   0.00000  Uiso   1.00
H197   H     0.60239   0.13078   0.07844   0.00000  Uiso   1.00
H198   H     0.53369   0.07414   0.08618   0.00000  Uiso   1.00
H199   H     0.48812   0.07960   0.14771   0.00000  Uiso   1.00
H200   H     0.49467   0.03246   0.10495   0.00000  Uiso   1.00
H201   H     0.51272   0.29715   0.12003   0.00000  Uiso   1.00
H202   H     0.59586   0.29129   0.11568   0.00000  Uiso   1.00
H203   H     0.57216   0.24770   0.09063   0.00000  Uiso   1.00
H204   H     0.57734   0.24715   0.15593   0.00000  Uiso   1.00
H205   H     0.65591   0.13901   0.12082   0.00000  Uiso   1.00
H206   H     0.66380   0.07818   0.06055   0.00000  Uiso   1.00
H207   H     0.65130   0.00830   0.09602   0.00000  Uiso   1.00
H208   H     0.56054   0.08677   0.43155   0.00000  Uiso   1.00
H209   H     0.62844   0.33237   0.19357   0.00000  Uiso   1.00
H210   H     0.62802   0.05977   0.25233   0.00000  Uiso   1.00
H211   H     0.41294   0.16518   0.12698   0.00000  Uiso   1.00
H212   H     0.44088   0.12267   0.04476   0.00000  Uiso   1.00
H213   H     0.43387   0.04708   0.04727   0.00000  Uiso   1.00
H214   H     0.40420   0.01355   0.13408   0.00000  Uiso   1.00
H215   H     0.38321   0.05551   0.21799   0.00000  Uiso   1.00
H216   H     0.33987   0.24417   0.36357   0.00000  Uiso   1.00
H217   H     0.35739   0.31784   0.37107   0.00000  Uiso   1.00
H218   H     0.39755   0.02289   0.29013   0.00000  Uiso   1.00
H219   H     0.48362   0.20076   0.08861   0.00000  Uiso   1.00
H220   H     0.41888   0.32024   0.20161   0.00000  Uiso   1.00
H221   H     0.39601   0.24803   0.19325   0.00000  Uiso   1.00
H222   H     0.62145   0.27698   0.26143   0.00000  Uiso   1.00
H223   H     0.60723   0.32903   0.33414   0.00000  Uiso   1.00
H224   H     0.57358   0.30966   0.42809   0.00000  Uiso   1.00
H225   H     0.56159   0.23611   0.44935   0.00000  Uiso   1.00
H226   H     0.58429   0.18252   0.37770   0.00000  Uiso   1.00
H227   H     0.64877   0.10318   0.48600   0.00000  Uiso   1.00
H228   H     0.62880   0.03378   0.46224   0.00000  Uiso   1.00
H229   H     0.56884   0.04702   0.49375   0.00000  Uiso   1.00
H230   H     0.39375   0.24655   0.00080   0.00000  Uiso   1.00
H231   H     0.60685   0.04585   0.03248   0.00000  Uiso   1.00
H232   H     0.36779   0.23673   0.42940   0.00000  Uiso   1.00
H233   H     0.65372   0.18465   0.41292   0.00000  Uiso   1.00
H234   H     0.33364   0.17230   0.47157   0.00000  Uiso   1.00
H235   H     0.36373   0.14688   0.40744   0.00000  Uiso   1.00
H236   H     0.50303   0.25537   0.02965   0.00000  Uiso   1.00
H237   H     0.46051   0.31286   0.06479   0.00000  Uiso   1.00
H238   H     0.40788   0.28820   0.06461   0.00000  Uiso   1.00
H239   H     0.45024   0.30504   0.00260   0.00000  Uiso   1.00
H240   H     0.48127   0.05896   0.45146   0.00000  Uiso   1.00
H241   H     0.47617   0.07395   0.34224   0.00000  Uiso   1.00
H242   H     0.41534   0.10016   0.41243   0.00000  Uiso   1.00
H243   H     0.40655   0.10912   0.48270   0.00000  Uiso   1.00
H244   H     0.40611   0.05767   0.45533   0.00000  Uiso   1.00
H245   H     0.51391   0.30998   0.36020   0.00000  Uiso   1.00
H246   H     0.45166   0.27937   0.41547   0.00000  Uiso   1.00
H247   H     0.43166   0.26486   0.36099   0.00000  Uiso   1.00
H248   H     0.42942   0.31862   0.38566   0.00000  Uiso   1.00
H249   H     0.54319   0.04071   0.37631   0.00000  Uiso   1.00
H250   H     0.56690   0.03689   0.30602   0.00000  Uiso   1.00
H251   H     0.55046   0.08665   0.33735   0.00000  Uiso   1.00
H252   H     0.56491   0.02043   0.11967   0.00000  Uiso   1.00
N253   N     0.38093   0.16668   0.25002   0.00000  Uiso   1.00
N254   N     0.49453   0.29483   0.34069   0.00000  Uiso   1.00
N255   N     0.61906   0.16665   0.25000   0.00000  Uiso   1.00
N256   N     0.49509   0.04721   0.33663   0.00000  Uiso   1.00
N257   N     0.54051   0.03873   0.14655   0.00000  Uiso   1.00
N258   N     0.52351   0.28417   0.14866   0.00000  Uiso   1.00
N259   N     0.61689   0.09665   0.48264   0.00000  Uiso   1.00
N260   N     0.38312   0.20831   0.41725   0.00000  Uiso   1.00
N261   N     0.46829   0.25216   0.03517   0.00000  Uiso   1.00
N262   N     0.47200   0.08485   0.43590   0.00000  Uiso   1.00
O263   O     0.46179   0.22775   0.25001   0.00000  Uiso   1.00
O264   O     0.53823   0.22774   0.25000   0.00000  Uiso   1.00
O265   O     0.44280   0.16666   0.32681   0.00000  Uiso   1.00
O266   O     0.51924   0.16665   0.32681   0.00000  Uiso   1.00
O267   O     0.46177   0.10559   0.24999   0.00000  Uiso   1.00
O268   O     0.53821   0.10558   0.24999   0.00000  Uiso   1.00
O269   O     0.48076   0.16668   0.17319   0.00000  Uiso   1.00
O270   O     0.55720   0.16667   0.17319   0.00000  Uiso   1.00
Zn271  Zn    0.44896   0.16667   0.25000   0.00000  Uiso   1.00
Zn272  Zn    0.55104   0.16666   0.25000   0.00000  Uiso   1.00
C273   C     0.83402   0.24614   0.24884   0.00000  Uiso   1.00
C274   C     0.78956   0.17400   0.41179   0.00000  Uiso   1.00
C275   C     0.82943   0.31387   0.29285   0.00000  Uiso   1.00
C276   C     0.80683   0.16722   0.35217   0.00000  Uiso   1.00
C277   C     0.82810   0.02328   0.29132   0.00000  Uiso   1.00
C278   C     0.83519   0.04239   0.24314   0.00000  Uiso   1.00
C279   C     0.84973   0.01907   0.19484   0.00000  Uiso   1.00
C280   C     0.84813   0.30898   0.19637   0.00000  Uiso   1.00
C281   C     0.83610   0.29032   0.24603   0.00000  Uiso   1.00
C282   C     0.98369   0.13683   0.22310   0.00000  Uiso   1.00
C283   C     0.69807   0.13736   0.22213   0.00000  Uiso   1.00
C284   C     0.81965   0.18465   0.48592   0.00000  Uiso   1.00
C285   C     0.68391   0.19854   0.27268   0.00000  Uiso   1.00
C286   C     0.96887   0.19655   0.27675   0.00000  Uiso   1.00
C287   C     0.83481   0.08714   0.24437   0.00000  Uiso   1.00
C288   C     0.85933   0.16729   0.14851   0.00000  Uiso   1.00
C289   C     0.91566   0.12645   0.00926   0.00000  Uiso   1.00
C290   C     0.87467   0.16592   0.08986   0.00000  Uiso   1.00
C291   C     0.75275   0.20108   0.43788   0.00000  Uiso   1.00
C292   C     0.75354   0.22354   0.48369   0.00000  Uiso   1.00
C293   C     0.79099   0.22002   0.00269   0.00000  Uiso   1.00
C294   C     0.87450   0.05345   0.33922   0.00000  Uiso   1.00
C295   C     0.81575   0.16029   0.44230   0.00000  Uiso   1.00
C296   C     0.84545   0.05723   0.12054   0.00000  Uiso   1.00
C297   C     0.90281   0.26678   0.12693   0.00000  Uiso   1.00
C298   C     0.96977   0.10396   0.19197   0.00000  Uiso   1.00
C299   C     0.97996   0.10885   0.13738   0.00000  Uiso   1.00
C300   C     0.98500   0.07435   0.10304   0.00000  Uiso   1.00
C301   C     0.97847   0.03483   0.12317   0.00000  Uiso   1.00
C302   C     0.96562   0.02971   0.17801   0.00000  Uiso   1.00
C303   C     0.96248   0.06417   0.21204   0.00000  Uiso   1.00
C304   C     0.73140   0.11334   0.17875   0.00000  Uiso   1.00
C305   C     0.74848   0.13205   0.12933   0.00000  Uiso   1.00
C306   C     0.85059   0.17076   0.01176   0.00000  Uiso   1.00
C307   C     0.76291   0.10806   0.08236   0.00000  Uiso   1.00
C308   C     0.75865   0.06537   0.08393   0.00000  Uiso   1.00
C309   C     0.74258   0.04647   0.13301   0.00000  Uiso   1.00
C310   C     0.73126   0.07026   0.18041   0.00000  Uiso   1.00
C311   C     0.70256   0.23986   0.27843   0.00000  Uiso   1.00
C312   C     0.69239   0.25997   0.32835   0.00000  Uiso   1.00
C313   C     0.70117   0.30211   0.33242   0.00000  Uiso   1.00
C314   C     0.72276   0.32393   0.28673   0.00000  Uiso   1.00
C315   C     0.73395   0.30393   0.23682   0.00000  Uiso   1.00
C316   C     0.72229   0.26258   0.23240   0.00000  Uiso   1.00
C317   C     0.88224   0.13855   0.48697   0.00000  Uiso   1.00
C318   C     0.93665   0.22578   0.31416   0.00000  Uiso   1.00
C319   C     0.93902   0.26769   0.30212   0.00000  Uiso   1.00
C320   C     0.93057   0.29757   0.34330   0.00000  Uiso   1.00
C321   C     0.91331   0.28635   0.39639   0.00000  Uiso   1.00
C322   C     0.90605   0.24485   0.40838   0.00000  Uiso   1.00
C323   C     0.91817   0.21457   0.36753   0.00000  Uiso   1.00
C324   C     0.93781   0.05381   0.49343   0.00000  Uiso   1.00
C325   C     0.68196   0.17619   0.42796   0.00000  Uiso   1.00
C326   C     0.77852   0.29153   0.04185   0.00000  Uiso   1.00
C327   C     0.75585   0.08855   0.44740   0.00000  Uiso   1.00
C328   C     0.87450   0.11465   0.44610   0.00000  Uiso   1.00
C329   C     0.78230   0.28916   0.37741   0.00000  Uiso   1.00
C330   C     0.83397   0.12039   0.43464   0.00000  Uiso   1.00
C331   C     0.84600   0.18252   0.06454   0.00000  Uiso   1.00
C332   C     0.91262   0.14214   0.05994   0.00000  Uiso   1.00
H333   H     0.93573   0.13078   0.07844   0.00000  Uiso   1.00
H334   H     0.86702   0.07414   0.08618   0.00000  Uiso   1.00
H335   H     0.82145   0.07960   0.14771   0.00000  Uiso   1.00
H336   H     0.82800   0.03246   0.10495   0.00000  Uiso   1.00
H337   H     0.84605   0.29715   0.12003   0.00000  Uiso   1.00
H338   H     0.92920   0.29129   0.11568   0.00000  Uiso   1.00
H339   H     0.90550   0.24770   0.09063   0.00000  Uiso   1.00
H340   H     0.91067   0.24715   0.15593   0.00000  Uiso   1.00
H341   H     0.98924   0.13901   0.12082   0.00000  Uiso   1.00
H342   H     0.99713   0.07818   0.06055   0.00000  Uiso   1.00
H343   H     0.98463   0.00830   0.09602   0.00000  Uiso   1.00
H344   H     0.89387   0.08677   0.43155   0.00000  Uiso   1.00
H345   H     0.96177   0.33237   0.19357   0.00000  Uiso   1.00
H346   H     0.96136   0.05977   0.25233   0.00000  Uiso   1.00
H347   H     0.74627   0.16518   0.12698   0.00000  Uiso   1.00
H348   H     0.77421   0.12267   0.04476   0.00000  Uiso   1.00
H349   H     0.76720   0.04708   0.04727   0.00000  Uiso   1.00
H350   H     0.73753   0.01355   0.13408   0.00000  Uiso   1.00
H351   H     0.71654   0.05551   0.21799   0.00000  Uiso   1.00
H352   H     0.67320   0.24417   0.36357   0.00000  Uiso   1.00
H353   H     0.69073   0.31784   0.37107   0.00000  Uiso   1.00
H354   H     0.73088   0.02289   0.29013   0.00000  Uiso   1.00
H355   H     0.81696   0.20076   0.08861   0.00000  Uiso   1.00
H356   H     0.75221   0.32024   0.20161   0.00000  Uiso   1.00
H357   H     0.72935   0.24803   0.19325   0.00000  Uiso   1.00
H358   H     0.95479   0.27698   0.26143   0.00000  Uiso   1.00
H359   H     0.94057   0.32903   0.33414   0.00000  Uiso   1.00
H360   H     0.90692   0.30966   0.42809   0.00000  Uiso   1.00
H361   H     0.89493   0.23611   0.44935   0.00000  Uiso   1.00
H362   H     0.91762   0.18252   0.37770   0.00000  Uiso   1.00
H363   H     0.98210   0.10318   0.48600   0.00000  Uiso   1.00
H364   H     0.96214   0.03378   0.46224   0.00000  Uiso   1.00
H365   H     0.90218   0.04702   0.49375   0.00000  Uiso   1.00
H366   H     0.72709   0.24655   0.00080   0.00000  Uiso   1.00
H367   H     0.94019   0.04585   0.03248   0.00000  Uiso   1.00
H368   H     0.70112   0.23673   0.42940   0.00000  Uiso   1.00
H369   H     0.98706   0.18465   0.41292   0.00000  Uiso   1.00
H370   H     0.66698   0.17230   0.47157   0.00000  Uiso   1.00
H371   H     0.69707   0.14688   0.40744   0.00000  Uiso   1.00
H372   H     0.83636   0.25537   0.02965   0.00000  Uiso   1.00
H373   H     0.79384   0.31286   0.06479   0.00000  Uiso   1.00
H374   H     0.74121   0.28820   0.06461   0.00000  Uiso   1.00
H375   H     0.78357   0.30504   0.00260   0.00000  Uiso   1.00
H376   H     0.81460   0.05896   0.45146   0.00000  Uiso   1.00
H377   H     0.80950   0.07395   0.34224   0.00000  Uiso   1.00
H378   H     0.74867   0.10016   0.41243   0.00000  Uiso   1.00
H379   H     0.73988   0.10912   0.48270   0.00000  Uiso   1.00
H380   H     0.73944   0.05767   0.45533   0.00000  Uiso   1.00
H381   H     0.84724   0.30998   0.36020   0.00000  Uiso   1.00
H382   H     0.78499   0.27937   0.41547   0.00000  Uiso   1.00
H383   H     0.76500   0.26486   0.36099   0.00000  Uiso   1.00
H384   H     0.76275   0.31862   0.38566   0.00000  Uiso   1.00
H385   H     0.87652   0.04071   0.37631   0.00000  Uiso   1.00
H386   H     0.90023   0.03689   0.30602   0.00000  Uiso   1.00
H387   H     0.88379   0.08665   0.33735   0.00000  Uiso   1.00
H388   H     0.89824   0.02043   0.11967   0.00000  Uiso   1.00
N389   N     0.71426   0.16668   0.25002   0.00000  Uiso   1.00
N390   N     0.82786   0.29483   0.34069   0.00000  Uiso   1.00
N391   N     0.95239   0.16665   0.25000   0.00000  Uiso   1.00
N392   N     0.82842   0.04721   0.33663   0.00000  Uiso   1.00
N393   N     0.87384   0.03873   0.14655   0.00000  Uiso   1.00
N394   N     0.85685   0.28417   0.14866   0.00000  Uiso   1.00
N395   N     0.95023   0.09665   0.48264   0.00000  Uiso   1.00
N396   N     0.71645   0.20831   0.41725   0.00000  Uiso   1.00
N397   N     0.80162   0.25216   0.03517   0.00000  Uiso   1.00
N398   N     0.80533   0.08485   0.43590   0.00000  Uiso   1.00
O399   O     0.79512   0.22775   0.25001   0.00000  Uiso   1.00
O400   O     0.87157   0.22774   0.25000   0.00000  Uiso   1.00
O401   O     0.77613   0.16666   0.32681   0.00000  Uiso   1.00
O402   O     0.85258   0.16665   0.32681   0.00000  Uiso   1.00
O403   O     0.79510   0.10559   0.24999   0.00000  Uiso   1.00
O404   O     0.87154   0.10558   0.24999   0.00000  Uiso   1.00
O405   O     0.81409   0.16668   0.17319   0.00000  Uiso   1.00
O406   O     0.89053   0.16667   0.17319   0.00000  Uiso   1.00
Zn407  Zn    0.78229   0.16667   0.25000   0.00000  Uiso   1.00
Zn408  Zn    0.88438   0.16666   0.25000   0.00000  Uiso   1.00
C409   C     0.16735   0.57948   0.24884   0.00000  Uiso   1.00
C410   C     0.12289   0.50733   0.41179   0.00000  Uiso   1.00
C411   C     0.16276   0.64721   0.29285   0.00000  Uiso   1.00
C412   C     0.14016   0.50055   0.35217   0.00000  Uiso   1.00
C413   C     0.16144   0.35661   0.29132   0.00000  Uiso   1.00
C414   C     0.16852   0.37572   0.24314   0.00000  Uiso   1.00
C415   C     0.18306   0.35240   0.19484   0.00000  Uiso   1.00
C416   C     0.18147   0.64231   0.19637   0.00000  Uiso   1.00
C417   C     0.16944   0.62366   0.24603   0.00000  Uiso   1.00
C418   C     0.31702   0.47017   0.22310   0.00000  Uiso   1.00
C419   C     0.03140   0.47069   0.22213   0.00000  Uiso   1.00
C420   C     0.15298   0.51798   0.48592   0.00000  Uiso   1.00
C421   C     0.01724   0.53188   0.27268   0.00000  Uiso   1.00
C422   C     0.30220   0.52988   0.27675   0.00000  Uiso   1.00
C423   C     0.16814   0.42048   0.24437   0.00000  Uiso   1.00
C424   C     0.19266   0.50062   0.14851   0.00000  Uiso   1.00
C425   C     0.24899   0.45978   0.00926   0.00000  Uiso   1.00
C426   C     0.20801   0.49926   0.08986   0.00000  Uiso   1.00
C427   C     0.08608   0.53441   0.43788   0.00000  Uiso   1.00
C428   C     0.08687   0.55688   0.48369   0.00000  Uiso   1.00
C429   C     0.12432   0.55335   0.00269   0.00000  Uiso   1.00
C430   C     0.20783   0.38678   0.33922   0.00000  Uiso   1.00
C431   C     0.14908   0.49362   0.44230   0.00000  Uiso   1.00
C432   C     0.17878   0.39056   0.12054   0.00000  Uiso   1.00
C433   C     0.23615   0.60012   0.12693   0.00000  Uiso   1.00
C434   C     0.30310   0.43730   0.19197   0.00000  Uiso   1.00
C435   C     0.31330   0.44219   0.13738   0.00000  Uiso   1.00
C436   C     0.31834   0.40768   0.10304   0.00000  Uiso   1.00
C437   C     0.31180   0.36816   0.12317   0.00000  Uiso   1.00
C438   C     0.29896   0.36304   0.17801   0.00000  Uiso   1.00
C439   C     0.29581   0.39750   0.21204   0.00000  Uiso   1.00
C440   C     0.06473   0.44668   0.17875   0.00000  Uiso   1.00
C441   C     0.08181   0.46539   0.12933   0.00000  Uiso   1.00
C442   C     0.18392   0.50409   0.01176   0.00000  Uiso   1.00
C443   C     0.09624   0.44139   0.08236   0.00000  Uiso   1.00
C444   C     0.09199   0.39870   0.08393   0.00000  Uiso   1.00
C445   C     0.07592   0.37981   0.13301   0.00000  Uiso   1.00
C446   C     0.06459   0.40359   0.18041   0.00000  Uiso   1.00
C447   C     0.03589   0.57320   0.27843   0.00000  Uiso   1.00
C448   C     0.02572   0.59330   0.32835   0.00000  Uiso   1.00
C449   C     0.03451   0.63544   0.33242   0.00000  Uiso   1.00
C450   C     0.05610   0.65726   0.28673   0.00000  Uiso   1.00
C451   C     0.06729   0.63727   0.23682   0.00000  Uiso   1.00
C452   C     0.05562   0.59592   0.23240   0.00000  Uiso   1.00
C453   C     0.21558   0.47188   0.48697   0.00000  Uiso   1.00
C454   C     0.26998   0.55911   0.31416   0.00000  Uiso   1.00
C455   C     0.27235   0.60102   0.30212   0.00000  Uiso   1.00
C456   C     0.26390   0.63090   0.34330   0.00000  Uiso   1.00
C457   C     0.24664   0.61968   0.39639   0.00000  Uiso   1.00
C458   C     0.23939   0.57819   0.40838   0.00000  Uiso   1.00
C459   C     0.25151   0.54791   0.36753   0.00000  Uiso   1.00
C460   C     0.27114   0.38714   0.49343   0.00000  Uiso   1.00
C461   C     0.01529   0.50952   0.42796   0.00000  Uiso   1.00
C462   C     0.11186   0.62486   0.04185   0.00000  Uiso   1.00
C463   C     0.08918   0.42189   0.44740   0.00000  Uiso   1.00
C464   C     0.20783   0.44799   0.44610   0.00000  Uiso   1.00
C465   C     0.11563   0.62249   0.37741   0.00000  Uiso   1.00
C466   C     0.16731   0.45372   0.43464   0.00000  Uiso   1.00
C467   C     0.17934   0.51585   0.06454   0.00000  Uiso   1.00
C468   C     0.24595   0.47547   0.05994   0.00000  Uiso   1.00
H469   H     0.26906   0.46412   0.07844   0.00000  Uiso   1.00
H470   H     0.20035   0.40747   0.08618   0.00000  Uiso   1.00
H471   H     0.15479   0.41294   0.14771   0.00000  Uiso   1.00
H472   H     0.16134   0.36579   0.10495   0.00000  Uiso   1.00
H473   H     0.17938   0.63048   0.12003   0.00000  Uiso   1.00
H474   H     0.26253   0.62462   0.11568   0.00000  Uiso   1.00
H475   H     0.23883   0.58103   0.09063   0.00000  Uiso   1.00
H476   H     0.24401   0.58049   0.15593   0.00000  Uiso   1.00
H477   H     0.32258   0.47235   0.12082   0.00000  Uiso   1.00
H478   H     0.33047   0.41152   0.06055   0.00000  Uiso   1.00
H479   H     0.31797   0.34163   0.09602   0.00000  Uiso   1.00
H480   H     0.22720   0.42010   0.43155   0.00000  Uiso   1.00
H481   H     0.29511   0.66570   0.19357   0.00000  Uiso   1.00
H482   H     0.29469   0.39310   0.25233   0.00000  Uiso   1.00
H483   H     0.07960   0.49851   0.12698   0.00000  Uiso   1.00
H484   H     0.10754   0.45600   0.04476   0.00000  Uiso   1.00
H485   H     0.10054   0.38041   0.04727   0.00000  Uiso   1.00
H486   H     0.07087   0.34688   0.13408   0.00000  Uiso   1.00
H487   H     0.04987   0.38884   0.21799   0.00000  Uiso   1.00
H488   H     0.00654   0.57751   0.36357   0.00000  Uiso   1.00
H489   H     0.02406   0.65118   0.37107   0.00000  Uiso   1.00
H490   H     0.06422   0.35623   0.29013   0.00000  Uiso   1.00
H491   H     0.15029   0.53410   0.08861   0.00000  Uiso   1.00
H492   H     0.08554   0.65358   0.20161   0.00000  Uiso   1.00
H493   H     0.06268   0.58136   0.19325   0.00000  Uiso   1.00
H494   H     0.28812   0.61031   0.26143   0.00000  Uiso   1.00
H495   H     0.27390   0.66236   0.33414   0.00000  Uiso   1.00
H496   H     0.24025   0.64299   0.42809   0.00000  Uiso   1.00
H497   H     0.22826   0.56945   0.44935   0.00000  Uiso   1.00
H498   H     0.25096   0.51586   0.37770   0.00000  Uiso   1.00
H499   H     0.31544   0.43651   0.48600   0.00000  Uiso   1.00
H500   H     0.29547   0.36711   0.46224   0.00000  Uiso   1.00
H501   H     0.23551   0.38036   0.49375   0.00000  Uiso   1.00
H502   H     0.06042   0.57988   0.00080   0.00000  Uiso   1.00
H503   H     0.27352   0.37918   0.03248   0.00000  Uiso   1.00
H504   H     0.03446   0.57006   0.42940   0.00000  Uiso   1.00
H505   H     0.32039   0.51798   0.41292   0.00000  Uiso   1.00
H506   H     0.00031   0.50563   0.47157   0.00000  Uiso   1.00
H507   H     0.03040   0.48021   0.40744   0.00000  Uiso   1.00
H508   H     0.16969   0.58870   0.02965   0.00000  Uiso   1.00
H509   H     0.12717   0.64620   0.06479   0.00000  Uiso   1.00
H510   H     0.07455   0.62153   0.06461   0.00000  Uiso   1.00
H511   H     0.11691   0.63837   0.00260   0.00000  Uiso   1.00
H512   H     0.14793   0.39230   0.45146   0.00000  Uiso   1.00
H513   H     0.14284   0.40728   0.34224   0.00000  Uiso   1.00
H514   H     0.08200   0.43349   0.41243   0.00000  Uiso   1.00
H515   H     0.07322   0.44245   0.48270   0.00000  Uiso   1.00
H516   H     0.07278   0.39101   0.45533   0.00000  Uiso   1.00
H517   H     0.18058   0.64331   0.36020   0.00000  Uiso   1.00
H518   H     0.11832   0.61270   0.41547   0.00000  Uiso   1.00
H519   H     0.09833   0.59819   0.36099   0.00000  Uiso   1.00
H520   H     0.09608   0.65195   0.38566   0.00000  Uiso   1.00
H521   H     0.20986   0.37405   0.37631   0.00000  Uiso   1.00
H522   H     0.23357   0.37023   0.30602   0.00000  Uiso   1.00
H523   H     0.21712   0.41998   0.33735   0.00000  Uiso   1.00
H524   H     0.23158   0.35376   0.11967   0.00000  Uiso   1.00
N525   N     0.04760   0.50001   0.25002   0.00000  Uiso   1.00
N526   N     0.16120   0.62816   0.34069   0.00000  Uiso   1.00
N527   N     0.28573   0.49998   0.25000   0.00000  Uiso   1.00
N528   N     0.16176   0.38054   0.33663   0.00000  Uiso   1.00
N529   N     0.20718   0.37206   0.14655   0.00000  Uiso   1.00
N530   N     0.19018   0.61751   0.14866   0.00000  Uiso   1.00
N531   N     0.28356   0.42999   0.48264   0.00000  Uiso   1.00
N532   N     0.04979   0.54165   0.41725   0.00000  Uiso   1.00
N533   N     0.13495   0.58550   0.03517   0.00000  Uiso   1.00
N534   N     0.13866   0.41818   0.43590   0.00000  Uiso   1.00
O535   O     0.12846   0.56108   0.25001   0.00000  Uiso   1.00
O536   O     0.20490   0.56107   0.25000   0.00000  Uiso   1.00
O537   O     0.10947   0.50000   0.32681   0.00000  Uiso   1.00
O538   O     0.18591   0.49999   0.32681   0.00000  Uiso   1.00
O539   O     0.12843   0.43893   0.24999   0.00000  Uiso   1.00
O540   O     0.20488   0.43892   0.24999   0.00000  Uiso   1.00
O541   O     0.14742   0.50001   0.17319   0.00000  Uiso   1.00
O542   O     0.22387   0.50000   0.17319   0.00000  Uiso   1.00
Zn543  Zn    0.11562   0.50001   0.25000   0.00000  Uiso   1.00
Zn544  Zn    0.21771   0.49999   0.25000   0.00000  Uiso   1.00
C545   C     0.50068   0.57948   0.24884   0.00000  Uiso   1.00
C546   C     0.45622   0.50733   0.41179   0.00000  Uiso   1.00
C547   C     0.49610   0.64721   0.29285   0.00000  Uiso   1.00
C548   C     0.47350   0.50055   0.35217   0.00000  Uiso   1.00
C549   C     0.49477   0.35661   0.29132   0.00000  Uiso   1.00
C550   C     0.50186   0.37572   0.24314   0.00000  Uiso   1.00
C551   C     0.51640   0.35240   0.19484   0.00000  Uiso   1.00
C552   C     0.51480   0.64231   0.19637   0.00000  Uiso   1.00
C553   C     0.50277   0.62366   0.24603   0.00000  Uiso   1.00
C554   C     0.65035   0.47017   0.22310   0.00000  Uiso   1.00
C555   C     0.36474   0.47069   0.22213   0.00000  Uiso   1.00
C556   C     0.48631   0.51798   0.48592   0.00000  Uiso   1.00
C557   C     0.35057   0.53188   0.27268   0.00000  Uiso   1.00
C558   C     0.63554   0.52988   0.27675   0.00000  Uiso   1.00
C559   C     0.50147   0.42048   0.24437   0.00000  Uiso   1.00
C560   C     0.52599   0.50062   0.14851   0.00000  Uiso   1.00
C561   C     0.58233   0.45978   0.00926   0.00000  Uiso   1.00
C562   C     0.54134   0.49926   0.08986   0.00000  Uiso   1.00
C563   C     0.41942   0.53441   0.43788   0.00000  Uiso   1.00
C564   C     0.42020   0.55688   0.48369   0.00000  Uiso   1.00
C565   C     0.45765   0.55335   0.00269   0.00000  Uiso   1.00
C566   C     0.54117   0.38678   0.33922   0.00000  Uiso   1.00
C567   C     0.48241   0.49362   0.44230   0.00000  Uiso   1.00
C568   C     0.51212   0.39056   0.12054   0.00000  Uiso   1.00
C569   C     0.56948   0.60012   0.12693   0.00000  Uiso   1.00
C570   C     0.63644   0.43730   0.19197   0.00000  Uiso   1.00
C571   C     0.64663   0.44219   0.13738   0.00000  Uiso   1.00
C572   C     0.65167   0.40768   0.10304   0.00000  Uiso   1.00
C573   C     0.64513   0.36816   0.12317   0.00000  Uiso   1.00
C574   C     0.63229   0.36304   0.17801   0.00000  Uiso   1.00
C575   C     0.62915   0.39750   0.21204   0.00000  Uiso   1.00
C576   C     0.39806   0.44668   0.17875   0.00000  Uiso   1.00
C577   C     0.41515   0.46539   0.12933   0.00000  Uiso   1.00
C578   C     0.51726   0.50409   0.01176   0.00000  Uiso   1.00
C579   C     0.42958   0.44139   0.08236   0.00000  Uiso   1.00
C580   C     0.42532   0.39870   0.08393   0.00000  Uiso   1.00
C581   C     0.40925   0.37981   0.13301   0.00000  Uiso   1.00
C582   C     0.39793   0.40359   0.18041   0.00000  Uiso   1.00
C583   C     0.36923   0.57320   0.27843   0.00000  Uiso   1.00
C584   C     0.35906   0.59330   0.32835   0.00000  Uiso   1.00
C585   C     0.36784   0.63544   0.33242   0.00000  Uiso   1.00
C586   C     0.38943   0.65726   0.28673   0.00000  Uiso   1.00
C587   C     0.40062   0.63727   0.23682   0.00000  Uiso   1.00
C588   C     0.38896   0.59592   0.23240   0.00000  Uiso   1.00
C589   C     0.54891   0.47188   0.48697   0.00000  Uiso   1.00
C590   C     0.60332   0.55911   0.31416   0.00000  Uiso   1.00
C591   C     0.60568   0.60102   0.30212   0.00000  Uiso   1.00
C592   C     0.59723   0.63090   0.34330   0.00000  Uiso   1.00
C593   C     0.57997   0.61968   0.39639   0.00000  Uiso   1.00
C594   C     0.57272   0.57819   0.40838   0.00000  Uiso   1.00
C595   C     0.58484   0.54791   0.36753   0.00000  Uiso   1.00
C596   C     0.60448   0.38714   0.49343   0.00000  Uiso   1.00
C597   C     0.34863   0.50952   0.42796   0.00000  Uiso   1.00
C598   C     0.44519   0.62486   0.04185   0.00000  Uiso   1.00
C599   C     0.42252   0.42189   0.44740   0.00000  Uiso   1.00
C600   C     0.54117   0.44799   0.44610   0.00000  Uiso   1.00
C601   C     0.44897   0.62249   0.37741   0.00000  Uiso   1.00
C602   C     0.50064   0.45372   0.43464   0.00000  Uiso   1.00
C603   C     0.51267   0.51585   0.06454   0.00000  Uiso   1.00
C604   C     0.57928   0.47547   0.05994   0.00000  Uiso   1.00
H605   H     0.60239   0.46412   0.07844   0.00000  Uiso   1.00
H606   H     0.53369   0.40747   0.08618   0.00000  Uiso   1.00
H607   H     0.48812   0.41294   0.14771   0.00000  Uiso   1.00
H608   H     0.49467   0.36579   0.10495   0.00000  Uiso   1.00
H609   H     0.51272   0.63048   0.12003   0.00000  Uiso   1.00
H610   H     0.59586   0.62462   0.11568   0.00000  Uiso   1.00
H611   H     0.57216   0.58103   0.09063   0.00000  Uiso   1.00
H612   H     0.57734   0.58049   0.15593   0.00000  Uiso   1.00
H613   H     0.65591   0.47235   0.12082   0.00000  Uiso   1.00
H614   H     0.66380   0.41152   0.06055   0.00000  Uiso   1.00
H615   H     0.65130   0.34163   0.09602   0.00000  Uiso   1.00
H616   H     0.56054   0.42010   0.43155   0.00000  Uiso   1.00
H617   H     0.62844   0.66570   0.19357   0.00000  Uiso   1.00
H618   H     0.62802   0.39310   0.25233   0.00000  Uiso   1.00
H619   H     0.41294   0.49851   0.12698   0.00000  Uiso   1.00
H620   H     0.44088   0.45600   0.04476   0.00000  Uiso   1.00
H621   H     0.43387   0.38041   0.04727   0.00000  Uiso   1.00
H622   H     0.40420   0.34688   0.13408   0.00000  Uiso   1.00
H623   H     0.38321   0.38884   0.21799   0.00000  Uiso   1.00
H624   H     0.33987   0.57751   0.36357   0.00000  Uiso   1.00
H625   H     0.35739   0.65118   0.37107   0.00000  Uiso   1.00
H626   H     0.39755   0.35623   0.29013   0.00000  Uiso   1.00
H627   H     0.48362   0.53410   0.08861   0.00000  Uiso   1.00
H628   H     0.41888   0.65358   0.20161   0.00000  Uiso   1.00
H629   H     0.39601   0.58136   0.19325   0.00000  Uiso   1.00
H630   H     0.62145   0.61031   0.26143   0.00000  Uiso   1.00
H631   H     0.60723   0.66236   0.33414   0.00000  Uiso   1.00
H632   H     0.57358   0.64299   0.42809   0.00000  Uiso   1.00
H633   H     0.56159   0.56945   0.44935   0.00000  Uiso   1.00
H634   H     0.58429   0.51586   0.37770   0.00000  Uiso   1.00
H635   H     0.64877   0.43651   0.48600   0.00000  Uiso   1.00
H636   H     0.62880   0.36711   0.46224   0.00000  Uiso   1.00
H637   H     0.56884   0.38036   0.49375   0.00000  Uiso   1.00
H638   H     0.39375   0.57988   0.00080   0.00000  Uiso   1.00
H639   H     0.60685   0.37918   0.03248   0.00000  Uiso   1.00
H640   H     0.36779   0.57006   0.42940   0.00000  Uiso   1.00
H641   H     0.65372   0.51798   0.41292   0.00000  Uiso   1.00
H642   H     0.33364   0.50563   0.47157   0.00000  Uiso   1.00
H643   H     0.36373   0.48021   0.40744   0.00000  Uiso   1.00
H644   H     0.50303   0.58870   0.02965   0.00000  Uiso   1.00
H645   H     0.46051   0.64620   0.06479   0.00000  Uiso   1.00
H646   H     0.40788   0.62153   0.06461   0.00000  Uiso   1.00
H647   H     0.45024   0.63837   0.00260   0.00000  Uiso   1.00
H648   H     0.48127   0.39230   0.45146   0.00000  Uiso   1.00
H649   H     0.47617   0.40728   0.34224   0.00000  Uiso   1.00
H650   H     0.41534   0.43349   0.41243   0.00000  Uiso   1.00
H651   H     0.40655   0.44245   0.48270   0.00000  Uiso   1.00
H652   H     0.40611   0.39101   0.45533   0.00000  Uiso   1.00
H653   H     0.51391   0.64331   0.36020   0.00000  Uiso   1.00
H654   H     0.45166   0.61270   0.41547   0.00000  Uiso   1.00
H655   H     0.43166   0.59819   0.36099   0.00000  Uiso   1.00
H656   H     0.42942   0.65195   0.38566   0.00000  Uiso   1.00
H657   H     0.54319   0.37405   0.37631   0.00000  Uiso   1.00
H658   H     0.56690   0.37023   0.30602   0.00000  Uiso   1.00
H659   H     0.55046   0.41998   0.33735   0.00000  Uiso   1.00
H660   H     0.56491   0.35376   0.11967   0.00000  Uiso   1.00
N661   N     0.38093   0.50001   0.25002   0.00000  Uiso   1.00
N662   N     0.49453   0.62816   0.34069   0.00000  Uiso   1.00
N663   N     0.61906   0.49998   0.25000   0.00000  Uiso   1.00
N664   N     0.49509   0.38054   0.33663   0.00000  Uiso   1.00
N665   N     0.54051   0.37206   0.14655   0.00000  Uiso   1.00
N666   N     0.52351   0.61751   0.14866   0.00000  Uiso   1.00
N667   N     0.61689   0.42999   0.48264   0.00000  Uiso   1.00
N668   N     0.38312   0.54165   0.41725   0.00000  Uiso   1.00
N669   N     0.46829   0.58550   0.03517   0.00000  Uiso   1.00
N670   N     0.47200   0.41818   0.43590   0.00000  Uiso   1.00
O671   O     0.46179   0.56108   0.25001   0.00000  Uiso   1.00
O672   O     0.53823   0.56107   0.25000   0.00000  Uiso   1.00
O673   O     0.44280   0.50000   0.32681   0.00000  Uiso   1.00
O674   O     0.51924   0.49999   0.32681   0.00000  Uiso   1.00
O675   O     0.46177   0.43893   0.24999   0.00000  Uiso   1.00
O676   O     0.53821   0.43892   0.24999   0.00000  Uiso   1.00
O677   O     0.48076   0.50001   0.17319   0.00000  Uiso   1.00
O678   O     0.55720   0.50000   0.17319   0.00000  Uiso   1.00
Zn679  Zn    0.44896   0.50001   0.25000   0.00000  Uiso   1.00
Zn680  Zn    0.55104   0.49999   0.25000   0.00000  Uiso   1.00
C681   C     0.83402   0.57948   0.24884   0.00000  Uiso   1.00
C682   C     0.78956   0.50733   0.41179   0.00000  Uiso   1.00
C683   C     0.82943   0.64721   0.29285   0.00000  Uiso   1.00
C684   C     0.80683   0.50055   0.35217   0.00000  Uiso   1.00
C685   C     0.82810   0.35661   0.29132   0.00000  Uiso   1.00
C686   C     0.83519   0.37572   0.24314   0.00000  Uiso   1.00
C687   C     0.84973   0.35240   0.19484   0.00000  Uiso   1.00
C688   C     0.84813   0.64231   0.19637   0.00000  Uiso   1.00
C689   C     0.83610   0.62366   0.24603   0.00000  Uiso   1.00
C690   C     0.98369   0.47017   0.22310   0.00000  Uiso   1.00
C691   C     0.69807   0.47069   0.22213   0.00000  Uiso   1.00
C692   C     0.81965   0.51798   0.48592   0.00000  Uiso   1.00
C693   C     0.68391   0.53188   0.27268   0.00000  Uiso   1.00
C694   C     0.96887   0.52988   0.27675   0.00000  Uiso   1.00
C695   C     0.83481   0.42048   0.24437   0.00000  Uiso   1.00
C696   C     0.85933   0.50062   0.14851   0.00000  Uiso   1.00
C697   C     0.91566   0.45978   0.00926   0.00000  Uiso   1.00
C698   C     0.87467   0.49926   0.08986   0.00000  Uiso   1.00
C699   C     0.75275   0.53441   0.43788   0.00000  Uiso   1.00
C700   C     0.75354   0.55688   0.48369   0.00000  Uiso   1.00
C701   C     0.79099   0.55335   0.00269   0.00000  Uiso   1.00
C702   C     0.87450   0.38678   0.33922   0.00000  Uiso   1.00
C703   C     0.81575   0.49362   0.44230   0.00000  Uiso   1.00
C704   C     0.84545   0.39056   0.12054   0.00000  Uiso   1.00
C705   C     0.90281   0.60012   0.12693   0.00000  Uiso   1.00
C706   C     0.96977   0.43730   0.19197   0.00000  Uiso   1.00
C707   C     0.97996   0.44219   0.13738   0.00000  Uiso   1.00
C708   C     0.98500   0.40768   0.10304   0.00000  Uiso   1.00
C709   C     0.97847   0.36816   0.12317   0.00000  Uiso   1.00
C710   C     0.96562   0.36304   0.17801   0.00000  Uiso   1.00
C711   C     0.96248   0.39750   0.21204   0.00000  Uiso   1.00
C712   C     0.73140   0.44668   0.17875   0.00000  Uiso   1.00
C713   C     0.74848   0.46539   0.12933   0.00000  Uiso   1.00
C714   C     0.85059   0.50409   0.01176   0.00000  Uiso   1.00
C715   C     0.76291   0.44139   0.08236   0.00000  Uiso   1.00
C716   C     0.75865   0.39870   0.08393   0.00000  Uiso   1.00
C717   C     0.74258   0.37981   0.13301   0.00000  Uiso   1.00
C718   C     0.73126   0.40359   0.18041   0.00000  Uiso   1.00
C719   C     0.70256   0.57320   0.27843   0.00000  Uiso   1.00
C720   C     0.69239   0.59330   0.32835   0.00000  Uiso   1.00
C721   C     0.70117   0.63544   0.33242   0.00000  Uiso   1.00
C722   C     0.72276   0.65726   0.28673   0.00000  Uiso   1.00
C723   C     0.73395   0.63727   0.23682   0.00000  Uiso   1.00
C724   C     0.72229   0.59592   0.23240   0.00000  Uiso   1.00
C725   C     0.88224   0.47188   0.48697   0.00000  Uiso   1.00
C726   C     0.93665   0.55911   0.31416   0.00000  Uiso   1.00
C727   C     0.93902   0.60102   0.30212   0.00000  Uiso   1.00
C728   C     0.93057   0.63090   0.34330   0.00000  Uiso   1.00
C729   C     0.91331   0.61968   0.39639   0.00000  Uiso   1.00
C730   C     0.90605   0.57819   0.40838   0.00000  Uiso   1.00
C731   C     0.91817   0.54791   0.36753   0.00000  Uiso   1.00
C732   C     0.93781   0.38714   0.49343   0.00000  Uiso   1.00
C733   C     0.68196   0.50952   0.42796   0.00000  Uiso   1.00
C734   C     0.77852   0.62486   0.04185   0.00000  Uiso   1.00
C735   C     0.75585   0.42189   0.44740   0.00000  Uiso   1.00
C736   C     0.87450   0.44799   0.44610   0.00000  Uiso   1.00
C737   C     0.78230   0.62249   0.37741   0.00000  Uiso   1.00
C738   C     0.83397   0.45372   0.43464   0.00000  Uiso   1.00
C739   C     0.84600   0.51585   0.06454   0.00000  Uiso   1.00
C740   C     0.91262   0.47547   0.05994   0.00000  Uiso   1.00
H741   H     0.93573   0.46412   0.07844   0.00000  Uiso   1.00
H742   H     0.86702   0.40747   0.08618   0.00000  Uiso   1.00
H743   H     0.82145   0.41294   0.14771   0.00000  Uiso   1.00
H744   H     0.82800   0.36579   0.10495   0.00000  Uiso   1.00
H745   H     0.84605   0.63048   0.12003   0.00000  Uiso   1.00
H746   H     0.92920   0.62462   0.11568   0.00000  Uiso   1.00
H747   H     0.90550   0.58103   0.09063   0.00000  Uiso   1.00
H748   H     0.91067   0.58049   0.15593   0.00000  Uiso   1.00
H749   H     0.98924   0.47235   0.12082   0.00000  Uiso   1.00
H750   H     0.99713   0.41152   0.06055   0.00000  Uiso   1.00
H751   H     0.98463   0.34163   0.09602   0.00000  Uiso   1.00
H752   H     0.89387   0.42010   0.43155   0.00000  Uiso   1.00
H753   H     0.96177   0.66570   0.19357   0.00000  Uiso   1.00
H754   H     0.96136   0.39310   0.25233   0.00000  Uiso   1.00
H755   H     0.74627   0.49851   0.12698   0.00000  Uiso   1.00
H756   H     0.77421   0.45600   0.04476   0.00000  Uiso   1.00
H757   H     0.76720   0.38041   0.04727   0.00000  Uiso   1.00
H758   H     0.73753   0.34688   0.13408   0.00000  Uiso   1.00
H759   H     0.71654   0.38884   0.21799   0.00000  Uiso   1.00
H760   H     0.67320   0.57751   0.36357   0.00000  Uiso   1.00
H761   H     0.69073   0.65118   0.37107   0.00000  Uiso   1.00
H762   H     0.73088   0.35623   0.29013   0.00000  Uiso   1.00
H763   H     0.81696   0.53410   0.08861   0.00000  Uiso   1.00
H764   H     0.75221   0.65358   0.20161   0.00000  Uiso   1.00
H765   H     0.72935   0.58136   0.19325   0.00000  Uiso   1.00
H766   H     0.95479   0.61031   0.26143   0.00000  Uiso   1.00
H767   H     0.94057   0.66236   0.33414   0.00000  Uiso   1.00
H768   H     0.90692   0.64299   0.42809   0.00000  Uiso   1.00
H769   H     0.89493   0.56945   0.44935   0.00000  Uiso   1.00
H770   H     0.91762   0.51586   0.37770   0.00000  Uiso   1.00
H771   H     0.98210   0.43651   0.48600   0.00000  Uiso   1.00
H772   H     0.96214   0.36711   0.46224   0.00000  Uiso   1.00
H773   H     0.90218   0.38036   0.49375   0.00000  Uiso   1.00
H774   H     0.72709   0.57988   0.00080   0.00000  Uiso   1.00
H775   H     0.94019   0.37918   0.03248   0.00000  Uiso   1.00
H776   H     0.70112   0.57006   0.42940   0.00000  Uiso   1.00
H777   H     0.98706   0.51798   0.41292   0.00000  Uiso   1.00
H778   H     0.66698   0.50563   0.47157   0.00000  Uiso   1.00
H779   H     0.69707   0.48021   0.40744   0.00000  Uiso   1.00
H780   H     0.83636   0.58870   0.02965   0.00000  Uiso   1.00
H781   H     0.79384   0.64620   0.06479   0.00000  Uiso   1.00
H782   H     0.74121   0.62153   0.06461   0.00000  Uiso   1.00
H783   H     0.78357   0.63837   0.00260   0.00000  Uiso   1.00
H784   H     0.81460   0.39230   0.45146   0.00000  Uiso   1.00
H785   H     0.80950   0.40728   0.34224   0.00000  Uiso   1.00
H786   H     0.74867   0.43349   0.41243   0.00000  Uiso   1.00
H787   H     0.73988   0.44245   0.48270   0.00000  Uiso   1.00
H788   H     0.73944   0.39101   0.45533   0.00000  Uiso   1.00
H789   H     0.84724   0.64331   0.36020   0.00000  Uiso   1.00
H790   H     0.78499   0.61270   0.41547   0.00000  Uiso   1.00
H791   H     0.76500   0.59819   0.36099   0.00000  Uiso   1.00
H792   H     0.76275   0.65195   0.38566   0.00000  Uiso   1.00
H793   H     0.87652   0.37405   0.37631   0.00000  Uiso   1.00
H794   H     0.90023   0.37023   0.30602   0.00000  Uiso   1.00
H795   H     0.88379   0.41998   0.33735   0.00000  Uiso   1.00
H796   H     0.89824   0.35376   0.11967   0.00000  Uiso   1.00
N797   N     0.71426   0.50001   0.25002   0.00000  Uiso   1.00
N798   N     0.82786   0.62816   0.34069   0.00000  Uiso   1.00
N799   N     0.95239   0.49998   0.25000   0.00000  Uiso   1.00
N800   N     0.82842   0.38054   0.33663   0.00000  Uiso   1.00
N801   N     0.87384   0.37206   0.14655   0.00000  Uiso   1.00
N802   N     0.85685   0.61751   0.14866   0.00000  Uiso   1.00
N803   N     0.95023   0.42999   0.48264   0.00000  Uiso   1.00
N804   N     0.71645   0.54165   0.41725   0.00000  Uiso   1.00
N805   N     0.80162   0.58550   0.03517   0.00000  Uiso   1.00
N806   N     0.80533   0.41818   0.43590   0.00000  Uiso   1.00
O807   O     0.79512   0.56108   0.25001   0.00000  Uiso   1.00
O808   O     0.87157   0.56107   0.25000   0.00000  Uiso   1.00
O809   O     0.77613   0.50000   0.32681   0.00000  Uiso   1.00
O810   O     0.85258   0.49999   0.32681   0.00000  Uiso   1.00
O811   O     0.79510   0.43893   0.24999   0.00000  Uiso   1.00
O812   O     0.87154   0.43892   0.24999   0.00000  Uiso   1.00
O813   O     0.81409   0.50001   0.17319   0.00000  Uiso   1.00
O814   O     0.89053   0.50000   0.17319   0.00000  Uiso   1.00
Zn815  Zn    0.78229   0.50001   0.25000   0.00000  Uiso   1.00
Zn816  Zn    0.88438   0.49999   0.25000   0.00000  Uiso   1.00
C817   C     0.16735   0.91281   0.24884   0.00000  Uiso   1.00
C818   C     0.12289   0.84066   0.41179   0.00000  Uiso   1.00
C819   C     0.16276   0.98054   0.29285   0.00000  Uiso   1.00
C820   C     0.14016   0.83388   0.35217   0.00000  Uiso   1.00
C821   C     0.16144   0.68995   0.29132   0.00000  Uiso   1.00
C822   C     0.16852   0.70905   0.24314   0.00000  Uiso   1.00
C823   C     0.18306   0.68574   0.19484   0.00000  Uiso   1.00
C824   C     0.18147   0.97565   0.19637   0.00000  Uiso   1.00
C825   C     0.16944   0.95699   0.24603   0.00000  Uiso   1.00
C826   C     0.31702   0.80350   0.22310   0.00000  Uiso   1.00
C827   C     0.03140   0.80402   0.22213   0.00000  Uiso   1.00
C828   C     0.15298   0.85131   0.48592   0.00000  Uiso   1.00
C829   C     0.01724   0.86521   0.27268   0.00000  Uiso   1.00
C830   C     0.30220   0.86322   0.27675   0.00000  Uiso   1.00
C831   C     0.16814   0.75381   0.24437   0.00000  Uiso   1.00
C832   C     0.19266   0.83395   0.14851   0.00000  Uiso   1.00
C833   C     0.24899   0.79311   0.00926   0.00000  Uiso   1.00
C834   C     0.20801   0.83259   0.08986   0.00000  Uiso   1.00
C835   C     0.08608   0.86775   0.43788   0.00000  Uiso   1.00
C836   C     0.08687   0.89021   0.48369   0.00000  Uiso   1.00
C837   C     0.12432   0.88669   0.00269   0.00000  Uiso   1.00
C838   C     0.20783   0.72012   0.33922   0.00000  Uiso   1.00
C839   C     0.14908   0.82695   0.44230   0.00000  Uiso   1.00
C840   C     0.17878   0.72389   0.12054   0.00000  Uiso   1.00
C841   C     0.23615   0.93345   0.12693   0.00000  Uiso   1.00
C842   C     0.30310   0.77063   0.19197   0.00000  Uiso   1.00
C843   C     0.31330   0.77552   0.13738   0.00000  Uiso   1.00
C844   C     0.31834   0.74102   0.10304   0.00000  Uiso   1.00
C845   C     0.31180   0.70149   0.12317   0.00000  Uiso   1.00
C846   C     0.29896   0.69637   0.17801   0.00000  Uiso   1.00
C847   C     0.29581   0.73084   0.21204   0.00000  Uiso   1.00
C848   C     0.06473   0.78001   0.17875   0.00000  Uiso   1.00
C849   C     0.08181   0.79872   0.12933   0.00000  Uiso   1.00
C850   C     0.18392   0.83742   0.01176   0.00000  Uiso   1.00
C851   C     0.09624   0.77472   0.08236   0.00000  Uiso   1.00
C852   C     0.09199   0.73204   0.08393   0.00000  Uiso   1.00
C853   C     0.07592   0.71314   0.13301   0.00000  Uiso   1.00
C854   C     0.06459   0.73692   0.18041   0.00000  Uiso   1.00
C855   C     0.03589   0.90653   0.27843   0.00000  Uiso   1.00
C856   C     0.02572   0.92664   0.32835   0.00000  Uiso   1.00
C857   C     0.03451   0.96877   0.33242   0.00000  Uiso   1.00
C858   C     0.05610   0.99060   0.28673   0.00000  Uiso   1.00
C859   C     0.06729   0.97060   0.23682   0.00000  Uiso   1.00
C860   C     0.05562   0.92925   0.23240   0.00000  Uiso   1.00
C861   C     0.21558   0.80522   0.48697   0.00000  Uiso   1.00
C862   C     0.26998   0.89245   0.31416   0.00000  Uiso   1.00
C863   C     0.27235   0.93435   0.30212   0.00000  Uiso   1.00
C864   C     0.26390   0.96424   0.34330   0.00000  Uiso   1.00
C865   C     0.24664   0.95301   0.39639   0.00000  Uiso   1.00
C866   C     0.23939   0.91152   0.40838   0.00000  Uiso   1.00
C867   C     0.25151   0.88124   0.36753   0.00000  Uiso   1.00
C868   C     0.27114   0.72048   0.49343   0.00000  Uiso   1.00
C869   C     0.01529   0.84286   0.42796   0.00000  Uiso   1.00
C870   C     0.11186   0.95819   0.04185   0.00000  Uiso   1.00
C871   C     0.08918   0.75522   0.44740   0.00000  Uiso   1.00
C872   C     0.20783   0.78132   0.44610   0.00000  Uiso   1.00
C873   C     0.11563   0.95583   0.37741   0.00000  Uiso   1.00
C874   C     0.16731   0.78706   0.43464   0.00000  Uiso   1.00
C875   C     0.17934   0.84919   0.06454   0.00000  Uiso   1.00
C876   C     0.24595   0.80881   0.05994   0.00000  Uiso   1.00
H877   H     0.26906   0.79745   0.07844   0.00000  Uiso   1.00
H878   H     0.20035   0.74080   0.08618   0.00000  Uiso   1.00
H879   H     0.15479   0.74627   0.14771   0.00000  Uiso   1.00
H880   H     0.16134   0.69913   0.10495   0.00000  Uiso   1.00
H881   H     0.17938   0.96381   0.12003   0.00000  Uiso   1.00
H882   H     0.26253   0.95795   0.11568   0.00000  Uiso   1.00
H883   H     0.23883   0.91437   0.09063   0.00000  Uiso   1.00
H884   H     0.24401   0.91382   0.15593   0.00000  Uiso   1.00
H885   H     0.32258   0.80568   0.12082   0.00000  Uiso   1.00
H886   H     0.33047   0.74485   0.06055   0.00000  Uiso   1.00
H887   H     0.31797   0.67497   0.09602   0.00000  Uiso   1.00
H888   H     0.22720   0.75344   0.43155   0.00000  Uiso   1.00
H889   H     0.29511   0.99903   0.19357   0.00000  Uiso   1.00
H890   H     0.29469   0.72643   0.25233   0.00000  Uiso   1.00
H891   H     0.07960   0.83184   0.12698   0.00000  Uiso   1.00
H892   H     0.10754   0.78934   0.04476   0.00000  Uiso   1.00
H893   H     0.10054   0.71374   0.04727   0.00000  Uiso   1.00
H894   H     0.07087   0.68021   0.13408   0.00000  Uiso   1.00
H895   H     0.04987   0.72218   0.21799   0.00000  Uiso   1.00
H896   H     0.00654   0.91084   0.36357   0.00000  Uiso   1.00
H897   H     0.02406   0.98451   0.37107   0.00000  Uiso   1.00
H898   H     0.06422   0.68956   0.29013   0.00000  Uiso   1.00
H899   H     0.15029   0.86743   0.08861   0.00000  Uiso   1.00
H900   H     0.08554   0.98691   0.20161   0.00000  Uiso   1.00
H901   H     0.06268   0.91469   0.19325   0.00000  Uiso   1.00
H902   H     0.28812   0.94364   0.26143   0.00000  Uiso   1.00
H903   H     0.27390   0.99569   0.33414   0.00000  Uiso   1.00
H904   H     0.24025   0.97633   0.42809   0.00000  Uiso   1.00
H905   H     0.22826   0.90278   0.44935   0.00000  Uiso   1.00
H906   H     0.25096   0.84919   0.37770   0.00000  Uiso   1.00
H907   H     0.31544   0.76985   0.48600   0.00000  Uiso   1.00
H908   H     0.29547   0.70045   0.46224   0.00000  Uiso   1.00
H909   H     0.23551   0.71369   0.49375   0.00000  Uiso   1.00
H910   H     0.06042   0.91321   0.00080   0.00000  Uiso   1.00
H911   H     0.27352   0.71252   0.03248   0.00000  Uiso   1.00
H912   H     0.03446   0.90339   0.42940   0.00000  Uiso   1.00
H913   H     0.32039   0.85132   0.41292   0.00000  Uiso   1.00
H914   H     0.00031   0.83896   0.47157   0.00000  Uiso   1.00
H915   H     0.03040   0.81355   0.40744   0.00000  Uiso   1.00
H916   H     0.16969   0.92204   0.02965   0.00000  Uiso   1.00
H917   H     0.12717   0.97953   0.06479   0.00000  Uiso   1.00
H918   H     0.07455   0.95486   0.06461   0.00000  Uiso   1.00
H919   H     0.11691   0.97170   0.00260   0.00000  Uiso   1.00
H920   H     0.14793   0.72563   0.45146   0.00000  Uiso   1.00
H921   H     0.14284   0.74061   0.34224   0.00000  Uiso   1.00
H922   H     0.08200   0.76682   0.41243   0.00000  Uiso   1.00
H923   H     0.07322   0.77578   0.48270   0.00000  Uiso   1.00
H924   H     0.07278   0.72434   0.45533   0.00000  Uiso   1.00
H925   H     0.18058   0.97665   0.36020   0.00000  Uiso   1.00
H926   H     0.11832   0.94603   0.41547   0.00000  Uiso   1.00
H927   H     0.09833   0.93153   0.36099   0.00000  Uiso   1.00
H928   H     0.09608   0.98529   0.38566   0.00000  Uiso   1.00
H929   H     0.20986   0.70738   0.37631   0.00000  Uiso   1.00
H930   H     0.23357   0.70356   0.30602   0.00000  Uiso   1.00
H931   H     0.21712   0.75331   0.33735   0.00000  Uiso   1.00
H932   H     0.23158   0.68710   0.11967   0.00000  Uiso   1.00
N933   N     0.04760   0.83334   0.25002   0.00000  Uiso   1.00
N934   N     0.16120   0.96150   0.34069   0.00000  Uiso   1.00
N935   N     0.28573   0.83331   0.25000   0.00000  Uiso   1.00
N936   N     0.16176   0.71387   0.33663   0.00000  Uiso   1.00
N937   N     0.20718   0.70540   0.14655   0.00000  Uiso   1.00
N938   N     0.19018   0.95084   0.14866   0.00000  Uiso   1.00
N939   N     0.28356   0.76332   0.48264   0.00000  Uiso   1.00
N940   N     0.04979   0.87498   0.41725   0.00000  Uiso   1.00
N941   N     0.13495   0.91883   0.03517   0.00000  Uiso   1.00
N942   N     0.13866   0.75151   0.43590   0.00000  Uiso   1.00
O943   O     0.12846   0.89442   0.25001   0.00000  Uiso   1.00
O944   O     0.20490   0.89441   0.25000   0.00000  Uiso   1.00
O945   O     0.10947   0.83333   0.32681   0.00000  Uiso   1.00
O946   O     0.18591   0.83332   0.32681   0.00000  Uiso   1.00
O947   O     0.12843   0.77226   0.24999   0.00000  Uiso   1.00
O948   O     0.20488   0.77225   0.24999   0.00000  Uiso   1.00
O949   O     0.14742   0.83335   0.17319   0.00000  Uiso   1.00
O950   O     0.22387   0.83334   0.17319   0.00000  Uiso   1.00
Zn951  Zn    0.11562   0.83334   0.25000   0.00000  Uiso   1.00
Zn952  Zn    0.21771   0.83333   0.25000   0.00000  Uiso   1.00
C953   C     0.50068   0.91281   0.24884   0.00000  Uiso   1.00
C954   C     0.45622   0.84066   0.41179   0.00000  Uiso   1.00
C955   C     0.49610   0.98054   0.29285   0.00000  Uiso   1.00
C956   C     0.47350   0.83388   0.35217   0.00000  Uiso   1.00
C957   C     0.49477   0.68995   0.29132   0.00000  Uiso   1.00
C958   C     0.50186   0.70905   0.24314   0.00000  Uiso   1.00
C959   C     0.51640   0.68574   0.19484   0.00000  Uiso   1.00
C960   C     0.51480   0.97565   0.19637   0.00000  Uiso   1.00
C961   C     0.50277   0.95699   0.24603   0.00000  Uiso   1.00
C962   C     0.65035   0.80350   0.22310   0.00000  Uiso   1.00
C963   C     0.36474   0.80402   0.22213   0.00000  Uiso   1.00
C964   C     0.48631   0.85131   0.48592   0.00000  Uiso   1.00
C965   C     0.35057   0.86521   0.27268   0.00000  Uiso   1.00
C966   C     0.63554   0.86322   0.27675   0.00000  Uiso   1.00
C967   C     0.50147   0.75381   0.24437   0.00000  Uiso   1.00
C968   C     0.52599   0.83395   0.14851   0.00000  Uiso   1.00
C969   C     0.58233   0.79311   0.00926   0.00000  Uiso   1.00
C970   C     0.54134   0.83259   0.08986   0.00000  Uiso   1.00
C971   C     0.41942   0.86775   0.43788   0.00000  Uiso   1.00
C972   C     0.42020   0.89021   0.48369   0.00000  Uiso   1.00
C973   C     0.45765   0.88669   0.00269   0.00000  Uiso   1.00
C974   C     0.54117   0.72012   0.33922   0.00000  Uiso   1.00
C975   C     0.48241   0.82695   0.44230   0.00000  Uiso   1.00
C976   C     0.51212   0.72389   0.12054   0.00000  Uiso   1.00
C977   C     0.56948   0.93345   0.12693   0.00000  Uiso   1.00
C978   C     0.63644   0.77063   0.19197   0.00000  Uiso   1.00
C979   C     0.64663   0.77552   0.13738   0.00000  Uiso   1.00
C980   C     0.65167   0.74102   0.10304   0.00000  Uiso   1.00
C981   C     0.64513   0.70149   0.12317   0.00000  Uiso   1.00
C982   C     0.63229   0.69637   0.17801   0.00000  Uiso   1.00
C983   C     0.62915   0.73084   0.21204   0.00000  Uiso   1.00
C984   C     0.39806   0.78001   0.17875   0.00000  Uiso   1.00
C985   C     0.41515   0.79872   0.12933   0.00000  Uiso   1.00
C986   C     0.51726   0.83742   0.01176   0.00000  Uiso   1.00
C987   C     0.42958   0.77472   0.08236   0.00000  Uiso   1.00
C988   C     0.42532   0.73204   0.08393   0.00000  Uiso   1.00
C989   C     0.40925   0.71314   0.13301   0.00000  Uiso   1.00
C990   C     0.39793   0.73692   0.18041   0.00000  Uiso   1.00
C991   C     0.36923   0.90653   0.27843   0.00000  Uiso   1.00
C992   C     0.35906   0.92664   0.32835   0.00000  Uiso   1.00
C993   C     0.36784   0.96877   0.33242   0.00000  Uiso   1.00
C994   C     0.38943   0.99060   0.28673   0.00000  Uiso   1.00
C995   C     0.40062   0.97060   0.23682   0.00000  Uiso   1.00
C996   C     0.38896   0.92925   0.23240   0.00000  Uiso   1.00
C997   C     0.54891   0.80522   0.48697   0.00000  Uiso   1.00
C998   C     0.60332   0.89245   0.31416   0.00000  Uiso   1.00
C999   C     0.60568   0.93435   0.30212   0.00000  Uiso   1.00
C1000  C     0.59723   0.96424   0.34330   0.00000  Uiso   1.00
C1001  C     0.57997   0.95301   0.39639   0.00000  Uiso   1.00
C1002  C     0.57272   0.91152   0.40838   0.00000  Uiso   1.00
C1003  C     0.58484   0.88124   0.36753   0.00000  Uiso   1.00
C1004  C     0.60448   0.72048   0.49343   0.00000  Uiso   1.00
C1005  C     0.34863   0.84286   0.42796   0.00000  Uiso   1.00
C1006  C     0.44519   0.95819   0.04185   0.00000  Uiso   1.00
C1007  C     0.42252   0.75522   0.44740   0.00000  Uiso   1.00
C1008  C     0.54117   0.78132   0.44610   0.00000  Uiso   1.00
C1009  C     0.44897   0.95583   0.37741   0.00000  Uiso   1.00
C1010  C     0.50064   0.78706   0.43464   0.00000  Uiso   1.00
C1011  C     0.51267   0.84919   0.06454   0.00000  Uiso   1.00
C1012  C     0.57928   0.80881   0.05994   0.00000  Uiso   1.00
H1013  H     0.60239   0.79745   0.07844   0.00000  Uiso   1.00
H1014  H     0.53369   0.74080   0.08618   0.00000  Uiso   1.00
H1015  H     0.48812   0.74627   0.14771   0.00000  Uiso   1.00
H1016  H     0.49467   0.69913   0.10495   0.00000  Uiso   1.00
H1017  H     0.51272   0.96381   0.12003   0.00000  Uiso   1.00
H1018  H     0.59586   0.95795   0.11568   0.00000  Uiso   1.00
H1019  H     0.57216   0.91437   0.09063   0.00000  Uiso   1.00
H1020  H     0.57734   0.91382   0.15593   0.00000  Uiso   1.00
H1021  H     0.65591   0.80568   0.12082   0.00000  Uiso   1.00
H1022  H     0.66380   0.74485   0.06055   0.00000  Uiso   1.00
H1023  H     0.65130   0.67497   0.09602   0.00000  Uiso   1.00
H1024  H     0.56054   0.75344   0.43155   0.00000  Uiso   1.00
H1025  H     0.62844   0.99903   0.19357   0.00000  Uiso   1.00
H1026  H     0.62802   0.72643   0.25233   0.00000  Uiso   1.00
H1027  H     0.41294   0.83184   0.12698   0.00000  Uiso   1.00
H1028  H     0.44088   0.78934   0.04476   0.00000  Uiso   1.00
H1029  H     0.43387   0.71374   0.04727   0.00000  Uiso   1.00
H1030  H     0.40420   0.68021   0.13408   0.00000  Uiso   1.00
H1031  H     0.38321   0.72218   0.21799   0.00000  Uiso   1.00
H1032  H     0.33987   0.91084   0.36357   0.00000  Uiso   1.00
H1033  H     0.35739   0.98451   0.37107   0.00000  Uiso   1.00
H1034  H     0.39755   0.68956   0.29013   0.00000  Uiso   1.00
H1035  H     0.48362   0.86743   0.08861   0.00000  Uiso   1.00
H1036  H     0.41888   0.98691   0.20161   0.00000  Uiso   1.00
H1037  H     0.39601   0.91469   0.19325   0.00000  Uiso   1.00
H1038  H     0.62145   0.94364   0.26143   0.00000  Uiso   1.00
H1039  H     0.60723   0.99569   0.33414   0.00000  Uiso   1.00
H1040  H     0.57358   0.97633   0.42809   0.00000  Uiso   1.00
H1041  H     0.56159   0.90278   0.44935   0.00000  Uiso   1.00
H1042  H     0.58429   0.84919   0.37770   0.00000  Uiso   1.00
H1043  H     0.64877   0.76985   0.48600   0.00000  Uiso   1.00
H1044  H     0.62880   0.70045   0.46224   0.00000  Uiso   1.00
H1045  H     0.56884   0.71369   0.49375   0.00000  Uiso   1.00
H1046  H     0.39375   0.91321   0.00080   0.00000  Uiso   1.00
H1047  H     0.60685   0.71252   0.03248   0.00000  Uiso   1.00
H1048  H     0.36779   0.90339   0.42940   0.00000  Uiso   1.00
H1049  H     0.65372   0.85132   0.41292   0.00000  Uiso   1.00
H1050  H     0.33364   0.83896   0.47157   0.00000  Uiso   1.00
H1051  H     0.36373   0.81355   0.40744   0.00000  Uiso   1.00
H1052  H     0.50303   0.92204   0.02965   0.00000  Uiso   1.00
H1053  H     0.46051   0.97953   0.06479   0.00000  Uiso   1.00
H1054  H     0.40788   0.95486   0.06461   0.00000  Uiso   1.00
H1055  H     0.45024   0.97170   0.00260   0.00000  Uiso   1.00
H1056  H     0.48127   0.72563   0.45146   0.00000  Uiso   1.00
H1057  H     0.47617   0.74061   0.34224   0.00000  Uiso   1.00
H1058  H     0.41534   0.76682   0.41243   0.00000  Uiso   1.00
H1059  H     0.40655   0.77578   0.48270   0.00000  Uiso   1.00
H1060  H     0.40611   0.72434   0.45533   0.00000  Uiso   1.00
H1061  H     0.51391   0.97665   0.36020   0.00000  Uiso   1.00
H1062  H     0.45166   0.94603   0.41547   0.00000  Uiso   1.00
H1063  H     0.43166   0.93153   0.36099   0.00000  Uiso   1.00
H1064  H     0.42942   0.98529   0.38566   0.00000  Uiso   1.00
H1065  H     0.54319   0.70738   0.37631   0.00000  Uiso   1.00
H1066  H     0.56690   0.70356   0.30602   0.00000  Uiso   1.00
H1067  H     0.55046   0.75331   0.33735   0.00000  Uiso   1.00
H1068  H     0.56491   0.68710   0.11967   0.00000  Uiso   1.00
N1069  N     0.38093   0.83334   0.25002   0.00000  Uiso   1.00
N1070  N     0.49453   0.96150   0.34069   0.00000  Uiso   1.00
N1071  N     0.61906   0.83331   0.25000   0.00000  Uiso   1.00
N1072  N     0.49509   0.71387   0.33663   0.00000  Uiso   1.00
N1073  N     0.54051   0.70540   0.14655   0.00000  Uiso   1.00
N1074  N     0.52351   0.95084   0.14866   0.00000  Uiso   1.00
N1075  N     0.61689   0.76332   0.48264   0.00000  Uiso   1.00
N1076  N     0.38312   0.87498   0.41725   0.00000  Uiso   1.00
N1077  N     0.46829   0.91883   0.03517   0.00000  Uiso   1.00
N1078  N     0.47200   0.75151   0.43590   0.00000  Uiso   1.00
O1079  O     0.46179   0.89442   0.25001   0.00000  Uiso   1.00
O1080  O     0.53823   0.89441   0.25000   0.00000  Uiso   1.00
O1081  O     0.44280   0.83333   0.32681   0.00000  Uiso   1.00
O1082  O     0.51924   0.83332   0.32681   0.00000  Uiso   1.00
O1083  O     0.46177   0.77226   0.24999   0.00000  Uiso   1.00
O1084  O     0.53821   0.77225   0.24999   0.00000  Uiso   1.00
O1085  O     0.48076   0.83335   0.17319   0.00000  Uiso   1.00
O1086  O     0.55720   0.83334   0.17319   0.00000  Uiso   1.00
Zn1087 Zn    0.44896   0.83334   0.25000   0.00000  Uiso   1.00
Zn1088 Zn    0.55104   0.83333   0.25000   0.00000  Uiso   1.00
C1089  C     0.83402   0.91281   0.24884   0.00000  Uiso   1.00
C1090  C     0.78956   0.84066   0.41179   0.00000  Uiso   1.00
C1091  C     0.82943   0.98054   0.29285   0.00000  Uiso   1.00
C1092  C     0.80683   0.83388   0.35217   0.00000  Uiso   1.00
C1093  C     0.82810   0.68995   0.29132   0.00000  Uiso   1.00
C1094  C     0.83519   0.70905   0.24314   0.00000  Uiso   1.00
C1095  C     0.84973   0.68574   0.19484   0.00000  Uiso   1.00
C1096  C     0.84813   0.97565   0.19637   0.00000  Uiso   1.00
C1097  C     0.83610   0.95699   0.24603   0.00000  Uiso   1.00
C1098  C     0.98369   0.80350   0.22310   0.00000  Uiso   1.00
C1099  C     0.69807   0.80402   0.22213   0.00000  Uiso   1.00
C1100  C     0.81965   0.85131   0.48592   0.00000  Uiso   1.00
C1101  C     0.68391   0.86521   0.27268   0.00000  Uiso   1.00
C1102  C     0.96887   0.86322   0.27675   0.00000  Uiso   1.00
C1103  C     0.83481   0.75381   0.24437   0.00000  Uiso   1.00
C1104  C     0.85933   0.83395   0.14851   0.00000  Uiso   1.00
C1105  C     0.91566   0.79311   0.00926   0.00000  Uiso   1.00
C1106  C     0.87467   0.83259   0.08986   0.00000  Uiso   1.00
C1107  C     0.75275   0.86775   0.43788   0.00000  Uiso   1.00
C1108  C     0.75354   0.89021   0.48369   0.00000  Uiso   1.00
C1109  C     0.79099   0.88669   0.00269   0.00000  Uiso   1.00
C1110  C     0.87450   0.72012   0.33922   0.00000  Uiso   1.00
C1111  C     0.81575   0.82695   0.44230   0.00000  Uiso   1.00
C1112  C     0.84545   0.72389   0.12054   0.00000  Uiso   1.00
C1113  C     0.90281   0.93345   0.12693   0.00000  Uiso   1.00
C1114  C     0.96977   0.77063   0.19197   0.00000  Uiso   1.00
C1115  C     0.97996   0.77552   0.13738   0.00000  Uiso   1.00
C1116  C     0.98500   0.74102   0.10304   0.00000  Uiso   1.00
C1117  C     0.97847   0.70149   0.12317   0.00000  Uiso   1.00
C1118  C     0.96562   0.69637   0.17801   0.00000  Uiso   1.00
C1119  C     0.96248   0.73084   0.21204   0.00000  Uiso   1.00
C1120  C     0.73140   0.78001   0.17875   0.00000  Uiso   1.00
C1121  C     0.74848   0.79872   0.12933   0.00000  Uiso   1.00
C1122  C     0.85059   0.83742   0.01176   0.00000  Uiso   1.00
C1123  C     0.76291   0.77472   0.08236   0.00000  Uiso   1.00
C1124  C     0.75865   0.73204   0.08393   0.00000  Uiso   1.00
C1125  C     0.74258   0.71314   0.13301   0.00000  Uiso   1.00
C1126  C     0.73126   0.73692   0.18041   0.00000  Uiso   1.00
C1127  C     0.70256   0.90653   0.27843   0.00000  Uiso   1.00
C1128  C     0.69239   0.92664   0.32835   0.00000  Uiso   1.00
C1129  C     0.70117   0.96877   0.33242   0.00000  Uiso   1.00
C1130  C     0.72276   0.99060   0.28673   0.00000  Uiso   1.00
C1131  C     0.73395   0.97060   0.23682   0.00000  Uiso   1.00
C1132  C     0.72229   0.92925   0.23240   0.00000  Uiso   1.00
C1133  C     0.88224   0.80522   0.48697   0.00000  Uiso   1.00
C1134  C     0.93665   0.89245   0.31416   0.00000  Uiso   1.00
C1135  C     0.93902   0.93435   0.30212   0.00000  Uiso   1.00
C1136  C     0.93057   0.96424   0.34330   0.00000  Uiso   1.00
C1137  C     0.91331   0.95301   0.39639   0.00000  Uiso   1.00
C1138  C     0.90605   0.91152   0.40838   0.00000  Uiso   1.00
C1139  C     0.91817   0.88124   0.36753   0.00000  Uiso   1.00
C1140  C     0.93781   0.72048   0.49343   0.00000  Uiso   1.00
C1141  C     0.68196   0.84286   0.42796   0.00000  Uiso   1.00
C1142  C     0.77852   0.95819   0.04185   0.00000  Uiso   1.00
C1143  C     0.75585   0.75522   0.44740   0.00000  Uiso   1.00
C1144  C     0.87450   0.78132   0.44610   0.00000  Uiso   1.00
C1145  C     0.78230   0.95583   0.37741   0.00000  Uiso   1.00
C1146  C     0.83397   0.78706   0.43464   0.00000  Uiso   1.00
C1147  C     0.84600   0.84919   0.06454   0.00000  Uiso   1.00
C1148  C     0.91262   0.80881   0.05994   0.00000  Uiso   1.00
H1149  H     0.93573   0.79745   0.07844   0.00000  Uiso   1.00
H1150  H     0.86702   0.74080   0.08618   0.00000  Uiso   1.00
H1151  H     0.82145   0.74627   0.14771   0.00000  Uiso   1.00
H1152  H     0.82800   0.69913   0.10495   0.00000  Uiso   1.00
H1153  H     0.84605   0.96381   0.12003   0.00000  Uiso   1.00
H1154  H     0.92920   0.95795   0.11568   0.00000  Uiso   1.00
H1155  H     0.90550   0.91437   0.09063   0.00000  Uiso   1.00
H1156  H     0.91067   0.91382   0.15593   0.00000  Uiso   1.00
H1157  H     0.98924   0.80568   0.12082   0.00000  Uiso   1.00
H1158  H     0.99713   0.74485   0.06055   0.00000  Uiso   1.00
H1159  H     0.98463   0.67497   0.09602   0.00000  Uiso   1.00
H1160  H     0.89387   0.75344   0.43155   0.00000  Uiso   1.00
H1161  H     0.96177   0.99903   0.19357   0.00000  Uiso   1.00
H1162  H     0.96136   0.72643   0.25233   0.00000  Uiso   1.00
H1163  H     0.74627   0.83184   0.12698   0.00000  Uiso   1.00
H1164  H     0.77421   0.78934   0.04476   0.00000  Uiso   1.00
H1165  H     0.76720   0.71374   0.04727   0.00000  Uiso   1.00
H1166  H     0.73753   0.68021   0.13408   0.00000  Uiso   1.00
H1167  H     0.71654   0.72218   0.21799   0.00000  Uiso   1.00
H1168  H     0.67320   0.91084   0.36357   0.00000  Uiso   1.00
H1169  H     0.69073   0.98451   0.37107   0.00000  Uiso   1.00
H1170  H     0.73088   0.68956   0.29013   0.00000  Uiso   1.00
H1171  H     0.81696   0.86743   0.08861   0.00000  Uiso   1.00
H1172  H     0.75221   0.98691   0.20161   0.00000  Uiso   1.00
H1173  H     0.72935   0.91469   0.19325   0.00000  Uiso   1.00
H1174  H     0.95479   0.94364   0.26143   0.00000  Uiso   1.00
H1175  H     0.94057   0.99569   0.33414   0.00000  Uiso   1.00
H1176  H     0.90692   0.97633   0.42809   0.00000  Uiso   1.00
H1177  H     0.89493   0.90278   0.44935   0.00000  Uiso   1.00
H1178  H     0.91762   0.84919   0.37770   0.00000  Uiso   1.00
H1179  H     0.98210   0.76985   0.48600   0.00000  Uiso   1.00
H1180  H     0.96214   0.70045   0.46224   0.00000  Uiso   1.00
H1181  H     0.90218   0.71369   0.49375   0.00000  Uiso   1.00
H1182  H     0.72709   0.91321   0.00080   0.00000  Uiso   1.00
H1183  H     0.94019   0.71252   0.03248   0.00000  Uiso   1.00
H1184  H     0.70112   0.90339   0.42940   0.00000  Uiso   1.00
H1185  H     0.98706   0.85132   0.41292   0.00000  Uiso   1.00
H1186  H     0.66698   0.83896   0.47157   0.00000  Uiso   1.00
H1187  H     0.69707   0.81355   0.40744   0.00000  Uiso   1.00
H1188  H     0.83636   0.92204   0.02965   0.00000  Uiso   1.00
H1189  H     0.79384   0.97953   0.06479   0.00000  Uiso   1.00
H1190  H     0.74121   0.95486   0.06461   0.00000  Uiso   1.00
H1191  H     0.78357   0.97170   0.00260   0.00000  Uiso   1.00
H1192  H     0.81460   0.72563   0.45146   0.00000  Uiso   1.00
H1193  H     0.80950   0.74061   0.34224   0.00000  Uiso   1.00
H1194  H     0.74867   0.76682   0.41243   0.00000  Uiso   1.00
H1195  H     0.73988   0.77578   0.48270   0.00000  Uiso   1.00
H1196  H     0.73944   0.72434   0.45533   0.00000  Uiso   1.00
H1197  H     0.84724   0.97665   0.36020   0.00000  Uiso   1.00
H1198  H     0.78499   0.94603   0.41547   0.00000  Uiso   1.00
H1199  H     0.76500   0.93153   0.36099   0.00000  Uiso   1.00
H1200  H     0.76275   0.98529   0.38566   0.00000  Uiso   1.00
H1201  H     0.87652   0.70738   0.37631   0.00000  Uiso   1.00
H1202  H     0.90023   0.70356   0.30602   0.00000  Uiso   1.00
H1203  H     0.88379   0.75331   0.33735   0.00000  Uiso   1.00
H1204  H     0.89824   0.68710   0.11967   0.00000  Uiso   1.00
N1205  N     0.71426   0.83334   0.25002   0.00000  Uiso   1.00
N1206  N     0.82786   0.96150   0.34069   0.00000  Uiso   1.00
N1207  N     0.95239   0.83331   0.25000   0.00000  Uiso   1.00
N1208  N     0.82842   0.71387   0.33663   0.00000  Uiso   1.00
N1209  N     0.87384   0.70540   0.14655   0.00000  Uiso   1.00
N1210  N     0.85685   0.95084   0.14866   0.00000  Uiso   1.00
N1211  N     0.95023   0.76332   0.48264   0.00000  Uiso   1.00
N1212  N     0.71645   0.87498   0.41725   0.00000  Uiso   1.00
N1213  N     0.80162   0.91883   0.03517   0.00000  Uiso   1.00
N1214  N     0.80533   0.75151   0.43590   0.00000  Uiso   1.00
O1215  O     0.79512   0.89442   0.25001   0.00000  Uiso   1.00
O1216  O     0.87157   0.89441   0.25000   0.00000  Uiso   1.00
O1217  O     0.77613   0.83333   0.32681   0.00000  Uiso   1.00
O1218  O     0.85258   0.83332   0.32681   0.00000  Uiso   1.00
O1219  O     0.79510   0.77226   0.24999   0.00000  Uiso   1.00
O1220  O     0.87154   0.77225   0.24999   0.00000  Uiso   1.00
O1221  O     0.81409   0.83335   0.17319   0.00000  Uiso   1.00
O1222  O     0.89053   0.83334   0.17319   0.00000  Uiso   1.00
Zn1223 Zn    0.78229   0.83334   0.25000   0.00000  Uiso   1.00
Zn1224 Zn    0.88438   0.83333   0.25000   0.00000  Uiso   1.00
C1225  C     0.16735   0.24614   0.74884   0.00000  Uiso   1.00
C1226  C     0.12289   0.17400   0.91179   0.00000  Uiso   1.00
C1227  C     0.16276   0.31387   0.79285   0.00000  Uiso   1.00
C1228  C     0.14016   0.16722   0.85217   0.00000  Uiso   1.00
C1229  C     0.16144   0.02328   0.79132   0.00000  Uiso   1.00
C1230  C     0.16852   0.04239   0.74314   0.00000  Uiso   1.00
C1231  C     0.18306   0.01907   0.69484   0.00000  Uiso   1.00
C1232  C     0.18147   0.30898   0.69637   0.00000  Uiso   1.00
C1233  C     0.16944   0.29032   0.74603   0.00000  Uiso   1.00
C1234  C     0.31702   0.13683   0.72310   0.00000  Uiso   1.00
C1235  C     0.03140   0.13736   0.72213   0.00000  Uiso   1.00
C1236  C     0.15298   0.18465   0.98592   0.00000  Uiso   1.00
C1237  C     0.01724   0.19854   0.77268   0.00000  Uiso   1.00
C1238  C     0.30220   0.19655   0.77675   0.00000  Uiso   1.00
C1239  C     0.16814   0.08714   0.74437   0.00000  Uiso   1.00
C1240  C     0.19266   0.16729   0.64851   0.00000  Uiso   1.00
C1241  C     0.24899   0.12645   0.50926   0.00000  Uiso   1.00
C1242  C     0.20801   0.16592   0.58986   0.00000  Uiso   1.00
C1243  C     0.08608   0.20108   0.93788   0.00000  Uiso   1.00
C1244  C     0.08687   0.22354   0.98369   0.00000  Uiso   1.00
C1245  C     0.12432   0.22002   0.50269   0.00000  Uiso   1.00
C1246  C     0.20783   0.05345   0.83922   0.00000  Uiso   1.00
C1247  C     0.14908   0.16029   0.94230   0.00000  Uiso   1.00
C1248  C     0.17878   0.05723   0.62054   0.00000  Uiso   1.00
C1249  C     0.23615   0.26678   0.62693   0.00000  Uiso   1.00
C1250  C     0.30310   0.10396   0.69197   0.00000  Uiso   1.00
C1251  C     0.31330   0.10885   0.63738   0.00000  Uiso   1.00
C1252  C     0.31834   0.07435   0.60304   0.00000  Uiso   1.00
C1253  C     0.31180   0.03483   0.62317   0.00000  Uiso   1.00
C1254  C     0.29896   0.02971   0.67801   0.00000  Uiso   1.00
C1255  C     0.29581   0.06417   0.71204   0.00000  Uiso   1.00
C1256  C     0.06473   0.11334   0.67875   0.00000  Uiso   1.00
C1257  C     0.08181   0.13205   0.62933   0.00000  Uiso   1.00
C1258  C     0.18392   0.17076   0.51176   0.00000  Uiso   1.00
C1259  C     0.09624   0.10806   0.58236   0.00000  Uiso   1.00
C1260  C     0.09199   0.06537   0.58393   0.00000  Uiso   1.00
C1261  C     0.07592   0.04647   0.63301   0.00000  Uiso   1.00
C1262  C     0.06459   0.07026   0.68041   0.00000  Uiso   1.00
C1263  C     0.03589   0.23986   0.77843   0.00000  Uiso   1.00
C1264  C     0.02572   0.25997   0.82835   0.00000  Uiso   1.00
C1265  C     0.03451   0.30211   0.83242   0.00000  Uiso   1.00
C1266  C     0.05610   0.32393   0.78673   0.00000  Uiso   1.00
C1267  C     0.06729   0.30393   0.73682   0.00000  Uiso   1.00
C1268  C     0.05562   0.26258   0.73240   0.00000  Uiso   1.00
C1269  C     0.21558   0.13855   0.98697   0.00000  Uiso   1.00
C1270  C     0.26998   0.22578   0.81416   0.00000  Uiso   1.00
C1271  C     0.27235   0.26769   0.80212   0.00000  Uiso   1.00
C1272  C     0.26390   0.29757   0.84330   0.00000  Uiso   1.00
C1273  C     0.24664   0.28635   0.89639   0.00000  Uiso   1.00
C1274  C     0.23939   0.24485   0.90838   0.00000  Uiso   1.00
C1275  C     0.25151   0.21457   0.86753   0.00000  Uiso   1.00
C1276  C     0.27114   0.05381   0.99343   0.00000  Uiso   1.00
C1277  C     0.01529   0.17619   0.92796   0.00000  Uiso   1.00
C1278  C     0.11186   0.29153   0.54185   0.00000  Uiso   1.00
C1279  C     0.08918   0.08855   0.94740   0.00000  Uiso   1.00
C1280  C     0.20783   0.11465   0.94610   0.00000  Uiso   1.00
C1281  C     0.11563   0.28916   0.87741   0.00000  Uiso   1.00
C1282  C     0.16731   0.12039   0.93464   0.00000  Uiso   1.00
C1283  C     0.17934   0.18252   0.56454   0.00000  Uiso   1.00
C1284  C     0.24595   0.14214   0.55994   0.00000  Uiso   1.00
H1285  H     0.26906   0.13078   0.57844   0.00000  Uiso   1.00
H1286  H     0.20035   0.07414   0.58618   0.00000  Uiso   1.00
H1287  H     0.15479   0.07960   0.64771   0.00000  Uiso   1.00
H1288  H     0.16134   0.03246   0.60495   0.00000  Uiso   1.00
H1289  H     0.17938   0.29715   0.62003   0.00000  Uiso   1.00
H1290  H     0.26253   0.29129   0.61568   0.00000  Uiso   1.00
H1291  H     0.23883   0.24770   0.59063   0.00000  Uiso   1.00
H1292  H     0.24401   0.24715   0.65593   0.00000  Uiso   1.00
H1293  H     0.32258   0.13901   0.62082   0.00000  Uiso   1.00
H1294  H     0.33047   0.07818   0.56055   0.00000  Uiso   1.00
H1295  H     0.31797   0.00830   0.59602   0.00000  Uiso   1.00
H1296  H     0.22720   0.08677   0.93155   0.00000  Uiso   1.00
H1297  H     0.29511   0.33237   0.69357   0.00000  Uiso   1.00
H1298  H     0.29469   0.05977   0.75233   0.00000  Uiso   1.00
H1299  H     0.07960   0.16518   0.62698   0.00000  Uiso   1.00
H1300  H     0.10754   0.12267   0.54476   0.00000  Uiso   1.00
H1301  H     0.10054   0.04708   0.54727   0.00000  Uiso   1.00
H1302  H     0.07087   0.01355   0.63408   0.00000  Uiso   1.00
H1303  H     0.04987   0.05551   0.71799   0.00000  Uiso   1.00
H1304  H     0.00654   0.24417   0.86357   0.00000  Uiso   1.00
H1305  H     0.02406   0.31784   0.87107   0.00000  Uiso   1.00
H1306  H     0.06422   0.02289   0.79013   0.00000  Uiso   1.00
H1307  H     0.15029   0.20076   0.58861   0.00000  Uiso   1.00
H1308  H     0.08554   0.32024   0.70161   0.00000  Uiso   1.00
H1309  H     0.06268   0.24803   0.69325   0.00000  Uiso   1.00
H1310  H     0.28812   0.27698   0.76143   0.00000  Uiso   1.00
H1311  H     0.27390   0.32903   0.83414   0.00000  Uiso   1.00
H1312  H     0.24025   0.30966   0.92809   0.00000  Uiso   1.00
H1313  H     0.22826   0.23611   0.94935   0.00000  Uiso   1.00
H1314  H     0.25096   0.18252   0.87770   0.00000  Uiso   1.00
H1315  H     0.31544   0.10318   0.98600   0.00000  Uiso   1.00
H1316  H     0.29547   0.03378   0.96224   0.00000  Uiso   1.00
H1317  H     0.23551   0.04702   0.99375   0.00000  Uiso   1.00
H1318  H     0.06042   0.24655   0.50080   0.00000  Uiso   1.00
H1319  H     0.27352   0.04585   0.53248   0.00000  Uiso   1.00
H1320  H     0.03446   0.23673   0.92940   0.00000  Uiso   1.00
H1321  H     0.32039   0.18465   0.91292   0.00000  Uiso   1.00
H1322  H     0.00031   0.17230   0.97157   0.00000  Uiso   1.00
H1323  H     0.03040   0.14688   0.90744   0.00000  Uiso   1.00
H1324  H     0.16969   0.25537   0.52965   0.00000  Uiso   1.00
H1325  H     0.12717   0.31286   0.56479   0.00000  Uiso   1.00
H1326  H     0.07455   0.28820   0.56461   0.00000  Uiso   1.00
H1327  H     0.11691   0.30504   0.50260   0.00000  Uiso   1.00
H1328  H     0.14793   0.05896   0.95146   0.00000  Uiso   1.00
H1329  H     0.14284   0.07395   0.84224   0.00000  Uiso   1.00
H1330  H     0.08200   0.10016   0.91243   0.00000  Uiso   1.00
H1331  H     0.07322   0.10912   0.98270   0.00000  Uiso   1.00
H1332  H     0.07278   0.05767   0.95533   0.00000  Uiso   1.00
H1333  H     0.18058   0.30998   0.86020   0.00000  Uiso   1.00
H1334  H     0.11832   0.27937   0.91547   0.00000  Uiso   1.00
H1335  H     0.09833   0.26486   0.86099   0.00000  Uiso   1.00
H1336  H     0.09608   0.31862   0.88566   0.00000  Uiso   1.00
H1337  H     0.20986   0.04071   0.87631   0.00000  Uiso   1.00
H1338  H     0.23357   0.03689   0.80602   0.00000  Uiso   1.00
H1339  H     0.21712   0.08665   0.83735   0.00000  Uiso   1.00
H1340  H     0.23158   0.02043   0.61967   0.00000  Uiso   1.00
N1341  N     0.04760   0.16668   0.75002   0.00000  Uiso   1.00
N1342  N     0.16120   0.29483   0.84069   0.00000  Uiso   1.00
N1343  N     0.28573   0.16665   0.75000   0.00000  Uiso   1.00
N1344  N     0.16176   0.04721   0.83663   0.00000  Uiso   1.00
N1345  N     0.20718   0.03873   0.64655   0.00000  Uiso   1.00
N1346  N     0.19018   0.28417   0.64866   0.00000  Uiso   1.00
N1347  N     0.28356   0.09665   0.98264   0.00000  Uiso   1.00
N1348  N     0.04979   0.20831   0.91725   0.00000  Uiso   1.00
N1349  N     0.13495   0.25216   0.53517   0.00000  Uiso   1.00
N1350  N     0.13866   0.08485   0.93590   0.00000  Uiso   1.00
O1351  O     0.12846   0.22775   0.75001   0.00000  Uiso   1.00
O1352  O     0.20490   0.22774   0.75000   0.00000  Uiso   1.00
O1353  O     0.10947   0.16666   0.82681   0.00000  Uiso   1.00
O1354  O     0.18591   0.16665   0.82681   0.00000  Uiso   1.00
O1355  O     0.12843   0.10559   0.74999   0.00000  Uiso   1.00
O1356  O     0.20488   0.10558   0.74999   0.00000  Uiso   1.00
O1357  O     0.14742   0.16668   0.67319   0.00000  Uiso   1.00
O1358  O     0.22387   0.16667   0.67319   0.00000  Uiso   1.00
Zn1359 Zn    0.11562   0.16667   0.75000   0.00000  Uiso   1.00
Zn1360 Zn    0.21771   0.16666   0.75000   0.00000  Uiso   1.00
C1361  C     0.50068   0.24614   0.74884   0.00000  Uiso   1.00
C1362  C     0.45622   0.17400   0.91179   0.00000  Uiso   1.00
C1363  C     0.49610   0.31387   0.79285   0.00000  Uiso   1.00
C1364  C     0.47350   0.16722   0.85217   0.00000  Uiso   1.00
C1365  C     0.49477   0.02328   0.79132   0.00000  Uiso   1.00
C1366  C     0.50186   0.04239   0.74314   0.00000  Uiso   1.00
C1367  C     0.51640   0.01907   0.69484   0.00000  Uiso   1.00
C1368  C     0.51480   0.30898   0.69637   0.00000  Uiso   1.00
C1369  C     0.50277   0.29032   0.74603   0.00000  Uiso   1.00
C1370  C     0.65035   0.13683   0.72310   0.00000  Uiso   1.00
C1371  C     0.36474   0.13736   0.72213   0.00000  Uiso   1.00
C1372  C     0.48631   0.18465   0.98592   0.00000  Uiso   1.00
C1373  C     0.35057   0.19854   0.77268   0.00000  Uiso   1.00
C1374  C     0.63554   0.19655   0.77675   0.00000  Uiso   1.00
C1375  C     0.50147   0.08714   0.74437   0.00000  Uiso   1.00
C1376  C     0.52599   0.16729   0.64851   0.00000  Uiso   1.00
C1377  C     0.58233   0.12645   0.50926   0.00000  Uiso   1.00
C1378  C     0.54134   0.16592   0.58986   0.00000  Uiso   1.00
C1379  C     0.41942   0.20108   0.93788   0.00000  Uiso   1.00
C1380  C     0.42020   0.22354   0.98369   0.00000  Uiso   1.00
C1381  C     0.45765   0.22002   0.50269   0.00000  Uiso   1.00
C1382  C     0.54117   0.05345   0.83922   0.00000  Uiso   1.00
C1383  C     0.48241   0.16029   0.94230   0.00000  Uiso   1.00
C1384  C     0.51212   0.05723   0.62054   0.00000  Uiso   1.00
C1385  C     0.56948   0.26678   0.62693   0.00000  Uiso   1.00
C1386  C     0.63644   0.10396   0.69197   0.00000  Uiso   1.00
C1387  C     0.64663   0.10885   0.63738   0.00000  Uiso   1.00
C1388  C     0.65167   0.07435   0.60304   0.00000  Uiso   1.00
C1389  C     0.64513   0.03483   0.62317   0.00000  Uiso   1.00
C1390  C     0.63229   0.02971   0.67801   0.00000  Uiso   1.00
C1391  C     0.62915   0.06417   0.71204   0.00000  Uiso   1.00
C1392  C     0.39806   0.11334   0.67875   0.00000  Uiso   1.00
C1393  C     0.41515   0.13205   0.62933   0.00000  Uiso   1.00
C1394  C     0.51726   0.17076   0.51176   0.00000  Uiso   1.00
C1395  C     0.42958   0.10806   0.58236   0.00000  Uiso   1.00
C1396  C     0.42532   0.06537   0.58393   0.00000  Uiso   1.00
C1397  C     0.40925   0.04647   0.63301   0.00000  Uiso   1.00
C1398  C     0.39793   0.07026   0.68041   0.00000  Uiso   1.00
C1399  C     0.36923   0.23986   0.77843   0.00000  Uiso   1.00
C1400  C     0.35906   0.25997   0.82835   0.00000  Uiso   1.00
C1401  C     0.36784   0.30211   0.83242   0.00000  Uiso   1.00
C1402  C     0.38943   0.32393   0.78673   0.00000  Uiso   1.00
C1403  C     0.40062   0.30393   0.73682   0.00000  Uiso   1.00
C1404  C     0.38896   0.26258   0.73240   0.00000  Uiso   1.00
C1405  C     0.54891   0.13855   0.98697   0.00000  Uiso   1.00
C1406  C     0.60332   0.22578   0.81416   0.00000  Uiso   1.00
C1407  C     0.60568   0.26769   0.80212   0.00000  Uiso   1.00
C1408  C     0.59723   0.29757   0.84330   0.00000  Uiso   1.00
C1409  C     0.57997   0.28635   0.89639   0.00000  Uiso   1.00
C1410  C     0.57272   0.24485   0.90838   0.00000  Uiso   1.00
C1411  C     0.58484   0.21457   0.86753   0.00000  Uiso   1.00
C1412  C     0.60448   0.05381   0.99343   0.00000  Uiso   1.00
C1413  C     0.34863   0.17619   0.92796   0.00000  Uiso   1.00
C1414  C     0.44519   0.29153   0.54185   0.00000  Uiso   1.00
C1415  C     0.42252   0.08855   0.94740   0.00000  Uiso   1.00
C1416  C     0.54117   0.11465   0.94610   0.00000  Uiso   1.00
C1417  C     0.44897   0.28916   0.87741   0.00000  Uiso   1.00
C1418  C     0.50064   0.12039   0.93464   0.00000  Uiso   1.00
C1419  C     0.51267   0.18252   0.56454   0.00000  Uiso   1.00
C1420  C     0.57928   0.14214   0.55994   0.00000  Uiso   1.00
H1421  H     0.60239   0.13078   0.57844   0.00000  Uiso   1.00
H1422  H     0.53369   0.07414   0.58618   0.00000  Uiso   1.00
H1423  H     0.48812   0.07960   0.64771   0.00000  Uiso   1.00
H1424  H     0.49467   0.03246   0.60495   0.00000  Uiso   1.00
H1425  H     0.51272   0.29715   0.62003   0.00000  Uiso   1.00
H1426  H     0.59586   0.29129   0.61568   0.00000  Uiso   1.00
H1427  H     0.57216   0.24770   0.59063   0.00000  Uiso   1.00
H1428  H     0.57734   0.24715   0.65593   0.00000  Uiso   1.00
H1429  H     0.65591   0.13901   0.62082   0.00000  Uiso   1.00
H1430  H     0.66380   0.07818   0.56055   0.00000  Uiso   1.00
H1431  H     0.65130   0.00830   0.59602   0.00000  Uiso   1.00
H1432  H     0.56054   0.08677   0.93155   0.00000  Uiso   1.00
H1433  H     0.62844   0.33237   0.69357   0.00000  Uiso   1.00
H1434  H     0.62802   0.05977   0.75233   0.00000  Uiso   1.00
H1435  H     0.41294   0.16518   0.62698   0.00000  Uiso   1.00
H1436  H     0.44088   0.12267   0.54476   0.00000  Uiso   1.00
H1437  H     0.43387   0.04708   0.54727   0.00000  Uiso   1.00
H1438  H     0.40420   0.01355   0.63408   0.00000  Uiso   1.00
H1439  H     0.38321   0.05551   0.71799   0.00000  Uiso   1.00
H1440  H     0.33987   0.24417   0.86357   0.00000  Uiso   1.00
H1441  H     0.35739   0.31784   0.87107   0.00000  Uiso   1.00
H1442  H     0.39755   0.02289   0.79013   0.00000  Uiso   1.00
H1443  H     0.48362   0.20076   0.58861   0.00000  Uiso   1.00
H1444  H     0.41888   0.32024   0.70161   0.00000  Uiso   1.00
H1445  H     0.39601   0.24803   0.69325   0.00000  Uiso   1.00
H1446  H     0.62145   0.27698   0.76143   0.00000  Uiso   1.00
H1447  H     0.60723   0.32903   0.83414   0.00000  Uiso   1.00
H1448  H     0.57358   0.30966   0.92809   0.00000  Uiso   1.00
H1449  H     0.56159   0.23611   0.94935   0.00000  Uiso   1.00
H1450  H     0.58429   0.18252   0.87770   0.00000  Uiso   1.00
H1451  H     0.64877   0.10318   0.98600   0.00000  Uiso   1.00
H1452  H     0.62880   0.03378   0.96224   0.00000  Uiso   1.00
H1453  H     0.56884   0.04702   0.99375   0.00000  Uiso   1.00
H1454  H     0.39375   0.24655   0.50080   0.00000  Uiso   1.00
H1455  H     0.60685   0.04585   0.53248   0.00000  Uiso   1.00
H1456  H     0.36779   0.23673   0.92940   0.00000  Uiso   1.00
H1457  H     0.65372   0.18465   0.91292   0.00000  Uiso   1.00
H1458  H     0.33364   0.17230   0.97157   0.00000  Uiso   1.00
H1459  H     0.36373   0.14688   0.90744   0.00000  Uiso   1.00
H1460  H     0.50303   0.25537   0.52965   0.00000  Uiso   1.00
H1461  H     0.46051   0.31286   0.56479   0.00000  Uiso   1.00
H1462  H     0.40788   0.28820   0.56461   0.00000  Uiso   1.00
H1463  H     0.45024   0.30504   0.50260   0.00000  Uiso   1.00
H1464  H     0.48127   0.05896   0.95146   0.00000  Uiso   1.00
H1465  H     0.47617   0.07395   0.84224   0.00000  Uiso   1.00
H1466  H     0.41534   0.10016   0.91243   0.00000  Uiso   1.00
H1467  H     0.40655   0.10912   0.98270   0.00000  Uiso   1.00
H1468  H     0.40611   0.05767   0.95533   0.00000  Uiso   1.00
H1469  H     0.51391   0.30998   0.86020   0.00000  Uiso   1.00
H1470  H     0.45166   0.27937   0.91547   0.00000  Uiso   1.00
H1471  H     0.43166   0.26486   0.86099   0.00000  Uiso   1.00
H1472  H     0.42942   0.31862   0.88566   0.00000  Uiso   1.00
H1473  H     0.54319   0.04071   0.87631   0.00000  Uiso   1.00
H1474  H     0.56690   0.03689   0.80602   0.00000  Uiso   1.00
H1475  H     0.55046   0.08665   0.83735   0.00000  Uiso   1.00
H1476  H     0.56491   0.02043   0.61967   0.00000  Uiso   1.00
N1477  N     0.38093   0.16668   0.75002   0.00000  Uiso   1.00
N1478  N     0.49453   0.29483   0.84069   0.00000  Uiso   1.00
N1479  N     0.61906   0.16665   0.75000   0.00000  Uiso   1.00
N1480  N     0.49509   0.04721   0.83663   0.00000  Uiso   1.00
N1481  N     0.54051   0.03873   0.64655   0.00000  Uiso   1.00
N1482  N     0.52351   0.28417   0.64866   0.00000  Uiso   1.00
N1483  N     0.61689   0.09665   0.98264   0.00000  Uiso   1.00
N1484  N     0.38312   0.20831   0.91725   0.00000  Uiso   1.00
N1485  N     0.46829   0.25216   0.53517   0.00000  Uiso   1.00
N1486  N     0.47200   0.08485   0.93590   0.00000  Uiso   1.00
O1487  O     0.46179   0.22775   0.75001   0.00000  Uiso   1.00
O1488  O     0.53823   0.22774   0.75000   0.00000  Uiso   1.00
O1489  O     0.44280   0.16666   0.82681   0.00000  Uiso   1.00
O1490  O     0.51924   0.16665   0.82681   0.00000  Uiso   1.00
O1491  O     0.46177   0.10559   0.74999   0.00000  Uiso   1.00
O1492  O     0.53821   0.10558   0.74999   0.00000  Uiso   1.00
O1493  O     0.48076   0.16668   0.67319   0.00000  Uiso   1.00
O1494  O     0.55720   0.16667   0.67319   0.00000  Uiso   1.00
Zn1495 Zn    0.44896   0.16667   0.75000   0.00000  Uiso   1.00
Zn1496 Zn    0.55104   0.16666   0.75000   0.00000  Uiso   1.00
C1497  C     0.83402   0.24614   0.74884   0.00000  Uiso   1.00
C1498  C     0.78956   0.17400   0.91179   0.00000  Uiso   1.00
C1499  C     0.82943   0.31387   0.79285   0.00000  Uiso   1.00
C1500  C     0.80683   0.16722   0.85217   0.00000  Uiso   1.00
C1501  C     0.82810   0.02328   0.79132   0.00000  Uiso   1.00
C1502  C     0.83519   0.04239   0.74314   0.00000  Uiso   1.00
C1503  C     0.84973   0.01907   0.69484   0.00000  Uiso   1.00
C1504  C     0.84813   0.30898   0.69637   0.00000  Uiso   1.00
C1505  C     0.83610   0.29032   0.74603   0.00000  Uiso   1.00
C1506  C     0.98369   0.13683   0.72310   0.00000  Uiso   1.00
C1507  C     0.69807   0.13736   0.72213   0.00000  Uiso   1.00
C1508  C     0.81965   0.18465   0.98592   0.00000  Uiso   1.00
C1509  C     0.68391   0.19854   0.77268   0.00000  Uiso   1.00
C1510  C     0.96887   0.19655   0.77675   0.00000  Uiso   1.00
C1511  C     0.83481   0.08714   0.74437   0.00000  Uiso   1.00
C1512  C     0.85933   0.16729   0.64851   0.00000  Uiso   1.00
C1513  C     0.91566   0.12645   0.50926   0.00000  Uiso   1.00
C1514  C     0.87467   0.16592   0.58986   0.00000  Uiso   1.00
C1515  C     0.75275   0.20108   0.93788   0.00000  Uiso   1.00
C1516  C     0.75354   0.22354   0.98369   0.00000  Uiso   1.00
C1517  C     0.79099   0.22002   0.50269   0.00000  Uiso   1.00
C1518  C     0.87450   0.05345   0.83922   0.00000  Uiso   1.00
C1519  C     0.81575   0.16029   0.94230   0.00000  Uiso   1.00
C1520  C     0.84545   0.05723   0.62054   0.00000  Uiso   1.00
C1521  C     0.90281   0.26678   0.62693   0.00000  Uiso   1.00
C1522  C     0.96977   0.10396   0.69197   0.00000  Uiso   1.00
C1523  C     0.97996   0.10885   0.63738   0.00000  Uiso   1.00
C1524  C     0.98500   0.07435   0.60304   0.00000  Uiso   1.00
C1525  C     0.97847   0.03483   0.62317   0.00000  Uiso   1.00
C1526  C     0.96562   0.02971   0.67801   0.00000  Uiso   1.00
C1527  C     0.96248   0.06417   0.71204   0.00000  Uiso   1.00
C1528  C     0.73140   0.11334   0.67875   0.00000  Uiso   1.00
C1529  C     0.74848   0.13205   0.62933   0.00000  Uiso   1.00
C1530  C     0.85059   0.17076   0.51176   0.00000  Uiso   1.00
C1531  C     0.76291   0.10806   0.58236   0.00000  Uiso   1.00
C1532  C     0.75865   0.06537   0.58393   0.00000  Uiso   1.00
C1533  C     0.74258   0.04647   0.63301   0.00000  Uiso   1.00
C1534  C     0.73126   0.07026   0.68041   0.00000  Uiso   1.00
C1535  C     0.70256   0.23986   0.77843   0.00000  Uiso   1.00
C1536  C     0.69239   0.25997   0.82835   0.00000  Uiso   1.00
C1537  C     0.70117   0.30211   0.83242   0.00000  Uiso   1.00
C1538  C     0.72276   0.32393   0.78673   0.00000  Uiso   1.00
C1539  C     0.73395   0.30393   0.73682   0.00000  Uiso   1.00
C1540  C     0.72229   0.26258   0.73240   0.00000  Uiso   1.00
C1541  C     0.88224   0.13855   0.98697   0.00000  Uiso   1.00
C1542  C     0.93665   0.22578   0.81416   0.00000  Uiso   1.00
C1543  C     0.93902   0.26769   0.80212   0.00000  Uiso   1.00
C1544  C     0.93057   0.29757   0.84330   0.00000  Uiso   1.00
C1545  C     0.91331   0.28635   0.89639   0.00000  Uiso   1.00
C1546  C     0.90605   0.24485   0.90838   0.00000  Uiso   1.00
C1547  C     0.91817   0.21457   0.86753   0.00000  Uiso   1.00
C1548  C     0.93781   0.05381   0.99343   0.00000  Uiso   1.00
C1549  C     0.68196   0.17619   0.92796   0.00000  Uiso   1.00
C1550  C     0.77852   0.29153   0.54185   0.00000  Uiso   1.00
C1551  C     0.75585   0.08855   0.94740   0.00000  Uiso   1.00
C1552  C     0.87450   0.11465   0.94610   0.00000  Uiso   1.00
C1553  C     0.78230   0.28916   0.87741   0.00000  Uiso   1.00
C1554  C     0.83397   0.12039   0.93464   0.00000  Uiso   1.00
C1555  C     0.84600   0.18252   0.56454   0.00000  Uiso   1.00
C1556  C     0.91262   0.14214   0.55994   0.00000  Uiso   1.00
H1557  H     0.93573   0.13078   0.57844   0.00000  Uiso   1.00
H1558  H     0.86702   0.07414   0.58618   0.00000  Uiso   1.00
H1559  H     0.82145   0.07960   0.64771   0.00000  Uiso   1.00
H1560  H     0.82800   0.03246   0.60495   0.00000  Uiso   1.00
H1561  H     0.84605   0.29715   0.62003   0.00000  Uiso   1.00
H1562  H     0.92920   0.29129   0.61568   0.00000  Uiso   1.00
H1563  H     0.90550   0.24770   0.59063   0.00000  Uiso   1.00
H1564  H     0.91067   0.24715   0.65593   0.00000  Uiso   1.00
H1565  H     0.98924   0.13901   0.62082   0.00000  Uiso   1.00
H1566  H     0.99713   0.07818   0.56055   0.00000  Uiso   1.00
H1567  H     0.98463   0.00830   0.59602   0.00000  Uiso   1.00
H1568  H     0.89387   0.08677   0.93155   0.00000  Uiso   1.00
H1569  H     0.96177   0.33237   0.69357   0.00000  Uiso   1.00
H1570  H     0.96136   0.05977   0.75233   0.00000  Uiso   1.00
H1571  H     0.74627   0.16518   0.62698   0.00000  Uiso   1.00
H1572  H     0.77421   0.12267   0.54476   0.00000  Uiso   1.00
H1573  H     0.76720   0.04708   0.54727   0.00000  Uiso   1.00
H1574  H     0.73753   0.01355   0.63408   0.00000  Uiso   1.00
H1575  H     0.71654   0.05551   0.71799   0.00000  Uiso   1.00
H1576  H     0.67320   0.24417   0.86357   0.00000  Uiso   1.00
H1577  H     0.69073   0.31784   0.87107   0.00000  Uiso   1.00
H1578  H     0.73088   0.02289   0.79013   0.00000  Uiso   1.00
H1579  H     0.81696   0.20076   0.58861   0.00000  Uiso   1.00
H1580  H     0.75221   0.32024   0.70161   0.00000  Uiso   1.00
H1581  H     0.72935   0.24803   0.69325   0.00000  Uiso   1.00
H1582  H     0.95479   0.27698   0.76143   0.00000  Uiso   1.00
H1583  H     0.94057   0.32903   0.83414   0.00000  Uiso   1.00
H1584  H     0.90692   0.30966   0.92809   0.00000  Uiso   1.00
H1585  H     0.89493   0.23611   0.94935   0.00000  Uiso   1.00
H1586  H     0.91762   0.18252   0.87770   0.00000  Uiso   1.00
H1587  H     0.98210   0.10318   0.98600   0.00000  Uiso   1.00
H1588  H     0.96214   0.03378   0.96224   0.00000  Uiso   1.00
H1589  H     0.90218   0.04702   0.99375   0.00000  Uiso   1.00
H1590  H     0.72709   0.24655   0.50080   0.00000  Uiso   1.00
H1591  H     0.94019   0.04585   0.53248   0.00000  Uiso   1.00
H1592  H     0.70112   0.23673   0.92940   0.00000  Uiso   1.00
H1593  H     0.98706   0.18465   0.91292   0.00000  Uiso   1.00
H1594  H     0.66698   0.17230   0.97157   0.00000  Uiso   1.00
H1595  H     0.69707   0.14688   0.90744   0.00000  Uiso   1.00
H1596  H     0.83636   0.25537   0.52965   0.00000  Uiso   1.00
H1597  H     0.79384   0.31286   0.56479   0.00000  Uiso   1.00
H1598  H     0.74121   0.28820   0.56461   0.00000  Uiso   1.00
H1599  H     0.78357   0.30504   0.50260   0.00000  Uiso   1.00
H1600  H     0.81460   0.05896   0.95146   0.00000  Uiso   1.00
H1601  H     0.80950   0.07395   0.84224   0.00000  Uiso   1.00
H1602  H     0.74867   0.10016   0.91243   0.00000  Uiso   1.00
H1603  H     0.73988   0.10912   0.98270   0.00000  Uiso   1.00
H1604  H     0.73944   0.05767   0.95533   0.00000  Uiso   1.00
H1605  H     0.84724   0.30998   0.86020   0.00000  Uiso   1.00
H1606  H     0.78499   0.27937   0.91547   0.00000  Uiso   1.00
H1607  H     0.76500   0.26486   0.86099   0.00000  Uiso   1.00
H1608  H     0.76275   0.31862   0.88566   0.00000  Uiso   1.00
H1609  H     0.87652   0.04071   0.87631   0.00000  Uiso   1.00
H1610  H     0.90023   0.03689   0.80602   0.00000  Uiso   1.00
H1611  H     0.88379   0.08665   0.83735   0.00000  Uiso   1.00
H1612  H     0.89824   0.02043   0.61967   0.00000  Uiso   1.00
N1613  N     0.71426   0.16668   0.75002   0.00000  Uiso   1.00
N1614  N     0.82786   0.29483   0.84069   0.00000  Uiso   1.00
N1615  N     0.95239   0.16665   0.75000   0.00000  Uiso   1.00
N1616  N     0.82842   0.04721   0.83663   0.00000  Uiso   1.00
N1617  N     0.87384   0.03873   0.64655   0.00000  Uiso   1.00
N1618  N     0.85685   0.28417   0.64866   0.00000  Uiso   1.00
N1619  N     0.95023   0.09665   0.98264   0.00000  Uiso   1.00
N1620  N     0.71645   0.20831   0.91725   0.00000  Uiso   1.00
N1621  N     0.80162   0.25216   0.53517   0.00000  Uiso   1.00
N1622  N     0.80533   0.08485   0.93590   0.00000  Uiso   1.00
O1623  O     0.79512   0.22775   0.75001   0.00000  Uiso   1.00
O1624  O     0.87157   0.22774   0.75000   0.00000  Uiso   1.00
O1625  O     0.77613   0.16666   0.82681   0.00000  Uiso   1.00
O1626  O     0.85258   0.16665   0.82681   0.00000  Uiso   1.00
O1627  O     0.79510   0.10559   0.74999   0.00000  Uiso   1.00
O1628  O     0.87154   0.10558   0.74999   0.00000  Uiso   1.00
O1629  O     0.81409   0.16668   0.67319   0.00000  Uiso   1.00
O1630  O     0.89053   0.16667   0.67319   0.00000  Uiso   1.00
Zn1631 Zn    0.78229   0.16667   0.75000   0.00000  Uiso   1.00
Zn1632 Zn    0.88438   0.16666   0.75000   0.00000  Uiso   1.00
C1633  C     0.16735   0.57948   0.74884   0.00000  Uiso   1.00
C1634  C     0.12289   0.50733   0.91179   0.00000  Uiso   1.00
C1635  C     0.16276   0.64721   0.79285   0.00000  Uiso   1.00
C1636  C     0.14016   0.50055   0.85217   0.00000  Uiso   1.00
C1637  C     0.16144   0.35661   0.79132   0.00000  Uiso   1.00
C1638  C     0.16852   0.37572   0.74314   0.00000  Uiso   1.00
C1639  C     0.18306   0.35240   0.69484   0.00000  Uiso   1.00
C1640  C     0.18147   0.64231   0.69637   0.00000  Uiso   1.00
C1641  C     0.16944   0.62366   0.74603   0.00000  Uiso   1.00
C1642  C     0.31702   0.47017   0.72310   0.00000  Uiso   1.00
C1643  C     0.03140   0.47069   0.72213   0.00000  Uiso   1.00
C1644  C     0.15298   0.51798   0.98592   0.00000  Uiso   1.00
C1645  C     0.01724   0.53188   0.77268   0.00000  Uiso   1.00
C1646  C     0.30220   0.52988   0.77675   0.00000  Uiso   1.00
C1647  C     0.16814   0.42048   0.74437   0.00000  Uiso   1.00
C1648  C     0.19266   0.50062   0.64851   0.00000  Uiso   1.00
C1649  C     0.24899   0.45978   0.50926   0.00000  Uiso   1.00
C1650  C     0.20801   0.49926   0.58986   0.00000  Uiso   1.00
C1651  C     0.08608   0.53441   0.93788   0.00000  Uiso   1.00
C1652  C     0.08687   0.55688   0.98369   0.00000  Uiso   1.00
C1653  C     0.12432   0.55335   0.50269   0.00000  Uiso   1.00
C1654  C     0.20783   0.38678   0.83922   0.00000  Uiso   1.00
C1655  C     0.14908   0.49362   0.94230   0.00000  Uiso   1.00
C1656  C     0.17878   0.39056   0.62054   0.00000  Uiso   1.00
C1657  C     0.23615   0.60012   0.62693   0.00000  Uiso   1.00
C1658  C     0.30310   0.43730   0.69197   0.00000  Uiso   1.00
C1659  C     0.31330   0.44219   0.63738   0.00000  Uiso   1.00
C1660  C     0.31834   0.40768   0.60304   0.00000  Uiso   1.00
C1661  C     0.31180   0.36816   0.62317   0.00000  Uiso   1.00
C1662  C     0.29896   0.36304   0.67801   0.00000  Uiso   1.00
C1663  C     0.29581   0.39750   0.71204   0.00000  Uiso   1.00
C1664  C     0.06473   0.44668   0.67875   0.00000  Uiso   1.00
C1665  C     0.08181   0.46539   0.62933   0.00000  Uiso   1.00
C1666  C     0.18392   0.50409   0.51176   0.00000  Uiso   1.00
C1667  C     0.09624   0.44139   0.58236   0.00000  Uiso   1.00
C1668  C     0.09199   0.39870   0.58393   0.00000  Uiso   1.00
C1669  C     0.07592   0.37981   0.63301   0.00000  Uiso   1.00
C1670  C     0.06459   0.40359   0.68041   0.00000  Uiso   1.00
C1671  C     0.03589   0.57320   0.77843   0.00000  Uiso   1.00
C1672  C     0.02572   0.59330   0.82835   0.00000  Uiso   1.00
C1673  C     0.03451   0.63544   0.83242   0.00000  Uiso   1.00
C1674  C     0.05610   0.65726   0.78673   0.00000  Uiso   1.00
C1675  C     0.06729   0.63727   0.73682   0.00000  Uiso   1.00
C1676  C     0.05562   0.59592   0.73240   0.00000  Uiso   1.00
C1677  C     0.21558   0.47188   0.98697   0.00000  Uiso   1.00
C1678  C     0.26998   0.55911   0.81416   0.00000  Uiso   1.00
C1679  C     0.27235   0.60102   0.80212   0.00000  Uiso   1.00
C1680  C     0.26390   0.63090   0.84330   0.00000  Uiso   1.00
C1681  C     0.24664   0.61968   0.89639   0.00000  Uiso   1.00
C1682  C     0.23939   0.57819   0.90838   0.00000  Uiso   1.00
C1683  C     0.25151   0.54791   0.86753   0.00000  Uiso   1.00
C1684  C     0.27114   0.38714   0.99343   0.00000  Uiso   1.00
C1685  C     0.01529   0.50952   0.92796   0.00000  Uiso   1.00
C1686  C     0.11186   0.62486   0.54185   0.00000  Uiso   1.00
C1687  C     0.08918   0.42189   0.94740   0.00000  Uiso   1.00
C1688  C     0.20783   0.44799   0.94610   0.00000  Uiso   1.00
C1689  C     0.11563   0.62249   0.87741   0.00000  Uiso   1.00
C1690  C     0.16731   0.45372   0.93464   0.00000  Uiso   1.00
C1691  C     0.17934   0.51585   0.56454   0.00000  Uiso   1.00
C1692  C     0.24595   0.47547   0.55994   0.00000  Uiso   1.00
H1693  H     0.26906   0.46412   0.57844   0.00000  Uiso   1.00
H1694  H     0.20035   0.40747   0.58618   0.00000  Uiso   1.00
H1695  H     0.15479   0.41294   0.64771   0.00000  Uiso   1.00
H1696  H     0.16134   0.36579   0.60495   0.00000  Uiso   1.00
H1697  H     0.17938   0.63048   0.62003   0.00000  Uiso   1.00
H1698  H     0.26253   0.62462   0.61568   0.00000  Uiso   1.00
H1699  H     0.23883   0.58103   0.59063   0.00000  Uiso   1.00
H1700  H     0.24401   0.58049   0.65593   0.00000  Uiso   1.00
H1701  H     0.32258   0.47235   0.62082   0.00000  Uiso   1.00
H1702  H     0.33047   0.41152   0.56055   0.00000  Uiso   1.00
H1703  H     0.31797   0.34163   0.59602   0.00000  Uiso   1.00
H1704  H     0.22720   0.42010   0.93155   0.00000  Uiso   1.00
H1705  H     0.29511   0.66570   0.69357   0.00000  Uiso   1.00
H1706  H     0.29469   0.39310   0.75233   0.00000  Uiso   1.00
H1707  H     0.07960   0.49851   0.62698   0.00000  Uiso   1.00
H1708  H     0.10754   0.45600   0.54476   0.00000  Uiso   1.00
H1709  H     0.10054   0.38041   0.54727   0.00000  Uiso   1.00
H1710  H     0.07087   0.34688   0.63408   0.00000  Uiso   1.00
H1711  H     0.04987   0.38884   0.71799   0.00000  Uiso   1.00
H1712  H     0.00654   0.57751   0.86357   0.00000  Uiso   1.00
H1713  H     0.02406   0.65118   0.87107   0.00000  Uiso   1.00
H1714  H     0.06422   0.35623   0.79013   0.00000  Uiso   1.00
H1715  H     0.15029   0.53410   0.58861   0.00000  Uiso   1.00
H1716  H     0.08554   0.65358   0.70161   0.00000  Uiso   1.00
H1717  H     0.06268   0.58136   0.69325   0.00000  Uiso   1.00
H1718  H     0.28812   0.61031   0.76143   0.00000  Uiso   1.00
H1719  H     0.27390   0.66236   0.83414   0.00000  Uiso   1.00
H1720  H     0.24025   0.64299   0.92809   0.00000  Uiso   1.00
H1721  H     0.22826   0.56945   0.94935   0.00000  Uiso   1.00
H1722  H     0.25096   0.51586   0.87770   0.00000  Uiso   1.00
H1723  H     0.31544   0.43651   0.98600   0.00000  Uiso   1.00
H1724  H     0.29547   0.36711   0.96224   0.00000  Uiso   1.00
H1725  H     0.23551   0.38036   0.99375   0.00000  Uiso   1.00
H1726  H     0.06042   0.57988   0.50080   0.00000  Uiso   1.00
H1727  H     0.27352   0.37918   0.53248   0.00000  Uiso   1.00
H1728  H     0.03446   0.57006   0.92940   0.00000  Uiso   1.00
H1729  H     0.32039   0.51798   0.91292   0.00000  Uiso   1.00
H1730  H     0.00031   0.50563   0.97157   0.00000  Uiso   1.00
H1731  H     0.03040   0.48021   0.90744   0.00000  Uiso   1.00
H1732  H     0.16969   0.58870   0.52965   0.00000  Uiso   1.00
H1733  H     0.12717   0.64620   0.56479   0.00000  Uiso   1.00
H1734  H     0.07455   0.62153   0.56461   0.00000  Uiso   1.00
H1735  H     0.11691   0.63837   0.50260   0.00000  Uiso   1.00
H1736  H     0.14793   0.39230   0.95146   0.00000  Uiso   1.00
H1737  H     0.14284   0.40728   0.84224   0.00000  Uiso   1.00
H1738  H     0.08200   0.43349   0.91243   0.00000  Uiso   1.00
H1739  H     0.07322   0.44245   0.98270   0.00000  Uiso   1.00
H1740  H     0.07278   0.39101   0.95533   0.00000  Uiso   1.00
H1741  H     0.18058   0.64331   0.86020   0.00000  Uiso   1.00
H1742  H     0.11832   0.61270   0.91547   0.00000  Uiso   1.00
H1743  H     0.09833   0.59819   0.86099   0.00000  Uiso   1.00
H1744  H     0.09608   0.65195   0.88566   0.00000  Uiso   1.00
H1745  H     0.20986   0.37405   0.87631   0.00000  Uiso   1.00
H1746  H     0.23357   0.37023   0.80602   0.00000  Uiso   1.00
H1747  H     0.21712   0.41998   0.83735   0.00000  Uiso   1.00
H1748  H     0.23158   0.35376   0.61967   0.00000  Uiso   1.00
N1749  N     0.04760   0.50001   0.75002   0.00000  Uiso   1.00
N1750  N     0.16120   0.62816   0.84069   0.00000  Uiso   1.00
N1751  N     0.28573   0.49998   0.75000   0.00000  Uiso   1.00
N1752  N     0.16176   0.38054   0.83663   0.00000  Uiso   1.00
N1753  N     0.20718   0.37206   0.64655   0.00000  Uiso   1.00
N1754  N     0.19018   0.61751   0.64866   0.00000  Uiso   1.00
N1755  N     0.28356   0.42999   0.98264   0.00000  Uiso   1.00
N1756  N     0.04979   0.54165   0.91725   0.00000  Uiso   1.00
N1757  N     0.13495   0.58550   0.53517   0.00000  Uiso   1.00
N1758  N     0.13866   0.41818   0.93590   0.00000  Uiso   1.00
O1759  O     0.12846   0.56108   0.75001   0.00000  Uiso   1.00
O1760  O     0.20490   0.56107   0.75000   0.00000  Uiso   1.00
O1761  O     0.10947   0.50000   0.82681   0.00000  Uiso   1.00
O1762  O     0.18591   0.49999   0.82681   0.00000  Uiso   1.00
O1763  O     0.12843   0.43893   0.74999   0.00000  Uiso   1.00
O1764  O     0.20488   0.43892   0.74999   0.00000  Uiso   1.00
O1765  O     0.14742   0.50001   0.67319   0.00000  Uiso   1.00
O1766  O     0.22387   0.50000   0.67319   0.00000  Uiso   1.00
Zn1767 Zn    0.11562   0.50001   0.75000   0.00000  Uiso   1.00
Zn1768 Zn    0.21771   0.49999   0.75000   0.00000  Uiso   1.00
C1769  C     0.50068   0.57948   0.74884   0.00000  Uiso   1.00
C1770  C     0.45622   0.50733   0.91179   0.00000  Uiso   1.00
C1771  C     0.49610   0.64721   0.79285   0.00000  Uiso   1.00
C1772  C     0.47350   0.50055   0.85217   0.00000  Uiso   1.00
C1773  C     0.49477   0.35661   0.79132   0.00000  Uiso   1.00
C1774  C     0.50186   0.37572   0.74314   0.00000  Uiso   1.00
C1775  C     0.51640   0.35240   0.69484   0.00000  Uiso   1.00
C1776  C     0.51480   0.64231   0.69637   0.00000  Uiso   1.00
C1777  C     0.50277   0.62366   0.74603   0.00000  Uiso   1.00
C1778  C     0.65035   0.47017   0.72310   0.00000  Uiso   1.00
C1779  C     0.36474   0.47069   0.72213   0.00000  Uiso   1.00
C1780  C     0.48631   0.51798   0.98592   0.00000  Uiso   1.00
C1781  C     0.35057   0.53188   0.77268   0.00000  Uiso   1.00
C1782  C     0.63554   0.52988   0.77675   0.00000  Uiso   1.00
C1783  C     0.50147   0.42048   0.74437   0.00000  Uiso   1.00
C1784  C     0.52599   0.50062   0.64851   0.00000  Uiso   1.00
C1785  C     0.58233   0.45978   0.50926   0.00000  Uiso   1.00
C1786  C     0.54134   0.49926   0.58986   0.00000  Uiso   1.00
C1787  C     0.41942   0.53441   0.93788   0.00000  Uiso   1.00
C1788  C     0.42020   0.55688   0.98369   0.00000  Uiso   1.00
C1789  C     0.45765   0.55335   0.50269   0.00000  Uiso   1.00
C1790  C     0.54117   0.38678   0.83922   0.00000  Uiso   1.00
C1791  C     0.48241   0.49362   0.94230   0.00000  Uiso   1.00
C1792  C     0.51212   0.39056   0.62054   0.00000  Uiso   1.00
C1793  C     0.56948   0.60012   0.62693   0.00000  Uiso   1.00
C1794  C     0.63644   0.43730   0.69197   0.00000  Uiso   1.00
C1795  C     0.64663   0.44219   0.63738   0.00000  Uiso   1.00
C1796  C     0.65167   0.40768   0.60304   0.00000  Uiso   1.00
C1797  C     0.64513   0.36816   0.62317   0.00000  Uiso   1.00
C1798  C     0.63229   0.36304   0.67801   0.00000  Uiso   1.00
C1799  C     0.62915   0.39750   0.71204   0.00000  Uiso   1.00
C1800  C     0.39806   0.44668   0.67875   0.00000  Uiso   1.00
C1801  C     0.41515   0.46539   0.62933   0.00000  Uiso   1.00
C1802  C     0.51726   0.50409   0.51176   0.00000  Uiso   1.00
C1803  C     0.42958   0.44139   0.58236   0.00000  Uiso   1.00
C1804  C     0.42532   0.39870   0.58393   0.00000  Uiso   1.00
C1805  C     0.40925   0.37981   0.63301   0.00000  Uiso   1.00
C1806  C     0.39793   0.40359   0.68041   0.00000  Uiso   1.00
C1807  C     0.36923   0.57320   0.77843   0.00000  Uiso   1.00
C1808  C     0.35906   0.59330   0.82835   0.00000  Uiso   1.00
C1809  C     0.36784   0.63544   0.83242   0.00000  Uiso   1.00
C1810  C     0.38943   0.65726   0.78673   0.00000  Uiso   1.00
C1811  C     0.40062   0.63727   0.73682   0.00000  Uiso   1.00
C1812  C     0.38896   0.59592   0.73240   0.00000  Uiso   1.00
C1813  C     0.54891   0.47188   0.98697   0.00000  Uiso   1.00
C1814  C     0.60332   0.55911   0.81416   0.00000  Uiso   1.00
C1815  C     0.60568   0.60102   0.80212   0.00000  Uiso   1.00
C1816  C     0.59723   0.63090   0.84330   0.00000  Uiso   1.00
C1817  C     0.57997   0.61968   0.89639   0.00000  Uiso   1.00
C1818  C     0.57272   0.57819   0.90838   0.00000  Uiso   1.00
C1819  C     0.58484   0.54791   0.86753   0.00000  Uiso   1.00
C1820  C     0.60448   0.38714   0.99343   0.00000  Uiso   1.00
C1821  C     0.34863   0.50952   0.92796   0.00000  Uiso   1.00
C1822  C     0.44519   0.62486   0.54185   0.00000  Uiso   1.00
C1823  C     0.42252   0.42189   0.94740   0.00000  Uiso   1.00
C1824  C     0.54117   0.44799   0.94610   0.00000  Uiso   1.00
C1825  C     0.44897   0.62249   0.87741   0.00000  Uiso   1.00
C1826  C     0.50064   0.45372   0.93464   0.00000  Uiso   1.00
C1827  C     0.51267   0.51585   0.56454   0.00000  Uiso   1.00
C1828  C     0.57928   0.47547   0.55994   0.00000  Uiso   1.00
H1829  H     0.60239   0.46412   0.57844   0.00000  Uiso   1.00
H1830  H     0.53369   0.40747   0.58618   0.00000  Uiso   1.00
H1831  H     0.48812   0.41294   0.64771   0.00000  Uiso   1.00
H1832  H     0.49467   0.36579   0.60495   0.00000  Uiso   1.00
H1833  H     0.51272   0.63048   0.62003   0.00000  Uiso   1.00
H1834  H     0.59586   0.62462   0.61568   0.00000  Uiso   1.00
H1835  H     0.57216   0.58103   0.59063   0.00000  Uiso   1.00
H1836  H     0.57734   0.58049   0.65593   0.00000  Uiso   1.00
H1837  H     0.65591   0.47235   0.62082   0.00000  Uiso   1.00
H1838  H     0.66380   0.41152   0.56055   0.00000  Uiso   1.00
H1839  H     0.65130   0.34163   0.59602   0.00000  Uiso   1.00
H1840  H     0.56054   0.42010   0.93155   0.00000  Uiso   1.00
H1841  H     0.62844   0.66570   0.69357   0.00000  Uiso   1.00
H1842  H     0.62802   0.39310   0.75233   0.00000  Uiso   1.00
H1843  H     0.41294   0.49851   0.62698   0.00000  Uiso   1.00
H1844  H     0.44088   0.45600   0.54476   0.00000  Uiso   1.00
H1845  H     0.43387   0.38041   0.54727   0.00000  Uiso   1.00
H1846  H     0.40420   0.34688   0.63408   0.00000  Uiso   1.00
H1847  H     0.38321   0.38884   0.71799   0.00000  Uiso   1.00
H1848  H     0.33987   0.57751   0.86357   0.00000  Uiso   1.00
H1849  H     0.35739   0.65118   0.87107   0.00000  Uiso   1.00
H1850  H     0.39755   0.35623   0.79013   0.00000  Uiso   1.00
H1851  H     0.48362   0.53410   0.58861   0.00000  Uiso   1.00
H1852  H     0.41888   0.65358   0.70161   0.00000  Uiso   1.00
H1853  H     0.39601   0.58136   0.69325   0.00000  Uiso   1.00
H1854  H     0.62145   0.61031   0.76143   0.00000  Uiso   1.00
H1855  H     0.60723   0.66236   0.83414   0.00000  Uiso   1.00
H1856  H     0.57358   0.64299   0.92809   0.00000  Uiso   1.00
H1857  H     0.56159   0.56945   0.94935   0.00000  Uiso   1.00
H1858  H     0.58429   0.51586   0.87770   0.00000  Uiso   1.00
H1859  H     0.64877   0.43651   0.98600   0.00000  Uiso   1.00
H1860  H     0.62880   0.36711   0.96224   0.00000  Uiso   1.00
H1861  H     0.56884   0.38036   0.99375   0.00000  Uiso   1.00
H1862  H     0.39375   0.57988   0.50080   0.00000  Uiso   1.00
H1863  H     0.60685   0.37918   0.53248   0.00000  Uiso   1.00
H1864  H     0.36779   0.57006   0.92940   0.00000  Uiso   1.00
H1865  H     0.65372   0.51798   0.91292   0.00000  Uiso   1.00
H1866  H     0.33364   0.50563   0.97157   0.00000  Uiso   1.00
H1867  H     0.36373   0.48021   0.90744   0.00000  Uiso   1.00
H1868  H     0.50303   0.58870   0.52965   0.00000  Uiso   1.00
H1869  H     0.46051   0.64620   0.56479   0.00000  Uiso   1.00
H1870  H     0.40788   0.62153   0.56461   0.00000  Uiso   1.00
H1871  H     0.45024   0.63837   0.50260   0.00000  Uiso   1.00
H1872  H     0.48127   0.39230   0.95146   0.00000  Uiso   1.00
H1873  H     0.47617   0.40728   0.84224   0.00000  Uiso   1.00
H1874  H     0.41534   0.43349   0.91243   0.00000  Uiso   1.00
H1875  H     0.40655   0.44245   0.98270   0.00000  Uiso   1.00
H1876  H     0.40611   0.39101   0.95533   0.00000  Uiso   1.00
H1877  H     0.51391   0.64331   0.86020   0.00000  Uiso   1.00
H1878  H     0.45166   0.61270   0.91547   0.00000  Uiso   1.00
H1879  H     0.43166   0.59819   0.86099   0.00000  Uiso   1.00
H1880  H     0.42942   0.65195   0.88566   0.00000  Uiso   1.00
H1881  H     0.54319   0.37405   0.87631   0.00000  Uiso   1.00
H1882  H     0.56690   0.37023   0.80602   0.00000  Uiso   1.00
H1883  H     0.55046   0.41998   0.83735   0.00000  Uiso   1.00
H1884  H     0.56491   0.35376   0.61967   0.00000  Uiso   1.00
N1885  N     0.38093   0.50001   0.75002   0.00000  Uiso   1.00
N1886  N     0.49453   0.62816   0.84069   0.00000  Uiso   1.00
N1887  N     0.61906   0.49998   0.75000   0.00000  Uiso   1.00
N1888  N     0.49509   0.38054   0.83663   0.00000  Uiso   1.00
N1889  N     0.54051   0.37206   0.64655   0.00000  Uiso   1.00
N1890  N     0.52351   0.61751   0.64866   0.00000  Uiso   1.00
N1891  N     0.61689   0.42999   0.98264   0.00000  Uiso   1.00
N1892  N     0.38312   0.54165   0.91725   0.00000  Uiso   1.00
N1893  N     0.46829   0.58550   0.53517   0.00000  Uiso   1.00
N1894  N     0.47200   0.41818   0.93590   0.00000  Uiso   1.00
O1895  O     0.46179   0.56108   0.75001   0.00000  Uiso   1.00
O1896  O     0.53823   0.56107   0.75000   0.00000  Uiso   1.00
O1897  O     0.44280   0.50000   0.82681   0.00000  Uiso   1.00
O1898  O     0.51924   0.49999   0.82681   0.00000  Uiso   1.00
O1899  O     0.46177   0.43893   0.74999   0.00000  Uiso   1.00
O1900  O     0.53821   0.43892   0.74999   0.00000  Uiso   1.00
O1901  O     0.48076   0.50001   0.67319   0.00000  Uiso   1.00
O1902  O     0.55720   0.50000   0.67319   0.00000  Uiso   1.00
Zn1903 Zn    0.44896   0.50001   0.75000   0.00000  Uiso   1.00
Zn1904 Zn    0.55104   0.49999   0.75000   0.00000  Uiso   1.00
C1905  C     0.83402   0.57948   0.74884   0.00000  Uiso   1.00
C1906  C     0.78956   0.50733   0.91179   0.00000  Uiso   1.00
C1907  C     0.82943   0.64721   0.79285   0.00000  Uiso   1.00
C1908  C     0.80683   0.50055   0.85217   0.00000  Uiso   1.00
C1909  C     0.82810   0.35661   0.79132   0.00000  Uiso   1.00
C1910  C     0.83519   0.37572   0.74314   0.00000  Uiso   1.00
C1911  C     0.84973   0.35240   0.69484   0.00000  Uiso   1.00
C1912  C     0.84813   0.64231   0.69637   0.00000  Uiso   1.00
C1913  C     0.83610   0.62366   0.74603   0.00000  Uiso   1.00
C1914  C     0.98369   0.47017   0.72310   0.00000  Uiso   1.00
C1915  C     0.69807   0.47069   0.72213   0.00000  Uiso   1.00
C1916  C     0.81965   0.51798   0.98592   0.00000  Uiso   1.00
C1917  C     0.68391   0.53188   0.77268   0.00000  Uiso   1.00
C1918  C     0.96887   0.52988   0.77675   0.00000  Uiso   1.00
C1919  C     0.83481   0.42048   0.74437   0.00000  Uiso   1.00
C1920  C     0.85933   0.50062   0.64851   0.00000  Uiso   1.00
C1921  C     0.91566   0.45978   0.50926   0.00000  Uiso   1.00
C1922  C     0.87467   0.49926   0.58986   0.00000  Uiso   1.00
C1923  C     0.75275   0.53441   0.93788   0.00000  Uiso   1.00
C1924  C     0.75354   0.55688   0.98369   0.00000  Uiso   1.00
C1925  C     0.79099   0.55335   0.50269   0.00000  Uiso   1.00
C1926  C     0.87450   0.38678   0.83922   0.00000  Uiso   1.00
C1927  C     0.81575   0.49362   0.94230   0.00000  Uiso   1.00
C1928  C     0.84545   0.39056   0.62054   0.00000  Uiso   1.00
C1929  C     0.90281   0.60012   0.62693   0.00000  Uiso   1.00
C1930  C     0.96977   0.43730   0.69197   0.00000  Uiso   1.00
C1931  C     0.97996   0.44219   0.63738   0.00000  Uiso   1.00
C1932  C     0.98500   0.40768   0.60304   0.00000  Uiso   1.00
C1933  C     0.97847   0.36816   0.62317   0.00000  Uiso   1.00
C1934  C     0.96562   0.36304   0.67801   0.00000  Uiso   1.00
C1935  C     0.96248   0.39750   0.71204   0.00000  Uiso   1.00
C1936  C     0.73140   0.44668   0.67875   0.00000  Uiso   1.00
C1937  C     0.74848   0.46539   0.62933   0.00000  Uiso   1.00
C1938  C     0.85059   0.50409   0.51176   0.00000  Uiso   1.00
C1939  C     0.76291   0.44139   0.58236   0.00000  Uiso   1.00
C1940  C     0.75865   0.39870   0.58393   0.00000  Uiso   1.00
C1941  C     0.74258   0.37981   0.63301   0.00000  Uiso   1.00
C1942  C     0.73126   0.40359   0.68041   0.00000  Uiso   1.00
C1943  C     0.70256   0.57320   0.77843   0.00000  Uiso   1.00
C1944  C     0.69239   0.59330   0.82835   0.00000  Uiso   1.00
C1945  C     0.70117   0.63544   0.83242   0.00000  Uiso   1.00
C1946  C     0.72276   0.65726   0.78673   0.00000  Uiso   1.00
C1947  C     0.73395   0.63727   0.73682   0.00000  Uiso   1.00
C1948  C     0.72229   0.59592   0.73240   0.00000  Uiso   1.00
C1949  C     0.88224   0.47188   0.98697   0.00000  Uiso   1.00
C1950  C     0.93665   0.55911   0.81416   0.00000  Uiso   1.00
C1951  C     0.93902   0.60102   0.80212   0.00000  Uiso   1.00
C1952  C     0.93057   0.63090   0.84330   0.00000  Uiso   1.00
C1953  C     0.91331   0.61968   0.89639   0.00000  Uiso   1.00
C1954  C     0.90605   0.57819   0.90838   0.00000  Uiso   1.00
C1955  C     0.91817   0.54791   0.86753   0.00000  Uiso   1.00
C1956  C     0.93781   0.38714   0.99343   0.00000  Uiso   1.00
C1957  C     0.68196   0.50952   0.92796   0.00000  Uiso   1.00
C1958  C     0.77852   0.62486   0.54185   0.00000  Uiso   1.00
C1959  C     0.75585   0.42189   0.94740   0.00000  Uiso   1.00
C1960  C     0.87450   0.44799   0.94610   0.00000  Uiso   1.00
C1961  C     0.78230   0.62249   0.87741   0.00000  Uiso   1.00
C1962  C     0.83397   0.45372   0.93464   0.00000  Uiso   1.00
C1963  C     0.84600   0.51585   0.56454   0.00000  Uiso   1.00
C1964  C     0.91262   0.47547   0.55994   0.00000  Uiso   1.00
H1965  H     0.93573   0.46412   0.57844   0.00000  Uiso   1.00
H1966  H     0.86702   0.40747   0.58618   0.00000  Uiso   1.00
H1967  H     0.82145   0.41294   0.64771   0.00000  Uiso   1.00
H1968  H     0.82800   0.36579   0.60495   0.00000  Uiso   1.00
H1969  H     0.84605   0.63048   0.62003   0.00000  Uiso   1.00
H1970  H     0.92920   0.62462   0.61568   0.00000  Uiso   1.00
H1971  H     0.90550   0.58103   0.59063   0.00000  Uiso   1.00
H1972  H     0.91067   0.58049   0.65593   0.00000  Uiso   1.00
H1973  H     0.98924   0.47235   0.62082   0.00000  Uiso   1.00
H1974  H     0.99713   0.41152   0.56055   0.00000  Uiso   1.00
H1975  H     0.98463   0.34163   0.59602   0.00000  Uiso   1.00
H1976  H     0.89387   0.42010   0.93155   0.00000  Uiso   1.00
H1977  H     0.96177   0.66570   0.69357   0.00000  Uiso   1.00
H1978  H     0.96136   0.39310   0.75233   0.00000  Uiso   1.00
H1979  H     0.74627   0.49851   0.62698   0.00000  Uiso   1.00
H1980  H     0.77421   0.45600   0.54476   0.00000  Uiso   1.00
H1981  H     0.76720   0.38041   0.54727   0.00000  Uiso   1.00
H1982  H     0.73753   0.34688   0.63408   0.00000  Uiso   1.00
H1983  H     0.71654   0.38884   0.71799   0.00000  Uiso   1.00
H1984  H     0.67320   0.57751   0.86357   0.00000  Uiso   1.00
H1985  H     0.69073   0.65118   0.87107   0.00000  Uiso   1.00
H1986  H     0.73088   0.35623   0.79013   0.00000  Uiso   1.00
H1987  H     0.81696   0.53410   0.58861   0.00000  Uiso   1.00
H1988  H     0.75221   0.65358   0.70161   0.00000  Uiso   1.00
H1989  H     0.72935   0.58136   0.69325   0.00000  Uiso   1.00
H1990  H     0.95479   0.61031   0.76143   0.00000  Uiso   1.00
H1991  H     0.94057   0.66236   0.83414   0.00000  Uiso   1.00
H1992  H     0.90692   0.64299   0.92809   0.00000  Uiso   1.00
H1993  H     0.89493   0.56945   0.94935   0.00000  Uiso   1.00
H1994  H     0.91762   0.51586   0.87770   0.00000  Uiso   1.00
H1995  H     0.98210   0.43651   0.98600   0.00000  Uiso   1.00
H1996  H     0.96214   0.36711   0.96224   0.00000  Uiso   1.00
H1997  H     0.90218   0.38036   0.99375   0.00000  Uiso   1.00
H1998  H     0.72709   0.57988   0.50080   0.00000  Uiso   1.00
H1999  H     0.94019   0.37918   0.53248   0.00000  Uiso   1.00
H2000  H     0.70112   0.57006   0.92940   0.00000  Uiso   1.00
H2001  H     0.98706   0.51798   0.91292   0.00000  Uiso   1.00
H2002  H     0.66698   0.50563   0.97157   0.00000  Uiso   1.00
H2003  H     0.69707   0.48021   0.90744   0.00000  Uiso   1.00
H2004  H     0.83636   0.58870   0.52965   0.00000  Uiso   1.00
H2005  H     0.79384   0.64620   0.56479   0.00000  Uiso   1.00
H2006  H     0.74121   0.62153   0.56461   0.00000  Uiso   1.00
H2007  H     0.78357   0.63837   0.50260   0.00000  Uiso   1.00
H2008  H     0.81460   0.39230   0.95146   0.00000  Uiso   1.00
H2009  H     0.80950   0.40728   0.84224   0.00000  Uiso   1.00
H2010  H     0.74867   0.43349   0.91243   0.00000  Uiso   1.00
H2011  H     0.73988   0.44245   0.98270   0.00000  Uiso   1.00
H2012  H     0.73944   0.39101   0.95533   0.00000  Uiso   1.00
H2013  H     0.84724   0.64331   0.86020   0.00000  Uiso   1.00
H2014  H     0.78499   0.61270   0.91547   0.00000  Uiso   1.00
H2015  H     0.76500   0.59819   0.86099   0.00000  Uiso   1.00
H2016  H     0.76275   0.65195   0.88566   0.00000  Uiso   1.00
H2017  H     0.87652   0.37405   0.87631   0.00000  Uiso   1.00
H2018  H     0.90023   0.37023   0.80602   0.00000  Uiso   1.00
H2019  H     0.88379   0.41998   0.83735   0.00000  Uiso   1.00
H2020  H     0.89824   0.35376   0.61967   0.00000  Uiso   1.00
N2021  N     0.71426   0.50001   0.75002   0.00000  Uiso   1.00
N2022  N     0.82786   0.62816   0.84069   0.00000  Uiso   1.00
N2023  N     0.95239   0.49998   0.75000   0.00000  Uiso   1.00
N2024  N     0.82842   0.38054   0.83663   0.00000  Uiso   1.00
N2025  N     0.87384   0.37206   0.64655   0.00000  Uiso   1.00
N2026  N     0.85685   0.61751   0.64866   0.00000  Uiso   1.00
N2027  N     0.95023   0.42999   0.98264   0.00000  Uiso   1.00
N2028  N     0.71645   0.54165   0.91725   0.00000  Uiso   1.00
N2029  N     0.80162   0.58550   0.53517   0.00000  Uiso   1.00
N2030  N     0.80533   0.41818   0.93590   0.00000  Uiso   1.00
O2031  O     0.79512   0.56108   0.75001   0.00000  Uiso   1.00
O2032  O     0.87157   0.56107   0.75000   0.00000  Uiso   1.00
O2033  O     0.77613   0.50000   0.82681   0.00000  Uiso   1.00
O2034  O     0.85258   0.49999   0.82681   0.00000  Uiso   1.00
O2035  O     0.79510   0.43893   0.74999   0.00000  Uiso   1.00
O2036  O     0.87154   0.43892   0.74999   0.00000  Uiso   1.00
O2037  O     0.81409   0.50001   0.67319   0.00000  Uiso   1.00
O2038  O     0.89053   0.50000   0.67319   0.00000  Uiso   1.00
Zn2039 Zn    0.78229   0.50001   0.75000   0.00000  Uiso   1.00
Zn2040 Zn    0.88438   0.49999   0.75000   0.00000  Uiso   1.00
C2041  C     0.16735   0.91281   0.74884   0.00000  Uiso   1.00
C2042  C     0.12289   0.84066   0.91179   0.00000  Uiso   1.00
C2043  C     0.16276   0.98054   0.79285   0.00000  Uiso   1.00
C2044  C     0.14016   0.83388   0.85217   0.00000  Uiso   1.00
C2045  C     0.16144   0.68995   0.79132   0.00000  Uiso   1.00
C2046  C     0.16852   0.70905   0.74314   0.00000  Uiso   1.00
C2047  C     0.18306   0.68574   0.69484   0.00000  Uiso   1.00
C2048  C     0.18147   0.97565   0.69637   0.00000  Uiso   1.00
C2049  C     0.16944   0.95699   0.74603   0.00000  Uiso   1.00
C2050  C     0.31702   0.80350   0.72310   0.00000  Uiso   1.00
C2051  C     0.03140   0.80402   0.72213   0.00000  Uiso   1.00
C2052  C     0.15298   0.85131   0.98592   0.00000  Uiso   1.00
C2053  C     0.01724   0.86521   0.77268   0.00000  Uiso   1.00
C2054  C     0.30220   0.86322   0.77675   0.00000  Uiso   1.00
C2055  C     0.16814   0.75381   0.74437   0.00000  Uiso   1.00
C2056  C     0.19266   0.83395   0.64851   0.00000  Uiso   1.00
C2057  C     0.24899   0.79311   0.50926   0.00000  Uiso   1.00
C2058  C     0.20801   0.83259   0.58986   0.00000  Uiso   1.00
C2059  C     0.08608   0.86775   0.93788   0.00000  Uiso   1.00
C2060  C     0.08687   0.89021   0.98369   0.00000  Uiso   1.00
C2061  C     0.12432   0.88669   0.50269   0.00000  Uiso   1.00
C2062  C     0.20783   0.72012   0.83922   0.00000  Uiso   1.00
C2063  C     0.14908   0.82695   0.94230   0.00000  Uiso   1.00
C2064  C     0.17878   0.72389   0.62054   0.00000  Uiso   1.00
C2065  C     0.23615   0.93345   0.62693   0.00000  Uiso   1.00
C2066  C     0.30310   0.77063   0.69197   0.00000  Uiso   1.00
C2067  C     0.31330   0.77552   0.63738   0.00000  Uiso   1.00
C2068  C     0.31834   0.74102   0.60304   0.00000  Uiso   1.00
C2069  C     0.31180   0.70149   0.62317   0.00000  Uiso   1.00
C2070  C     0.29896   0.69637   0.67801   0.00000  Uiso   1.00
C2071  C     0.29581   0.73084   0.71204   0.00000  Uiso   1.00
C2072  C     0.06473   0.78001   0.67875   0.00000  Uiso   1.00
C2073  C     0.08181   0.79872   0.62933   0.00000  Uiso   1.00
C2074  C     0.18392   0.83742   0.51176   0.00000  Uiso   1.00
C2075  C     0.09624   0.77472   0.58236   0.00000  Uiso   1.00
C2076  C     0.09199   0.73204   0.58393   0.00000  Uiso   1.00
C2077  C     0.07592   0.71314   0.63301   0.00000  Uiso   1.00
C2078  C     0.06459   0.73692   0.68041   0.00000  Uiso   1.00
C2079  C     0.03589   0.90653   0.77843   0.00000  Uiso   1.00
C2080  C     0.02572   0.92664   0.82835   0.00000  Uiso   1.00
C2081  C     0.03451   0.96877   0.83242   0.00000  Uiso   1.00
C2082  C     0.05610   0.99060   0.78673   0.00000  Uiso   1.00
C2083  C     0.06729   0.97060   0.73682   0.00000  Uiso   1.00
C2084  C     0.05562   0.92925   0.73240   0.00000  Uiso   1.00
C2085  C     0.21558   0.80522   0.98697   0.00000  Uiso   1.00
C2086  C     0.26998   0.89245   0.81416   0.00000  Uiso   1.00
C2087  C     0.27235   0.93435   0.80212   0.00000  Uiso   1.00
C2088  C     0.26390   0.96424   0.84330   0.00000  Uiso   1.00
C2089  C     0.24664   0.95301   0.89639   0.00000  Uiso   1.00
C2090  C     0.23939   0.91152   0.90838   0.00000  Uiso   1.00
C2091  C     0.25151   0.88124   0.86753   0.00000  Uiso   1.00
C2092  C     0.27114   0.72048   0.99343   0.00000  Uiso   1.00
C2093  C     0.01529   0.84286   0.92796   0.00000  Uiso   1.00
C2094  C     0.11186   0.95819   0.54185   0.00000  Uiso   1.00
C2095  C     0.08918   0.75522   0.94740   0.00000  Uiso   1.00
C2096  C     0.20783   0.78132   0.94610   0.00000  Uiso   1.00
C2097  C     0.11563   0.95583   0.87741   0.00000  Uiso   1.00
C2098  C     0.16731   0.78706   0.93464   0.00000  Uiso   1.00
C2099  C     0.17934   0.84919   0.56454   0.00000  Uiso   1.00
C2100  C     0.24595   0.80881   0.55994   0.00000  Uiso   1.00
H2101  H     0.26906   0.79745   0.57844   0.00000  Uiso   1.00
H2102  H     0.20035   0.74080   0.58618   0.00000  Uiso   1.00
H2103  H     0.15479   0.74627   0.64771   0.00000  Uiso   1.00
H2104  H     0.16134   0.69913   0.60495   0.00000  Uiso   1.00
H2105  H     0.17938   0.96381   0.62003   0.00000  Uiso   1.00
H2106  H     0.26253   0.95795   0.61568   0.00000  Uiso   1.00
H2107  H     0.23883   0.91437   0.59063   0.00000  Uiso   1.00
H2108  H     0.24401   0.91382   0.65593   0.00000  Uiso   1.00
H2109  H     0.32258   0.80568   0.62082   0.00000  Uiso   1.00
H2110  H     0.33047   0.74485   0.56055   0.00000  Uiso   1.00
H2111  H     0.31797   0.67497   0.59602   0.00000  Uiso   1.00
H2112  H     0.22720   0.75344   0.93155   0.00000  Uiso   1.00
H2113  H     0.29511   0.99903   0.69357   0.00000  Uiso   1.00
H2114  H     0.29469   0.72643   0.75233   0.00000  Uiso   1.00
H2115  H     0.07960   0.83184   0.62698   0.00000  Uiso   1.00
H2116  H     0.10754   0.78934   0.54476   0.00000  Uiso   1.00
H2117  H     0.10054   0.71374   0.54727   0.00000  Uiso   1.00
H2118  H     0.07087   0.68021   0.63408   0.00000  Uiso   1.00
H2119  H     0.04987   0.72218   0.71799   0.00000  Uiso   1.00
H2120  H     0.00654   0.91084   0.86357   0.00000  Uiso   1.00
H2121  H     0.02406   0.98451   0.87107   0.00000  Uiso   1.00
H2122  H     0.06422   0.68956   0.79013   0.00000  Uiso   1.00
H2123  H     0.15029   0.86743   0.58861   0.00000  Uiso   1.00
H2124  H     0.08554   0.98691   0.70161   0.00000  Uiso   1.00
H2125  H     0.06268   0.91469   0.69325   0.00000  Uiso   1.00
H2126  H     0.28812   0.94364   0.76143   0.00000  Uiso   1.00
H2127  H     0.27390   0.99569   0.83414   0.00000  Uiso   1.00
H2128  H     0.24025   0.97633   0.92809   0.00000  Uiso   1.00
H2129  H     0.22826   0.90278   0.94935   0.00000  Uiso   1.00
H2130  H     0.25096   0.84919   0.87770   0.00000  Uiso   1.00
H2131  H     0.31544   0.76985   0.98600   0.00000  Uiso   1.00
H2132  H     0.29547   0.70045   0.96224   0.00000  Uiso   1.00
H2133  H     0.23551   0.71369   0.99375   0.00000  Uiso   1.00
H2134  H     0.06042   0.91321   0.50080   0.00000  Uiso   1.00
H2135  H     0.27352   0.71252   0.53248   0.00000  Uiso   1.00
H2136  H     0.03446   0.90339   0.92940   0.00000  Uiso   1.00
H2137  H     0.32039   0.85132   0.91292   0.00000  Uiso   1.00
H2138  H     0.00031   0.83896   0.97157   0.00000  Uiso   1.00
H2139  H     0.03040   0.81355   0.90744   0.00000  Uiso   1.00
H2140  H     0.16969   0.92204   0.52965   0.00000  Uiso   1.00
H2141  H     0.12717   0.97953   0.56479   0.00000  Uiso   1.00
H2142  H     0.07455   0.95486   0.56461   0.00000  Uiso   1.00
H2143  H     0.11691   0.97170   0.50260   0.00000  Uiso   1.00
H2144  H     0.14793   0.72563   0.95146   0.00000  Uiso   1.00
H2145  H     0.14284   0.74061   0.84224   0.00000  Uiso   1.00
H2146  H     0.08200   0.76682   0.91243   0.00000  Uiso   1.00
H2147  H     0.07322   0.77578   0.98270   0.00000  Uiso   1.00
H2148  H     0.07278   0.72434   0.95533   0.00000  Uiso   1.00
H2149  H     0.18058   0.97665   0.86020   0.00000  Uiso   1.00
H2150  H     0.11832   0.94603   0.91547   0.00000  Uiso   1.00
H2151  H     0.09833   0.93153   0.86099   0.00000  Uiso   1.00
H2152  H     0.09608   0.98529   0.88566   0.00000  Uiso   1.00
H2153  H     0.20986   0.70738   0.87631   0.00000  Uiso   1.00
H2154  H     0.23357   0.70356   0.80602   0.00000  Uiso   1.00
H2155  H     0.21712   0.75331   0.83735   0.00000  Uiso   1.00
H2156  H     0.23158   0.68710   0.61967   0.00000  Uiso   1.00
N2157  N     0.04760   0.83334   0.75002   0.00000  Uiso   1.00
N2158  N     0.16120   0.96150   0.84069   0.00000  Uiso   1.00
N2159  N     0.28573   0.83331   0.75000   0.00000  Uiso   1.00
N2160  N     0.16176   0.71387   0.83663   0.00000  Uiso   1.00
N2161  N     0.20718   0.70540   0.64655   0.00000  Uiso   1.00
N2162  N     0.19018   0.95084   0.64866   0.00000  Uiso   1.00
N2163  N     0.28356   0.76332   0.98264   0.00000  Uiso   1.00
N2164  N     0.04979   0.87498   0.91725   0.00000  Uiso   1.00
N2165  N     0.13495   0.91883   0.53517   0.00000  Uiso   1.00
N2166  N     0.13866   0.75151   0.93590   0.00000  Uiso   1.00
O2167  O     0.12846   0.89442   0.75001   0.00000  Uiso   1.00
O2168  O     0.20490   0.89441   0.75000   0.00000  Uiso   1.00
O2169  O     0.10947   0.83333   0.82681   0.00000  Uiso   1.00
O2170  O     0.18591   0.83332   0.82681   0.00000  Uiso   1.00
O2171  O     0.12843   0.77226   0.74999   0.00000  Uiso   1.00
O2172  O     0.20488   0.77225   0.74999   0.00000  Uiso   1.00
O2173  O     0.14742   0.83335   0.67319   0.00000  Uiso   1.00
O2174  O     0.22387   0.83334   0.67319   0.00000  Uiso   1.00
Zn2175 Zn    0.11562   0.83334   0.75000   0.00000  Uiso   1.00
Zn2176 Zn    0.21771   0.83333   0.75000   0.00000  Uiso   1.00
C2177  C     0.50068   0.91281   0.74884   0.00000  Uiso   1.00
C2178  C     0.45622   0.84066   0.91179   0.00000  Uiso   1.00
C2179  C     0.49610   0.98054   0.79285   0.00000  Uiso   1.00
C2180  C     0.47350   0.83388   0.85217   0.00000  Uiso   1.00
C2181  C     0.49477   0.68995   0.79132   0.00000  Uiso   1.00
C2182  C     0.50186   0.70905   0.74314   0.00000  Uiso   1.00
C2183  C     0.51640   0.68574   0.69484   0.00000  Uiso   1.00
C2184  C     0.51480   0.97565   0.69637   0.00000  Uiso   1.00
C2185  C     0.50277   0.95699   0.74603   0.00000  Uiso   1.00
C2186  C     0.65035   0.80350   0.72310   0.00000  Uiso   1.00
C2187  C     0.36474   0.80402   0.72213   0.00000  Uiso   1.00
C2188  C     0.48631   0.85131   0.98592   0.00000  Uiso   1.00
C2189  C     0.35057   0.86521   0.77268   0.00000  Uiso   1.00
C2190  C     0.63554   0.86322   0.77675   0.00000  Uiso   1.00
C2191  C     0.50147   0.75381   0.74437   0.00000  Uiso   1.00
C2192  C     0.52599   0.83395   0.64851   0.00000  Uiso   1.00
C2193  C     0.58233   0.79311   0.50926   0.00000  Uiso   1.00
C2194  C     0.54134   0.83259   0.58986   0.00000  Uiso   1.00
C2195  C     0.41942   0.86775   0.93788   0.00000  Uiso   1.00
C2196  C     0.42020   0.89021   0.98369   0.00000  Uiso   1.00
C2197  C     0.45765   0.88669   0.50269   0.00000  Uiso   1.00
C2198  C     0.54117   0.72012   0.83922   0.00000  Uiso   1.00
C2199  C     0.48241   0.82695   0.94230   0.00000  Uiso   1.00
C2200  C     0.51212   0.72389   0.62054   0.00000  Uiso   1.00
C2201  C     0.56948   0.93345   0.62693   0.00000  Uiso   1.00
C2202  C     0.63644   0.77063   0.69197   0.00000  Uiso   1.00
C2203  C     0.64663   0.77552   0.63738   0.00000  Uiso   1.00
C2204  C     0.65167   0.74102   0.60304   0.00000  Uiso   1.00
C2205  C     0.64513   0.70149   0.62317   0.00000  Uiso   1.00
C2206  C     0.63229   0.69637   0.67801   0.00000  Uiso   1.00
C2207  C     0.62915   0.73084   0.71204   0.00000  Uiso   1.00
C2208  C     0.39806   0.78001   0.67875   0.00000  Uiso   1.00
C2209  C     0.41515   0.79872   0.62933   0.00000  Uiso   1.00
C2210  C     0.51726   0.83742   0.51176   0.00000  Uiso   1.00
C2211  C     0.42958   0.77472   0.58236   0.00000  Uiso   1.00
C2212  C     0.42532   0.73204   0.58393   0.00000  Uiso   1.00
C2213  C     0.40925   0.71314   0.63301   0.00000  Uiso   1.00
C2214  C     0.39793   0.73692   0.68041   0.00000  Uiso   1.00
C2215  C     0.36923   0.90653   0.77843   0.00000  Uiso   1.00
C2216  C     0.35906   0.92664   0.82835   0.00000  Uiso   1.00
C2217  C     0.36784   0.96877   0.83242   0.00000  Uiso   1.00
C2218  C     0.38943   0.99060   0.78673   0.00000  Uiso   1.00
C2219  C     0.40062   0.97060   0.73682   0.00000  Uiso   1.00
C2220  C     0.38896   0.92925   0.73240   0.00000  Uiso   1.00
C2221  C     0.54891   0.80522   0.98697   0.00000  Uiso   1.00
C2222  C     0.60332   0.89245   0.81416   0.00000  Uiso   1.00
C2223  C     0.60568   0.93435   0.80212   0.00000  Uiso   1.00
C2224  C     0.59723   0.96424   0.84330   0.00000  Uiso   1.00
C2225  C     0.57997   0.95301   0.89639   0.00000  Uiso   1.00
C2226  C     0.57272   0.91152   0.90838   0.00000  Uiso   1.00
C2227  C     0.58484   0.88124   0.86753   0.00000  Uiso   1.00
C2228  C     0.60448   0.72048   0.99343   0.00000  Uiso   1.00
C2229  C     0.34863   0.84286   0.92796   0.00000  Uiso   1.00
C2230  C     0.44519   0.95819   0.54185   0.00000  Uiso   1.00
C2231  C     0.42252   0.75522   0.94740   0.00000  Uiso   1.00
C2232  C     0.54117   0.78132   0.94610   0.00000  Uiso   1.00
C2233  C     0.44897   0.95583   0.87741   0.00000  Uiso   1.00
C2234  C     0.50064   0.78706   0.93464   0.00000  Uiso   1.00
C2235  C     0.51267   0.84919   0.56454   0.00000  Uiso   1.00
C2236  C     0.57928   0.80881   0.55994   0.00000  Uiso   1.00
H2237  H     0.60239   0.79745   0.57844   0.00000  Uiso   1.00
H2238  H     0.53369   0.74080   0.58618   0.00000  Uiso   1.00
H2239  H     0.48812   0.74627   0.64771   0.00000  Uiso   1.00
H2240  H     0.49467   0.69913   0.60495   0.00000  Uiso   1.00
H2241  H     0.51272   0.96381   0.62003   0.00000  Uiso   1.00
H2242  H     0.59586   0.95795   0.61568   0.00000  Uiso   1.00
H2243  H     0.57216   0.91437   0.59063   0.00000  Uiso   1.00
H2244  H     0.57734   0.91382   0.65593   0.00000  Uiso   1.00
H2245  H     0.65591   0.80568   0.62082   0.00000  Uiso   1.00
H2246  H     0.66380   0.74485   0.56055   0.00000  Uiso   1.00
H2247  H     0.65130   0.67497   0.59602   0.00000  Uiso   1.00
H2248  H     0.56054   0.75344   0.93155   0.00000  Uiso   1.00
H2249  H     0.62844   0.99903   0.69357   0.00000  Uiso   1.00
H2250  H     0.62802   0.72643   0.75233   0.00000  Uiso   1.00
H2251  H     0.41294   0.83184   0.62698   0.00000  Uiso   1.00
H2252  H     0.44088   0.78934   0.54476   0.00000  Uiso   1.00
H2253  H     0.43387   0.71374   0.54727   0.00000  Uiso   1.00
H2254  H     0.40420   0.68021   0.63408   0.00000  Uiso   1.00
H2255  H     0.38321   0.72218   0.71799   0.00000  Uiso   1.00
H2256  H     0.33987   0.91084   0.86357   0.00000  Uiso   1.00
H2257  H     0.35739   0.98451   0.87107   0.00000  Uiso   1.00
H2258  H     0.39755   0.68956   0.79013   0.00000  Uiso   1.00
H2259  H     0.48362   0.86743   0.58861   0.00000  Uiso   1.00
H2260  H     0.41888   0.98691   0.70161   0.00000  Uiso   1.00
H2261  H     0.39601   0.91469   0.69325   0.00000  Uiso   1.00
H2262  H     0.62145   0.94364   0.76143   0.00000  Uiso   1.00
H2263  H     0.60723   0.99569   0.83414   0.00000  Uiso   1.00
H2264  H     0.57358   0.97633   0.92809   0.00000  Uiso   1.00
H2265  H     0.56159   0.90278   0.94935   0.00000  Uiso   1.00
H2266  H     0.58429   0.84919   0.87770   0.00000  Uiso   1.00
H2267  H     0.64877   0.76985   0.98600   0.00000  Uiso   1.00
H2268  H     0.62880   0.70045   0.96224   0.00000  Uiso   1.00
H2269  H     0.56884   0.71369   0.99375   0.00000  Uiso   1.00
H2270  H     0.39375   0.91321   0.50080   0.00000  Uiso   1.00
H2271  H     0.60685   0.71252   0.53248   0.00000  Uiso   1.00
H2272  H     0.36779   0.90339   0.92940   0.00000  Uiso   1.00
H2273  H     0.65372   0.85132   0.91292   0.00000  Uiso   1.00
H2274  H     0.33364   0.83896   0.97157   0.00000  Uiso   1.00
H2275  H     0.36373   0.81355   0.90744   0.00000  Uiso   1.00
H2276  H     0.50303   0.92204   0.52965   0.00000  Uiso   1.00
H2277  H     0.46051   0.97953   0.56479   0.00000  Uiso   1.00
H2278  H     0.40788   0.95486   0.56461   0.00000  Uiso   1.00
H2279  H     0.45024   0.97170   0.50260   0.00000  Uiso   1.00
H2280  H     0.48127   0.72563   0.95146   0.00000  Uiso   1.00
H2281  H     0.47617   0.74061   0.84224   0.00000  Uiso   1.00
H2282  H     0.41534   0.76682   0.91243   0.00000  Uiso   1.00
H2283  H     0.40655   0.77578   0.98270   0.00000  Uiso   1.00
H2284  H     0.40611   0.72434   0.95533   0.00000  Uiso   1.00
H2285  H     0.51391   0.97665   0.86020   0.00000  Uiso   1.00
H2286  H     0.45166   0.94603   0.91547   0.00000  Uiso   1.00
H2287  H     0.43166   0.93153   0.86099   0.00000  Uiso   1.00
H2288  H     0.42942   0.98529   0.88566   0.00000  Uiso   1.00
H2289  H     0.54319   0.70738   0.87631   0.00000  Uiso   1.00
H2290  H     0.56690   0.70356   0.80602   0.00000  Uiso   1.00
H2291  H     0.55046   0.75331   0.83735   0.00000  Uiso   1.00
H2292  H     0.56491   0.68710   0.61967   0.00000  Uiso   1.00
N2293  N     0.38093   0.83334   0.75002   0.00000  Uiso   1.00
N2294  N     0.49453   0.96150   0.84069   0.00000  Uiso   1.00
N2295  N     0.61906   0.83331   0.75000   0.00000  Uiso   1.00
N2296  N     0.49509   0.71387   0.83663   0.00000  Uiso   1.00
N2297  N     0.54051   0.70540   0.64655   0.00000  Uiso   1.00
N2298  N     0.52351   0.95084   0.64866   0.00000  Uiso   1.00
N2299  N     0.61689   0.76332   0.98264   0.00000  Uiso   1.00
N2300  N     0.38312   0.87498   0.91725   0.00000  Uiso   1.00
N2301  N     0.46829   0.91883   0.53517   0.00000  Uiso   1.00
N2302  N     0.47200   0.75151   0.93590   0.00000  Uiso   1.00
O2303  O     0.46179   0.89442   0.75001   0.00000  Uiso   1.00
O2304  O     0.53823   0.89441   0.75000   0.00000  Uiso   1.00
O2305  O     0.44280   0.83333   0.82681   0.00000  Uiso   1.00
O2306  O     0.51924   0.83332   0.82681   0.00000  Uiso   1.00
O2307  O     0.46177   0.77226   0.74999   0.00000  Uiso   1.00
O2308  O     0.53821   0.77225   0.74999   0.00000  Uiso   1.00
O2309  O     0.48076   0.83335   0.67319   0.00000  Uiso   1.00
O2310  O     0.55720   0.83334   0.67319   0.00000  Uiso   1.00
Zn2311 Zn    0.44896   0.83334   0.75000   0.00000  Uiso   1.00
Zn2312 Zn    0.55104   0.83333   0.75000   0.00000  Uiso   1.00
C2313  C     0.83402   0.91281   0.74884   0.00000  Uiso   1.00
C2314  C     0.78956   0.84066   0.91179   0.00000  Uiso   1.00
C2315  C     0.82943   0.98054   0.79285   0.00000  Uiso   1.00
C2316  C     0.80683   0.83388   0.85217   0.00000  Uiso   1.00
C2317  C     0.82810   0.68995   0.79132   0.00000  Uiso   1.00
C2318  C     0.83519   0.70905   0.74314   0.00000  Uiso   1.00
C2319  C     0.84973   0.68574   0.69484   0.00000  Uiso   1.00
C2320  C     0.84813   0.97565   0.69637   0.00000  Uiso   1.00
C2321  C     0.83610   0.95699   0.74603   0.00000  Uiso   1.00
C2322  C     0.98369   0.80350   0.72310   0.00000  Uiso   1.00
C2323  C     0.69807   0.80402   0.72213   0.00000  Uiso   1.00
C2324  C     0.81965   0.85131   0.98592   0.00000  Uiso   1.00
C2325  C     0.68391   0.86521   0.77268   0.00000  Uiso   1.00
C2326  C     0.96887   0.86322   0.77675   0.00000  Uiso   1.00
C2327  C     0.83481   0.75381   0.74437   0.00000  Uiso   1.00
C2328  C     0.85933   0.83395   0.64851   0.00000  Uiso   1.00
C2329  C     0.91566   0.79311   0.50926   0.00000  Uiso   1.00
C2330  C     0.87467   0.83259   0.58986   0.00000  Uiso   1.00
C2331  C     0.75275   0.86775   0.93788   0.00000  Uiso   1.00
C2332  C     0.75354   0.89021   0.98369   0.00000  Uiso   1.00
C2333  C     0.79099   0.88669   0.50269   0.00000  Uiso   1.00
C2334  C     0.87450   0.72012   0.83922   0.00000  Uiso   1.00
C2335  C     0.81575   0.82695   0.94230   0.00000  Uiso   1.00
C2336  C     0.84545   0.72389   0.62054   0.00000  Uiso   1.00
C2337  C     0.90281   0.93345   0.62693   0.00000  Uiso   1.00
C2338  C     0.96977   0.77063   0.69197   0.00000  Uiso   1.00
C2339  C     0.97996   0.77552   0.63738   0.00000  Uiso   1.00
C2340  C     0.98500   0.74102   0.60304   0.00000  Uiso   1.00
C2341  C     0.97847   0.70149   0.62317   0.00000  Uiso   1.00
C2342  C     0.96562   0.69637   0.67801   0.00000  Uiso   1.00
C2343  C     0.96248   0.73084   0.71204   0.00000  Uiso   1.00
C2344  C     0.73140   0.78001   0.67875   0.00000  Uiso   1.00
C2345  C     0.74848   0.79872   0.62933   0.00000  Uiso   1.00
C2346  C     0.85059   0.83742   0.51176   0.00000  Uiso   1.00
C2347  C     0.76291   0.77472   0.58236   0.00000  Uiso   1.00
C2348  C     0.75865   0.73204   0.58393   0.00000  Uiso   1.00
C2349  C     0.74258   0.71314   0.63301   0.00000  Uiso   1.00
C2350  C     0.73126   0.73692   0.68041   0.00000  Uiso   1.00
C2351  C     0.70256   0.90653   0.77843   0.00000  Uiso   1.00
C2352  C     0.69239   0.92664   0.82835   0.00000  Uiso   1.00
C2353  C     0.70117   0.96877   0.83242   0.00000  Uiso   1.00
C2354  C     0.72276   0.99060   0.78673   0.00000  Uiso   1.00
C2355  C     0.73395   0.97060   0.73682   0.00000  Uiso   1.00
C2356  C     0.72229   0.92925   0.73240   0.00000  Uiso   1.00
C2357  C     0.88224   0.80522   0.98697   0.00000  Uiso   1.00
C2358  C     0.93665   0.89245   0.81416   0.00000  Uiso   1.00
C2359  C     0.93902   0.93435   0.80212   0.00000  Uiso   1.00
C2360  C     0.93057   0.96424   0.84330   0.00000  Uiso   1.00
C2361  C     0.91331   0.95301   0.89639   0.00000  Uiso   1.00
C2362  C     0.90605   0.91152   0.90838   0.00000  Uiso   1.00
C2363  C     0.91817   0.88124   0.86753   0.00000  Uiso   1.00
C2364  C     0.93781   0.72048   0.99343   0.00000  Uiso   1.00
C2365  C     0.68196   0.84286   0.92796   0.00000  Uiso   1.00
C2366  C     0.77852   0.95819   0.54185   0.00000  Uiso   1.00
C2367  C     0.75585   0.75522   0.94740   0.00000  Uiso   1.00
C2368  C     0.87450   0.78132   0.94610   0.00000  Uiso   1.00
C2369  C     0.78230   0.95583   0.87741   0.00000  Uiso   1.00
C2370  C     0.83397   0.78706   0.93464   0.00000  Uiso   1.00
C2371  C     0.84600   0.84919   0.56454   0.00000  Uiso   1.00
C2372  C     0.91262   0.80881   0.55994   0.00000  Uiso   1.00
H2373  H     0.93573   0.79745   0.57844   0.00000  Uiso   1.00
H2374  H     0.86702   0.74080   0.58618   0.00000  Uiso   1.00
H2375  H     0.82145   0.74627   0.64771   0.00000  Uiso   1.00
H2376  H     0.82800   0.69913   0.60495   0.00000  Uiso   1.00
H2377  H     0.84605   0.96381   0.62003   0.00000  Uiso   1.00
H2378  H     0.92920   0.95795   0.61568   0.00000  Uiso   1.00
H2379  H     0.90550   0.91437   0.59063   0.00000  Uiso   1.00
H2380  H     0.91067   0.91382   0.65593   0.00000  Uiso   1.00
H2381  H     0.98924   0.80568   0.62082   0.00000  Uiso   1.00
H2382  H     0.99713   0.74485   0.56055   0.00000  Uiso   1.00
H2383  H     0.98463   0.67497   0.59602   0.00000  Uiso   1.00
H2384  H     0.89387   0.75344   0.93155   0.00000  Uiso   1.00
H2385  H     0.96177   0.99903   0.69357   0.00000  Uiso   1.00
H2386  H     0.96136   0.72643   0.75233   0.00000  Uiso   1.00
H2387  H     0.74627   0.83184   0.62698   0.00000  Uiso   1.00
H2388  H     0.77421   0.78934   0.54476   0.00000  Uiso   1.00
H2389  H     0.76720   0.71374   0.54727   0.00000  Uiso   1.00
H2390  H     0.73753   0.68021   0.63408   0.00000  Uiso   1.00
H2391  H     0.71654   0.72218   0.71799   0.00000  Uiso   1.00
H2392  H     0.67320   0.91084   0.86357   0.00000  Uiso   1.00
H2393  H     0.69073   0.98451   0.87107   0.00000  Uiso   1.00
H2394  H     0.73088   0.68956   0.79013   0.00000  Uiso   1.00
H2395  H     0.81696   0.86743   0.58861   0.00000  Uiso   1.00
H2396  H     0.75221   0.98691   0.70161   0.00000  Uiso   1.00
H2397  H     0.72935   0.91469   0.69325   0.00000  Uiso   1.00
H2398  H     0.95479   0.94364   0.76143   0.00000  Uiso   1.00
H2399  H     0.94057   0.99569   0.83414   0.00000  Uiso   1.00
H2400  H     0.90692   0.97633   0.92809   0.00000  Uiso   1.00
H2401  H     0.89493   0.90278   0.94935   0.00000  Uiso   1.00
H2402  H     0.91762   0.84919   0.87770   0.00000  Uiso   1.00
H2403  H     0.98210   0.76985   0.98600   0.00000  Uiso   1.00
H2404  H     0.96214   0.70045   0.96224   0.00000  Uiso   1.00
H2405  H     0.90218   0.71369   0.99375   0.00000  Uiso   1.00
H2406  H     0.72709   0.91321   0.50080   0.00000  Uiso   1.00
H2407  H     0.94019   0.71252   0.53248   0.00000  Uiso   1.00
H2408  H     0.70112   0.90339   0.92940   0.00000  Uiso   1.00
H2409  H     0.98706   0.85132   0.91292   0.00000  Uiso   1.00
H2410  H     0.66698   0.83896   0.97157   0.00000  Uiso   1.00
H2411  H     0.69707   0.81355   0.90744   0.00000  Uiso   1.00
H2412  H     0.83636   0.92204   0.52965   0.00000  Uiso   1.00
H2413  H     0.79384   0.97953   0.56479   0.00000  Uiso   1.00
H2414  H     0.74121   0.95486   0.56461   0.00000  Uiso   1.00
H2415  H     0.78357   0.97170   0.50260   0.00000  Uiso   1.00
H2416  H     0.81460   0.72563   0.95146   0.00000  Uiso   1.00
H2417  H     0.80950   0.74061   0.84224   0.00000  Uiso   1.00
H2418  H     0.74867   0.76682   0.91243   0.00000  Uiso   1.00
H2419  H     0.73988   0.77578   0.98270   0.00000  Uiso   1.00
H2420  H     0.73944   0.72434   0.95533   0.00000  Uiso   1.00
H2421  H     0.84724   0.97665   0.86020   0.00000  Uiso   1.00
H2422  H     0.78499   0.94603   0.91547   0.00000  Uiso   1.00
H2423  H     0.76500   0.93153   0.86099   0.00000  Uiso   1.00
H2424  H     0.76275   0.98529   0.88566   0.00000  Uiso   1.00
H2425  H     0.87652   0.70738   0.87631   0.00000  Uiso   1.00
H2426  H     0.90023   0.70356   0.80602   0.00000  Uiso   1.00
H2427  H     0.88379   0.75331   0.83735   0.00000  Uiso   1.00
H2428  H     0.89824   0.68710   0.61967   0.00000  Uiso   1.00
N2429  N     0.71426   0.83334   0.75002   0.00000  Uiso   1.00
N2430  N     0.82786   0.96150   0.84069   0.00000  Uiso   1.00
N2431  N     0.95239   0.83331   0.75000   0.00000  Uiso   1.00
N2432  N     0.82842   0.71387   0.83663   0.00000  Uiso   1.00
N2433  N     0.87384   0.70540   0.64655   0.00000  Uiso   1.00
N2434  N     0.85685   0.95084   0.64866   0.00000  Uiso   1.00
N2435  N     0.95023   0.76332   0.98264   0.00000  Uiso   1.00
N2436  N     0.71645   0.87498   0.91725   0.00000  Uiso   1.00
N2437  N     0.80162   0.91883   0.53517   0.00000  Uiso   1.00
N2438  N     0.80533   0.75151   0.93590   0.00000  Uiso   1.00
O2439  O     0.79512   0.89442   0.75001   0.00000  Uiso   1.00
O2440  O     0.87157   0.89441   0.75000   0.00000  Uiso   1.00
O2441  O     0.77613   0.83333   0.82681   0.00000  Uiso   1.00
O2442  O     0.85258   0.83332   0.82681   0.00000  Uiso   1.00
O2443  O     0.79510   0.77226   0.74999   0.00000  Uiso   1.00
O2444  O     0.87154   0.77225   0.74999   0.00000  Uiso   1.00
O2445  O     0.81409   0.83335   0.67319   0.00000  Uiso   1.00
O2446  O     0.89053   0.83334   0.67319   0.00000  Uiso   1.00
Zn2447 Zn    0.78229   0.83334   0.75000   0.00000  Uiso   1.00
Zn2448 Zn    0.88438   0.83333   0.75000   0.00000  Uiso   1.00
loop_
_geom_bond_atom_site_label_1
_geom_bond_atom_site_label_2
_geom_bond_distance
_geom_bond_site_symmetry_2
_ccdc_geom_bond_type
C1     O128    1.314   .     A
C1     C9      1.438   .     S
C1     O127    1.319   .     A
C2     C4      1.507   .     S
C2     C19     1.411   .     A
C2     C23     1.403   .     A
C3     C9      1.395   .     A
C3     N118    1.422   .     S
C3     C413    1.390   .     S
C4     O129    1.327   .     A
C4     O130    1.341   .     A
C5     N120    1.414   .     S
C5     C6      1.395   .     A
C5     C819    1.390   1_545 S
C6     C15     1.451   .     S
C6     C7      1.409   .     A
C7     N121    1.424   .     S
C7     C824    1.411   1_545 S
C8     C9      1.407   .     A
C8     N122    1.428   .     S
C8     C415    1.411   .     S
C10    N119    1.374   .     A
C10    C26     1.472   .     S
C10    C147    1.455   .     S
C11    C32     1.470   .     S
C11    N117    1.373   .     A
C11    C282    1.455   1_455 S
C12    C23     1.418   .     A
C12    C1245   1.420   .     S
C12    C1258   1.429   .     S
C13    N117    1.381   .     A
C13    C39     1.474   .     S
C13    C286    1.452   1_455 S
C14    C46     1.474   .     S
C14    N119    1.371   .     A
C14    C149    1.452   .     S
C15    O132    1.319   .     A
C15    O131    1.325   .     A
C16    O134    1.329   .     A
C16    O133    1.325   .     A
C16    C18     1.474   .     S
C17    C60     1.399   .     A
C17    C1269   1.409   1_554 S
C17    N1347   1.428   1_554 S
C18    C60     1.396   .     A
C18    C59     1.395   .     A
C19    N124    1.420   .     S
C19    C20     1.405   .     A
C20    C1245   1.407   .     S
C20    H1318   1.081   .     S
C21    N125    1.434   .     S
C21    C1236   1.420   1_554 S
C21    C1244   1.407   1_554 S
C22    N120    1.449   .     S
C22    H113    1.105   .     S
C22    H115    1.109   .     S
C22    H114    1.099   .     S
C23    C58     1.398   .     A
C24    H64     1.103   .     S
C24    H63     1.103   .     S
C24    H62     1.097   .     S
C24    N121    1.428   .     S
C25    H67     1.109   .     S
C25    N122    1.449   .     S
C25    H68     1.105   .     S
C25    H66     1.104   .     S
C26    C27     1.397   .     A
C26    C31     1.402   .     A
C27    H69     1.084   .     S
C27    C28     1.397   .     A
C28    C29     1.394   .     A
C28    H70     1.079   .     S
C29    C30     1.397   .     A
C29    H71     1.081   .     S
C30    C31     1.397   .     A
C30    H889    1.082   1_545 S
C31    H74     1.077   .     S
C32    C38     1.400   .     A
C32    C33     1.403   .     A
C33    H75     1.083   .     S
C33    C35     1.392   .     A
C34    C59     1.404   .     A
C34    C1236   1.429   1_554 S
C34    C1269   1.422   1_554 S
C35    C36     1.390   .     A
C35    H76     1.072   .     S
C36    H77     1.080   .     S
C36    C37     1.397   .     A
C37    C38     1.399   .     A
C37    H78     1.078   .     S
C38    H79     1.079   .     S
C39    C40     1.400   .     A
C39    C44     1.406   .     A
C40    H80     1.073   .     S
C40    C41     1.398   .     A
C41    C42     1.392   .     A
C41    H81     1.082   .     S
C42    C43     1.395   .     A
C42    H490    1.082   .     S
C43    H84     1.074   .     S
C43    C44     1.395   .     A
C44    H85     1.084   .     S
C45    C56     1.396   .     A
C45    C1241   1.409   .     S
C45    C1258   1.422   .     S
C46    C51     1.405   .     A
C46    C47     1.404   .     A
C47    C48     1.397   .     A
C47    H86     1.083   .     S
C48    H87     1.075   .     S
C48    C49     1.396   .     A
C49    C50     1.393   .     A
C49    H88     1.082   .     S
C50    H89     1.077   .     S
C50    C51     1.397   .     A
C51    H90     1.082   .     S
C52    N123    1.450   .     S
C52    H93     1.110   .     S
C52    H92     1.110   .     S
C52    H1319   1.106   .     S
C53    H99     1.106   .     S
C53    N124    1.443   .     S
C53    H98     1.110   .     S
C53    H369    1.108   1_455 S
C54    H101    1.107   .     S
C54    N125    1.445   .     S
C54    H103    1.110   .     S
C54    H102    1.110   .     S
C55    H106    1.104   .     S
C55    H107    1.108   .     S
C55    N126    1.451   .     S
C55    H108    1.111   .     S
C56    C58     1.390   .     A
C56    H72     1.076   .     S
C57    H111    1.101   .     S
C57    H112    1.111   .     S
C57    H110    1.102   .     S
C57    N118    1.431   .     S
C58    N126    1.436   .     S
C59    H83     1.079   .     S
C60    H61     1.063   .     S
H65    N122    1.030   .     S
H73    C438    1.082   .     S
H82    C858    1.082   1_545 S
H91    N123    1.030   .     S
H94    C1244   1.081   1_554 S
H95    C1276   1.106   1_554 S
H96    N124    1.032   .     S
H97    C189    1.108   .     S
H100   N125    1.031   .     S
H104   N126    1.033   .     S
H105   N120    1.028   .     S
H109   N118    1.022   .     S
H116   N121    1.025   .     S
N117   Zn135   2.087   .     S
N119   Zn136   2.086   .     S
N123   C1241   1.428   .     S
O127   Zn135   2.016   .     S
O128   Zn136   2.025   .     S
O129   Zn135   1.991   .     S
O130   Zn136   1.954   .     S
O131   Zn135   2.025   .     S
O132   Zn136   2.016   .     S
O133   Zn135   1.954   .     S
O134   Zn136   1.991   .     S
C137   O264    1.314   .     A
C137   C145    1.438   .     S
C137   O263    1.319   .     A
C138   C140    1.507   .     S
C138   C155    1.411   .     A
C138   C159    1.403   .     A
C139   C145    1.395   .     A
C139   N254    1.422   .     S
C139   C549    1.390   .     S
C140   O265    1.327   .     A
C140   O266    1.341   .     A
C141   N256    1.414   .     S
C141   C142    1.395   .     A
C141   C955    1.390   1_545 S
C142   C151    1.451   .     S
C142   C143    1.409   .     A
C143   N257    1.424   .     S
C143   C960    1.411   1_545 S
C144   C145    1.407   .     A
C144   N258    1.428   .     S
C144   C551    1.411   .     S
C146   N255    1.374   .     A
C146   C162    1.472   .     S
C146   C283    1.455   .     S
C147   C168    1.470   .     S
C147   N253    1.373   .     A
C148   C159    1.418   .     A
C148   C1381   1.420   .     S
C148   C1394   1.429   .     S
C149   N253    1.381   .     A
C149   C175    1.474   .     S
C150   C182    1.474   .     S
C150   N255    1.371   .     A
C150   C285    1.452   .     S
C151   O268    1.319   .     A
C151   O267    1.325   .     A
C152   O270    1.329   .     A
C152   O269    1.325   .     A
C152   C154    1.474   .     S
C153   C196    1.399   .     A
C153   C1405   1.409   1_554 S
C153   N1483   1.428   1_554 S
C154   C196    1.396   .     A
C154   C195    1.395   .     A
C155   N260    1.420   .     S
C155   C156    1.405   .     A
C156   C1381   1.407   .     S
C156   H1454   1.081   .     S
C157   N261    1.434   .     S
C157   C1372   1.420   1_554 S
C157   C1380   1.407   1_554 S
C158   N256    1.449   .     S
C158   H249    1.105   .     S
C158   H251    1.109   .     S
C158   H250    1.099   .     S
C159   C194    1.398   .     A
C160   H200    1.103   .     S
C160   H199    1.103   .     S
C160   H198    1.097   .     S
C160   N257    1.428   .     S
C161   H203    1.109   .     S
C161   N258    1.449   .     S
C161   H204    1.105   .     S
C161   H202    1.104   .     S
C162   C163    1.397   .     A
C162   C167    1.402   .     A
C163   H205    1.084   .     S
C163   C164    1.397   .     A
C164   C165    1.394   .     A
C164   H206    1.079   .     S
C165   C166    1.397   .     A
C165   H207    1.081   .     S
C166   C167    1.397   .     A
C166   H1025   1.082   1_545 S
C167   H210    1.077   .     S
C168   C174    1.400   .     A
C168   C169    1.403   .     A
C169   H211    1.083   .     S
C169   C171    1.392   .     A
C170   C195    1.404   .     A
C170   C1372   1.429   1_554 S
C170   C1405   1.422   1_554 S
C171   C172    1.390   .     A
C171   H212    1.072   .     S
C172   H213    1.080   .     S
C172   C173    1.397   .     A
C173   C174    1.399   .     A
C173   H214    1.078   .     S
C174   H215    1.079   .     S
C175   C176    1.400   .     A
C175   C180    1.406   .     A
C176   H216    1.073   .     S
C176   C177    1.398   .     A
C177   C178    1.392   .     A
C177   H217    1.082   .     S
C178   C179    1.395   .     A
C178   H626    1.082   .     S
C179   H220    1.074   .     S
C179   C180    1.395   .     A
C180   H221    1.084   .     S
C181   C192    1.396   .     A
C181   C1377   1.409   .     S
C181   C1394   1.422   .     S
C182   C187    1.405   .     A
C182   C183    1.404   .     A
C183   C184    1.397   .     A
C183   H222    1.083   .     S
C184   H223    1.075   .     S
C184   C185    1.396   .     A
C185   C186    1.393   .     A
C185   H224    1.082   .     S
C186   H225    1.077   .     S
C186   C187    1.397   .     A
C187   H226    1.082   .     S
C188   N259    1.450   .     S
C188   H229    1.110   .     S
C188   H228    1.110   .     S
C188   H1455   1.106   .     S
C189   H235    1.106   .     S
C189   N260    1.443   .     S
C189   H234    1.110   .     S
C190   H237    1.107   .     S
C190   N261    1.445   .     S
C190   H239    1.110   .     S
C190   H238    1.110   .     S
C191   H242    1.104   .     S
C191   H243    1.108   .     S
C191   N262    1.451   .     S
C191   H244    1.111   .     S
C192   C194    1.390   .     A
C192   H208    1.076   .     S
C193   H247    1.101   .     S
C193   H248    1.111   .     S
C193   H246    1.102   .     S
C193   N254    1.431   .     S
C194   N262    1.436   .     S
C195   H219    1.079   .     S
C196   H197    1.063   .     S
H201   N258    1.030   .     S
H209   C574    1.082   .     S
H218   C994    1.082   1_545 S
H227   N259    1.030   .     S
H230   C1380   1.081   1_554 S
H231   C1412   1.106   1_554 S
H232   N260    1.032   .     S
H233   C325    1.108   .     S
H236   N261    1.031   .     S
H240   N262    1.033   .     S
H241   N256    1.028   .     S
H245   N254    1.022   .     S
H252   N257    1.025   .     S
N253   Zn271   2.087   .     S
N255   Zn272   2.086   .     S
N259   C1377   1.428   .     S
O263   Zn271   2.016   .     S
O264   Zn272   2.025   .     S
O265   Zn271   1.991   .     S
O266   Zn272   1.954   .     S
O267   Zn271   2.025   .     S
O268   Zn272   2.016   .     S
O269   Zn271   1.954   .     S
O270   Zn272   1.991   .     S
C273   O400    1.314   .     A
C273   C281    1.438   .     S
C273   O399    1.319   .     A
C274   C276    1.507   .     S
C274   C291    1.411   .     A
C274   C295    1.403   .     A
C275   C281    1.395   .     A
C275   N390    1.422   .     S
C275   C685    1.390   .     S
C276   O401    1.327   .     A
C276   O402    1.341   .     A
C277   N392    1.414   .     S
C277   C278    1.395   .     A
C277   C1091   1.390   1_545 S
C278   C287    1.451   .     S
C278   C279    1.409   .     A
C279   N393    1.424   .     S
C279   C1096   1.411   1_545 S
C280   C281    1.407   .     A
C280   N394    1.428   .     S
C280   C687    1.411   .     S
C282   N391    1.374   .     A
C282   C298    1.472   .     S
C282   C11     1.455   1_655 S
C283   C304    1.470   .     S
C283   N389    1.373   .     A
C284   C295    1.418   .     A
C284   C1517   1.420   .     S
C284   C1530   1.429   .     S
C285   N389    1.381   .     A
C285   C311    1.474   .     S
C286   C318    1.474   .     S
C286   N391    1.371   .     A
C286   C13     1.452   1_655 S
C287   O404    1.319   .     A
C287   O403    1.325   .     A
C288   O406    1.329   .     A
C288   O405    1.325   .     A
C288   C290    1.474   .     S
C289   C332    1.399   .     A
C289   C1541   1.409   1_554 S
C289   N1619   1.428   1_554 S
C290   C332    1.396   .     A
C290   C331    1.395   .     A
C291   N396    1.420   .     S
C291   C292    1.405   .     A
C292   C1517   1.407   .     S
C292   H1590   1.081   .     S
C293   N397    1.434   .     S
C293   C1508   1.420   1_554 S
C293   C1516   1.407   1_554 S
C294   N392    1.449   .     S
C294   H385    1.105   .     S
C294   H387    1.109   .     S
C294   H386    1.099   .     S
C295   C330    1.398   .     A
C296   H336    1.103   .     S
C296   H335    1.103   .     S
C296   H334    1.097   .     S
C296   N393    1.428   .     S
C297   H339    1.109   .     S
C297   N394    1.449   .     S
C297   H340    1.105   .     S
C297   H338    1.104   .     S
C298   C299    1.397   .     A
C298   C303    1.402   .     A
C299   H341    1.084   .     S
C299   C300    1.397   .     A
C300   C301    1.394   .     A
C300   H342    1.079   .     S
C301   C302    1.397   .     A
C301   H343    1.081   .     S
C302   C303    1.397   .     A
C302   H1161   1.082   1_545 S
C303   H346    1.077   .     S
C304   C310    1.400   .     A
C304   C305    1.403   .     A
C305   H347    1.083   .     S
C305   C307    1.392   .     A
C306   C331    1.404   .     A
C306   C1508   1.429   1_554 S
C306   C1541   1.422   1_554 S
C307   C308    1.390   .     A
C307   H348    1.072   .     S
C308   H349    1.080   .     S
C308   C309    1.397   .     A
C309   C310    1.399   .     A
C309   H350    1.078   .     S
C310   H351    1.079   .     S
C311   C312    1.400   .     A
C311   C316    1.406   .     A
C312   H352    1.073   .     S
C312   C313    1.398   .     A
C313   C314    1.392   .     A
C313   H353    1.082   .     S
C314   C315    1.395   .     A
C314   H762    1.082   .     S
C315   H356    1.074   .     S
C315   C316    1.395   .     A
C316   H357    1.084   .     S
C317   C328    1.396   .     A
C317   C1513   1.409   .     S
C317   C1530   1.422   .     S
C318   C323    1.405   .     A
C318   C319    1.404   .     A
C319   C320    1.397   .     A
C319   H358    1.083   .     S
C320   H359    1.075   .     S
C320   C321    1.396   .     A
C321   C322    1.393   .     A
C321   H360    1.082   .     S
C322   H361    1.077   .     S
C322   C323    1.397   .     A
C323   H362    1.082   .     S
C324   N395    1.450   .     S
C324   H365    1.110   .     S
C324   H364    1.110   .     S
C324   H1591   1.106   .     S
C325   H371    1.106   .     S
C325   N396    1.443   .     S
C325   H370    1.110   .     S
C326   H373    1.107   .     S
C326   N397    1.445   .     S
C326   H375    1.110   .     S
C326   H374    1.110   .     S
C327   H378    1.104   .     S
C327   H379    1.108   .     S
C327   N398    1.451   .     S
C327   H380    1.111   .     S
C328   C330    1.390   .     A
C328   H344    1.076   .     S
C329   H383    1.101   .     S
C329   H384    1.111   .     S
C329   H382    1.102   .     S
C329   N390    1.431   .     S
C330   N398    1.436   .     S
C331   H355    1.079   .     S
C332   H333    1.063   .     S
H337   N394    1.030   .     S
H345   C710    1.082   .     S
H354   C1130   1.082   1_545 S
H363   N395    1.030   .     S
H366   C1516   1.081   1_554 S
H367   C1548   1.106   1_554 S
H368   N396    1.032   .     S
H369   C53     1.108   1_655 S
H372   N397    1.031   .     S
H376   N398    1.033   .     S
H377   N392    1.028   .     S
H381   N390    1.022   .     S
H388   N393    1.025   .     S
N389   Zn407   2.087   .     S
N391   Zn408   2.086   .     S
N395   C1513   1.428   .     S
O399   Zn407   2.016   .     S
O400   Zn408   2.025   .     S
O401   Zn407   1.991   .     S
O402   Zn408   1.954   .     S
O403   Zn407   2.025   .     S
O404   Zn408   2.016   .     S
O405   Zn407   1.954   .     S
O406   Zn408   1.991   .     S
C409   O536    1.314   .     A
C409   C417    1.438   .     S
C409   O535    1.319   .     A
C410   C412    1.507   .     S
C410   C427    1.411   .     A
C410   C431    1.403   .     A
C411   C417    1.395   .     A
C411   N526    1.422   .     S
C411   C821    1.390   .     S
C412   O537    1.327   .     A
C412   O538    1.341   .     A
C413   N528    1.414   .     S
C413   C414    1.395   .     A
C414   C423    1.451   .     S
C414   C415    1.409   .     A
C415   N529    1.424   .     S
C416   C417    1.407   .     A
C416   N530    1.428   .     S
C416   C823    1.411   .     S
C418   N527    1.374   .     A
C418   C434    1.472   .     S
C418   C555    1.455   .     S
C419   C440    1.470   .     S
C419   N525    1.373   .     A
C419   C690    1.455   1_455 S
C420   C431    1.418   .     A
C420   C1653   1.420   .     S
C420   C1666   1.429   .     S
C421   N525    1.381   .     A
C421   C447    1.474   .     S
C421   C694    1.452   1_455 S
C422   C454    1.474   .     S
C422   N527    1.371   .     A
C422   C557    1.452   .     S
C423   O540    1.319   .     A
C423   O539    1.325   .     A
C424   O542    1.329   .     A
C424   O541    1.325   .     A
C424   C426    1.474   .     S
C425   C468    1.399   .     A
C425   C1677   1.409   1_554 S
C425   N1755   1.428   1_554 S
C426   C468    1.396   .     A
C426   C467    1.395   .     A
C427   N532    1.420   .     S
C427   C428    1.405   .     A
C428   C1653   1.407   .     S
C428   H1726   1.081   .     S
C429   N533    1.434   .     S
C429   C1644   1.420   1_554 S
C429   C1652   1.407   1_554 S
C430   N528    1.449   .     S
C430   H521    1.105   .     S
C430   H523    1.109   .     S
C430   H522    1.099   .     S
C431   C466    1.398   .     A
C432   H472    1.103   .     S
C432   H471    1.103   .     S
C432   H470    1.097   .     S
C432   N529    1.428   .     S
C433   H475    1.109   .     S
C433   N530    1.449   .     S
C433   H476    1.105   .     S
C433   H474    1.104   .     S
C434   C435    1.397   .     A
C434   C439    1.402   .     A
C435   H477    1.084   .     S
C435   C436    1.397   .     A
C436   C437    1.394   .     A
C436   H478    1.079   .     S
C437   C438    1.397   .     A
C437   H479    1.081   .     S
C438   C439    1.397   .     A
C439   H482    1.077   .     S
C440   C446    1.400   .     A
C440   C441    1.403   .     A
C441   H483    1.083   .     S
C441   C443    1.392   .     A
C442   C467    1.404   .     A
C442   C1644   1.429   1_554 S
C442   C1677   1.422   1_554 S
C443   C444    1.390   .     A
C443   H484    1.072   .     S
C444   H485    1.080   .     S
C444   C445    1.397   .     A
C445   C446    1.399   .     A
C445   H486    1.078   .     S
C446   H487    1.079   .     S
C447   C448    1.400   .     A
C447   C452    1.406   .     A
C448   H488    1.073   .     S
C448   C449    1.398   .     A
C449   C450    1.392   .     A
C449   H489    1.082   .     S
C450   C451    1.395   .     A
C450   H898    1.082   .     S
C451   H492    1.074   .     S
C451   C452    1.395   .     A
C452   H493    1.084   .     S
C453   C464    1.396   .     A
C453   C1649   1.409   .     S
C453   C1666   1.422   .     S
C454   C459    1.405   .     A
C454   C455    1.404   .     A
C455   C456    1.397   .     A
C455   H494    1.083   .     S
C456   H495    1.075   .     S
C456   C457    1.396   .     A
C457   C458    1.393   .     A
C457   H496    1.082   .     S
C458   H497    1.077   .     S
C458   C459    1.397   .     A
C459   H498    1.082   .     S
C460   N531    1.450   .     S
C460   H501    1.110   .     S
C460   H500    1.110   .     S
C460   H1727   1.106   .     S
C461   H507    1.106   .     S
C461   N532    1.443   .     S
C461   H506    1.110   .     S
C461   H777    1.108   1_455 S
C462   H509    1.107   .     S
C462   N533    1.445   .     S
C462   H511    1.110   .     S
C462   H510    1.110   .     S
C463   H514    1.104   .     S
C463   H515    1.108   .     S
C463   N534    1.451   .     S
C463   H516    1.111   .     S
C464   C466    1.390   .     A
C464   H480    1.076   .     S
C465   H519    1.101   .     S
C465   H520    1.111   .     S
C465   H518    1.102   .     S
C465   N526    1.431   .     S
C466   N534    1.436   .     S
C467   H491    1.079   .     S
C468   H469    1.063   .     S
H473   N530    1.030   .     S
H481   C846    1.082   .     S
H499   N531    1.030   .     S
H502   C1652   1.081   1_554 S
H503   C1684   1.106   1_554 S
H504   N532    1.032   .     S
H505   C597    1.108   .     S
H508   N533    1.031   .     S
H512   N534    1.033   .     S
H513   N528    1.028   .     S
H517   N526    1.022   .     S
H524   N529    1.025   .     S
N525   Zn543   2.087   .     S
N527   Zn544   2.086   .     S
N531   C1649   1.428   .     S
O535   Zn543   2.016   .     S
O536   Zn544   2.025   .     S
O537   Zn543   1.991   .     S
O538   Zn544   1.954   .     S
O539   Zn543   2.025   .     S
O540   Zn544   2.016   .     S
O541   Zn543   1.954   .     S
O542   Zn544   1.991   .     S
C545   O672    1.314   .     A
C545   C553    1.438   .     S
C545   O671    1.319   .     A
C546   C548    1.507   .     S
C546   C563    1.411   .     A
C546   C567    1.403   .     A
C547   C553    1.395   .     A
C547   N662    1.422   .     S
C547   C957    1.390   .     S
C548   O673    1.327   .     A
C548   O674    1.341   .     A
C549   N664    1.414   .     S
C549   C550    1.395   .     A
C550   C559    1.451   .     S
C550   C551    1.409   .     A
C551   N665    1.424   .     S
C552   C553    1.407   .     A
C552   N666    1.428   .     S
C552   C959    1.411   .     S
C554   N663    1.374   .     A
C554   C570    1.472   .     S
C554   C691    1.455   .     S
C555   C576    1.470   .     S
C555   N661    1.373   .     A
C556   C567    1.418   .     A
C556   C1789   1.420   .     S
C556   C1802   1.429   .     S
C557   N661    1.381   .     A
C557   C583    1.474   .     S
C558   C590    1.474   .     S
C558   N663    1.371   .     A
C558   C693    1.452   .     S
C559   O676    1.319   .     A
C559   O675    1.325   .     A
C560   O678    1.329   .     A
C560   O677    1.325   .     A
C560   C562    1.474   .     S
C561   C604    1.399   .     A
C561   C1813   1.409   1_554 S
C561   N1891   1.428   1_554 S
C562   C604    1.396   .     A
C562   C603    1.395   .     A
C563   N668    1.420   .     S
C563   C564    1.405   .     A
C564   C1789   1.407   .     S
C564   H1862   1.081   .     S
C565   N669    1.434   .     S
C565   C1780   1.420   1_554 S
C565   C1788   1.407   1_554 S
C566   N664    1.449   .     S
C566   H657    1.105   .     S
C566   H659    1.109   .     S
C566   H658    1.099   .     S
C567   C602    1.398   .     A
C568   H608    1.103   .     S
C568   H607    1.103   .     S
C568   H606    1.097   .     S
C568   N665    1.428   .     S
C569   H611    1.109   .     S
C569   N666    1.449   .     S
C569   H612    1.105   .     S
C569   H610    1.104   .     S
C570   C571    1.397   .     A
C570   C575    1.402   .     A
C571   H613    1.084   .     S
C571   C572    1.397   .     A
C572   C573    1.394   .     A
C572   H614    1.079   .     S
C573   C574    1.397   .     A
C573   H615    1.081   .     S
C574   C575    1.397   .     A
C575   H618    1.077   .     S
C576   C582    1.400   .     A
C576   C577    1.403   .     A
C577   H619    1.083   .     S
C577   C579    1.392   .     A
C578   C603    1.404   .     A
C578   C1780   1.429   1_554 S
C578   C1813   1.422   1_554 S
C579   C580    1.390   .     A
C579   H620    1.072   .     S
C580   H621    1.080   .     S
C580   C581    1.397   .     A
C581   C582    1.399   .     A
C581   H622    1.078   .     S
C582   H623    1.079   .     S
C583   C584    1.400   .     A
C583   C588    1.406   .     A
C584   H624    1.073   .     S
C584   C585    1.398   .     A
C585   C586    1.392   .     A
C585   H625    1.082   .     S
C586   C587    1.395   .     A
C586   H1034   1.082   .     S
C587   H628    1.074   .     S
C587   C588    1.395   .     A
C588   H629    1.084   .     S
C589   C600    1.396   .     A
C589   C1785   1.409   .     S
C589   C1802   1.422   .     S
C590   C595    1.405   .     A
C590   C591    1.404   .     A
C591   C592    1.397   .     A
C591   H630    1.083   .     S
C592   H631    1.075   .     S
C592   C593    1.396   .     A
C593   C594    1.393   .     A
C593   H632    1.082   .     S
C594   H633    1.077   .     S
C594   C595    1.397   .     A
C595   H634    1.082   .     S
C596   N667    1.450   .     S
C596   H637    1.110   .     S
C596   H636    1.110   .     S
C596   H1863   1.106   .     S
C597   H643    1.106   .     S
C597   N668    1.443   .     S
C597   H642    1.110   .     S
C598   H645    1.107   .     S
C598   N669    1.445   .     S
C598   H647    1.110   .     S
C598   H646    1.110   .     S
C599   H650    1.104   .     S
C599   H651    1.108   .     S
C599   N670    1.451   .     S
C599   H652    1.111   .     S
C600   C602    1.390   .     A
C600   H616    1.076   .     S
C601   H655    1.101   .     S
C601   H656    1.111   .     S
C601   H654    1.102   .     S
C601   N662    1.431   .     S
C602   N670    1.436   .     S
C603   H627    1.079   .     S
C604   H605    1.063   .     S
H609   N666    1.030   .     S
H617   C982    1.082   .     S
H635   N667    1.030   .     S
H638   C1788   1.081   1_554 S
H639   C1820   1.106   1_554 S
H640   N668    1.032   .     S
H641   C733    1.108   .     S
H644   N669    1.031   .     S
H648   N670    1.033   .     S
H649   N664    1.028   .     S
H653   N662    1.022   .     S
H660   N665    1.025   .     S
N661   Zn679   2.087   .     S
N663   Zn680   2.086   .     S
N667   C1785   1.428   .     S
O671   Zn679   2.016   .     S
O672   Zn680   2.025   .     S
O673   Zn679   1.991   .     S
O674   Zn680   1.954   .     S
O675   Zn679   2.025   .     S
O676   Zn680   2.016   .     S
O677   Zn679   1.954   .     S
O678   Zn680   1.991   .     S
C681   O808    1.314   .     A
C681   C689    1.438   .     S
C681   O807    1.319   .     A
C682   C684    1.507   .     S
C682   C699    1.411   .     A
C682   C703    1.403   .     A
C683   C689    1.395   .     A
C683   N798    1.422   .     S
C683   C1093   1.390   .     S
C684   O809    1.327   .     A
C684   O810    1.341   .     A
C685   N800    1.414   .     S
C685   C686    1.395   .     A
C686   C695    1.451   .     S
C686   C687    1.409   .     A
C687   N801    1.424   .     S
C688   C689    1.407   .     A
C688   N802    1.428   .     S
C688   C1095   1.411   .     S
C690   N799    1.374   .     A
C690   C706    1.472   .     S
C690   C419    1.455   1_655 S
C691   C712    1.470   .     S
C691   N797    1.373   .     A
C692   C703    1.418   .     A
C692   C1925   1.420   .     S
C692   C1938   1.429   .     S
C693   N797    1.381   .     A
C693   C719    1.474   .     S
C694   C726    1.474   .     S
C694   N799    1.371   .     A
C694   C421    1.452   1_655 S
C695   O812    1.319   .     A
C695   O811    1.325   .     A
C696   O814    1.329   .     A
C696   O813    1.325   .     A
C696   C698    1.474   .     S
C697   C740    1.399   .     A
C697   C1949   1.409   1_554 S
C697   N2027   1.428   1_554 S
C698   C740    1.396   .     A
C698   C739    1.395   .     A
C699   N804    1.420   .     S
C699   C700    1.405   .     A
C700   C1925   1.407   .     S
C700   H1998   1.081   .     S
C701   N805    1.434   .     S
C701   C1916   1.420   1_554 S
C701   C1924   1.407   1_554 S
C702   N800    1.449   .     S
C702   H793    1.105   .     S
C702   H795    1.109   .     S
C702   H794    1.099   .     S
C703   C738    1.398   .     A
C704   H744    1.103   .     S
C704   H743    1.103   .     S
C704   H742    1.097   .     S
C704   N801    1.428   .     S
C705   H747    1.109   .     S
C705   N802    1.449   .     S
C705   H748    1.105   .     S
C705   H746    1.104   .     S
C706   C707    1.397   .     A
C706   C711    1.402   .     A
C707   H749    1.084   .     S
C707   C708    1.397   .     A
C708   C709    1.394   .     A
C708   H750    1.079   .     S
C709   C710    1.397   .     A
C709   H751    1.081   .     S
C710   C711    1.397   .     A
C711   H754    1.077   .     S
C712   C718    1.400   .     A
C712   C713    1.403   .     A
C713   H755    1.083   .     S
C713   C715    1.392   .     A
C714   C739    1.404   .     A
C714   C1916   1.429   1_554 S
C714   C1949   1.422   1_554 S
C715   C716    1.390   .     A
C715   H756    1.072   .     S
C716   H757    1.080   .     S
C716   C717    1.397   .     A
C717   C718    1.399   .     A
C717   H758    1.078   .     S
C718   H759    1.079   .     S
C719   C720    1.400   .     A
C719   C724    1.406   .     A
C720   H760    1.073   .     S
C720   C721    1.398   .     A
C721   C722    1.392   .     A
C721   H761    1.082   .     S
C722   C723    1.395   .     A
C722   H1170   1.082   .     S
C723   H764    1.074   .     S
C723   C724    1.395   .     A
C724   H765    1.084   .     S
C725   C736    1.396   .     A
C725   C1921   1.409   .     S
C725   C1938   1.422   .     S
C726   C731    1.405   .     A
C726   C727    1.404   .     A
C727   C728    1.397   .     A
C727   H766    1.083   .     S
C728   H767    1.075   .     S
C728   C729    1.396   .     A
C729   C730    1.393   .     A
C729   H768    1.082   .     S
C730   H769    1.077   .     S
C730   C731    1.397   .     A
C731   H770    1.082   .     S
C732   N803    1.450   .     S
C732   H773    1.110   .     S
C732   H772    1.110   .     S
C732   H1999   1.106   .     S
C733   H779    1.106   .     S
C733   N804    1.443   .     S
C733   H778    1.110   .     S
C734   H781    1.107   .     S
C734   N805    1.445   .     S
C734   H783    1.110   .     S
C734   H782    1.110   .     S
C735   H786    1.104   .     S
C735   H787    1.108   .     S
C735   N806    1.451   .     S
C735   H788    1.111   .     S
C736   C738    1.390   .     A
C736   H752    1.076   .     S
C737   H791    1.101   .     S
C737   H792    1.111   .     S
C737   H790    1.102   .     S
C737   N798    1.431   .     S
C738   N806    1.436   .     S
C739   H763    1.079   .     S
C740   H741    1.063   .     S
H745   N802    1.030   .     S
H753   C1118   1.082   .     S
H771   N803    1.030   .     S
H774   C1924   1.081   1_554 S
H775   C1956   1.106   1_554 S
H776   N804    1.032   .     S
H777   C461    1.108   1_655 S
H780   N805    1.031   .     S
H784   N806    1.033   .     S
H785   N800    1.028   .     S
H789   N798    1.022   .     S
H796   N801    1.025   .     S
N797   Zn815   2.087   .     S
N799   Zn816   2.086   .     S
N803   C1921   1.428   .     S
O807   Zn815   2.016   .     S
O808   Zn816   2.025   .     S
O809   Zn815   1.991   .     S
O810   Zn816   1.954   .     S
O811   Zn815   2.025   .     S
O812   Zn816   2.016   .     S
O813   Zn815   1.954   .     S
O814   Zn816   1.991   .     S
C817   O944    1.314   .     A
C817   C825    1.438   .     S
C817   O943    1.319   .     A
C818   C820    1.507   .     S
C818   C835    1.411   .     A
C818   C839    1.403   .     A
C819   C825    1.395   .     A
C819   N934    1.422   .     S
C819   C5      1.390   1_565 S
C820   O945    1.327   .     A
C820   O946    1.341   .     A
C821   N936    1.414   .     S
C821   C822    1.395   .     A
C822   C831    1.451   .     S
C822   C823    1.409   .     A
C823   N937    1.424   .     S
C824   C825    1.407   .     A
C824   N938    1.428   .     S
C824   C7      1.411   1_565 S
C826   N935    1.374   .     A
C826   C842    1.472   .     S
C826   C963    1.455   .     S
C827   C848    1.470   .     S
C827   N933    1.373   .     A
C827   C1098   1.455   1_455 S
C828   C839    1.418   .     A
C828   C2061   1.420   .     S
C828   C2074   1.429   .     S
C829   N933    1.381   .     A
C829   C855    1.474   .     S
C829   C1102   1.452   1_455 S
C830   C862    1.474   .     S
C830   N935    1.371   .     A
C830   C965    1.452   .     S
C831   O948    1.319   .     A
C831   O947    1.325   .     A
C832   O950    1.329   .     A
C832   O949    1.325   .     A
C832   C834    1.474   .     S
C833   C876    1.399   .     A
C833   C2085   1.409   1_554 S
C833   N2163   1.428   1_554 S
C834   C876    1.396   .     A
C834   C875    1.395   .     A
C835   N940    1.420   .     S
C835   C836    1.405   .     A
C836   C2061   1.407   .     S
C836   H2134   1.081   .     S
C837   N941    1.434   .     S
C837   C2052   1.420   1_554 S
C837   C2060   1.407   1_554 S
C838   N936    1.449   .     S
C838   H929    1.105   .     S
C838   H931    1.109   .     S
C838   H930    1.099   .     S
C839   C874    1.398   .     A
C840   H880    1.103   .     S
C840   H879    1.103   .     S
C840   H878    1.097   .     S
C840   N937    1.428   .     S
C841   H883    1.109   .     S
C841   N938    1.449   .     S
C841   H884    1.105   .     S
C841   H882    1.104   .     S
C842   C843    1.397   .     A
C842   C847    1.402   .     A
C843   H885    1.084   .     S
C843   C844    1.397   .     A
C844   C845    1.394   .     A
C844   H886    1.079   .     S
C845   C846    1.397   .     A
C845   H887    1.081   .     S
C846   C847    1.397   .     A
C847   H890    1.077   .     S
C848   C854    1.400   .     A
C848   C849    1.403   .     A
C849   H891    1.083   .     S
C849   C851    1.392   .     A
C850   C875    1.404   .     A
C850   C2052   1.429   1_554 S
C850   C2085   1.422   1_554 S
C851   C852    1.390   .     A
C851   H892    1.072   .     S
C852   H893    1.080   .     S
C852   C853    1.397   .     A
C853   C854    1.399   .     A
C853   H894    1.078   .     S
C854   H895    1.079   .     S
C855   C856    1.400   .     A
C855   C860    1.406   .     A
C856   H896    1.073   .     S
C856   C857    1.398   .     A
C857   C858    1.392   .     A
C857   H897    1.082   .     S
C858   C859    1.395   .     A
C858   H82     1.082   1_565 S
C859   H900    1.074   .     S
C859   C860    1.395   .     A
C860   H901    1.084   .     S
C861   C872    1.396   .     A
C861   C2057   1.409   .     S
C861   C2074   1.422   .     S
C862   C867    1.405   .     A
C862   C863    1.404   .     A
C863   C864    1.397   .     A
C863   H902    1.083   .     S
C864   H903    1.075   .     S
C864   C865    1.396   .     A
C865   C866    1.393   .     A
C865   H904    1.082   .     S
C866   H905    1.077   .     S
C866   C867    1.397   .     A
C867   H906    1.082   .     S
C868   N939    1.450   .     S
C868   H909    1.110   .     S
C868   H908    1.110   .     S
C868   H2135   1.106   .     S
C869   H915    1.106   .     S
C869   N940    1.443   .     S
C869   H914    1.110   .     S
C869   H1185   1.108   1_455 S
C870   H917    1.107   .     S
C870   N941    1.445   .     S
C870   H919    1.110   .     S
C870   H918    1.110   .     S
C871   H922    1.104   .     S
C871   H923    1.108   .     S
C871   N942    1.451   .     S
C871   H924    1.111   .     S
C872   C874    1.390   .     A
C872   H888    1.076   .     S
C873   H927    1.101   .     S
C873   H928    1.111   .     S
C873   H926    1.102   .     S
C873   N934    1.431   .     S
C874   N942    1.436   .     S
C875   H899    1.079   .     S
C876   H877    1.063   .     S
H881   N938    1.030   .     S
H889   C30     1.082   1_565 S
H907   N939    1.030   .     S
H910   C2060   1.081   1_554 S
H911   C2092   1.106   1_554 S
H912   N940    1.032   .     S
H913   C1005   1.108   .     S
H916   N941    1.031   .     S
H920   N942    1.033   .     S
H921   N936    1.028   .     S
H925   N934    1.022   .     S
H932   N937    1.025   .     S
N933   Zn951   2.087   .     S
N935   Zn952   2.086   .     S
N939   C2057   1.428   .     S
O943   Zn951   2.016   .     S
O944   Zn952   2.025   .     S
O945   Zn951   1.991   .     S
O946   Zn952   1.954   .     S
O947   Zn951   2.025   .     S
O948   Zn952   2.016   .     S
O949   Zn951   1.954   .     S
O950   Zn952   1.991   .     S
C953   O1080   1.314   .     A
C953   C961    1.438   .     S
C953   O1079   1.319   .     A
C954   C956    1.507   .     S
C954   C971    1.411   .     A
C954   C975    1.403   .     A
C955   C961    1.395   .     A
C955   N1070   1.422   .     S
C955   C141    1.390   1_565 S
C956   O1081   1.327   .     A
C956   O1082   1.341   .     A
C957   N1072   1.414   .     S
C957   C958    1.395   .     A
C958   C967    1.451   .     S
C958   C959    1.409   .     A
C959   N1073   1.424   .     S
C960   C961    1.407   .     A
C960   N1074   1.428   .     S
C960   C143    1.411   1_565 S
C962   N1071   1.374   .     A
C962   C978    1.472   .     S
C962   C1099   1.455   .     S
C963   C984    1.470   .     S
C963   N1069   1.373   .     A
C964   C975    1.418   .     A
C964   C2197   1.420   .     S
C964   C2210   1.429   .     S
C965   N1069   1.381   .     A
C965   C991    1.474   .     S
C966   C998    1.474   .     S
C966   N1071   1.371   .     A
C966   C1101   1.452   .     S
C967   O1084   1.319   .     A
C967   O1083   1.325   .     A
C968   O1086   1.329   .     A
C968   O1085   1.325   .     A
C968   C970    1.474   .     S
C969   C1012   1.399   .     A
C969   C2221   1.409   1_554 S
C969   N2299   1.428   1_554 S
C970   C1012   1.396   .     A
C970   C1011   1.395   .     A
C971   N1076   1.420   .     S
C971   C972    1.405   .     A
C972   C2197   1.407   .     S
C972   H2270   1.081   .     S
C973   N1077   1.434   .     S
C973   C2188   1.420   1_554 S
C973   C2196   1.407   1_554 S
C974   N1072   1.449   .     S
C974   H1065   1.105   .     S
C974   H1067   1.109   .     S
C974   H1066   1.099   .     S
C975   C1010   1.398   .     A
C976   H1016   1.103   .     S
C976   H1015   1.103   .     S
C976   H1014   1.097   .     S
C976   N1073   1.428   .     S
C977   H1019   1.109   .     S
C977   N1074   1.449   .     S
C977   H1020   1.105   .     S
C977   H1018   1.104   .     S
C978   C979    1.397   .     A
C978   C983    1.402   .     A
C979   H1021   1.084   .     S
C979   C980    1.397   .     A
C980   C981    1.394   .     A
C980   H1022   1.079   .     S
C981   C982    1.397   .     A
C981   H1023   1.081   .     S
C982   C983    1.397   .     A
C983   H1026   1.077   .     S
C984   C990    1.400   .     A
C984   C985    1.403   .     A
C985   H1027   1.083   .     S
C985   C987    1.392   .     A
C986   C1011   1.404   .     A
C986   C2188   1.429   1_554 S
C986   C2221   1.422   1_554 S
C987   C988    1.390   .     A
C987   H1028   1.072   .     S
C988   H1029   1.080   .     S
C988   C989    1.397   .     A
C989   C990    1.399   .     A
C989   H1030   1.078   .     S
C990   H1031   1.079   .     S
C991   C992    1.400   .     A
C991   C996    1.406   .     A
C992   H1032   1.073   .     S
C992   C993    1.398   .     A
C993   C994    1.392   .     A
C993   H1033   1.082   .     S
C994   C995    1.395   .     A
C994   H218    1.082   1_565 S
C995   H1036   1.074   .     S
C995   C996    1.395   .     A
C996   H1037   1.084   .     S
C997   C1008   1.396   .     A
C997   C2193   1.409   .     S
C997   C2210   1.422   .     S
C998   C1003   1.405   .     A
C998   C999    1.404   .     A
C999   C1000   1.397   .     A
C999   H1038   1.083   .     S
C1000  H1039   1.075   .     S
C1000  C1001   1.396   .     A
C1001  C1002   1.393   .     A
C1001  H1040   1.082   .     S
C1002  H1041   1.077   .     S
C1002  C1003   1.397   .     A
C1003  H1042   1.082   .     S
C1004  N1075   1.450   .     S
C1004  H1045   1.110   .     S
C1004  H1044   1.110   .     S
C1004  H2271   1.106   .     S
C1005  H1051   1.106   .     S
C1005  N1076   1.443   .     S
C1005  H1050   1.110   .     S
C1006  H1053   1.107   .     S
C1006  N1077   1.445   .     S
C1006  H1055   1.110   .     S
C1006  H1054   1.110   .     S
C1007  H1058   1.104   .     S
C1007  H1059   1.108   .     S
C1007  N1078   1.451   .     S
C1007  H1060   1.111   .     S
C1008  C1010   1.390   .     A
C1008  H1024   1.076   .     S
C1009  H1063   1.101   .     S
C1009  H1064   1.111   .     S
C1009  H1062   1.102   .     S
C1009  N1070   1.431   .     S
C1010  N1078   1.436   .     S
C1011  H1035   1.079   .     S
C1012  H1013   1.063   .     S
H1017  N1074   1.030   .     S
H1025  C166    1.082   1_565 S
H1043  N1075   1.030   .     S
H1046  C2196   1.081   1_554 S
H1047  C2228   1.106   1_554 S
H1048  N1076   1.032   .     S
H1049  C1141   1.108   .     S
H1052  N1077   1.031   .     S
H1056  N1078   1.033   .     S
H1057  N1072   1.028   .     S
H1061  N1070   1.022   .     S
H1068  N1073   1.025   .     S
N1069  Zn1087  2.087   .     S
N1071  Zn1088  2.086   .     S
N1075  C2193   1.428   .     S
O1079  Zn1087  2.016   .     S
O1080  Zn1088  2.025   .     S
O1081  Zn1087  1.991   .     S
O1082  Zn1088  1.954   .     S
O1083  Zn1087  2.025   .     S
O1084  Zn1088  2.016   .     S
O1085  Zn1087  1.954   .     S
O1086  Zn1088  1.991   .     S
C1089  O1216   1.314   .     A
C1089  C1097   1.438   .     S
C1089  O1215   1.319   .     A
C1090  C1092   1.507   .     S
C1090  C1107   1.411   .     A
C1090  C1111   1.403   .     A
C1091  C1097   1.395   .     A
C1091  N1206   1.422   .     S
C1091  C277    1.390   1_565 S
C1092  O1217   1.327   .     A
C1092  O1218   1.341   .     A
C1093  N1208   1.414   .     S
C1093  C1094   1.395   .     A
C1094  C1103   1.451   .     S
C1094  C1095   1.409   .     A
C1095  N1209   1.424   .     S
C1096  C1097   1.407   .     A
C1096  N1210   1.428   .     S
C1096  C279    1.411   1_565 S
C1098  N1207   1.374   .     A
C1098  C1114   1.472   .     S
C1098  C827    1.455   1_655 S
C1099  C1120   1.470   .     S
C1099  N1205   1.373   .     A
C1100  C1111   1.418   .     A
C1100  C2333   1.420   .     S
C1100  C2346   1.429   .     S
C1101  N1205   1.381   .     A
C1101  C1127   1.474   .     S
C1102  C1134   1.474   .     S
C1102  N1207   1.371   .     A
C1102  C829    1.452   1_655 S
C1103  O1220   1.319   .     A
C1103  O1219   1.325   .     A
C1104  O1222   1.329   .     A
C1104  O1221   1.325   .     A
C1104  C1106   1.474   .     S
C1105  C1148   1.399   .     A
C1105  C2357   1.409   1_554 S
C1105  N2435   1.428   1_554 S
C1106  C1148   1.396   .     A
C1106  C1147   1.395   .     A
C1107  N1212   1.420   .     S
C1107  C1108   1.405   .     A
C1108  C2333   1.407   .     S
C1108  H2406   1.081   .     S
C1109  N1213   1.434   .     S
C1109  C2324   1.420   1_554 S
C1109  C2332   1.407   1_554 S
C1110  N1208   1.449   .     S
C1110  H1201   1.105   .     S
C1110  H1203   1.109   .     S
C1110  H1202   1.099   .     S
C1111  C1146   1.398   .     A
C1112  H1152   1.103   .     S
C1112  H1151   1.103   .     S
C1112  H1150   1.097   .     S
C1112  N1209   1.428   .     S
C1113  H1155   1.109   .     S
C1113  N1210   1.449   .     S
C1113  H1156   1.105   .     S
C1113  H1154   1.104   .     S
C1114  C1115   1.397   .     A
C1114  C1119   1.402   .     A
C1115  H1157   1.084   .     S
C1115  C1116   1.397   .     A
C1116  C1117   1.394   .     A
C1116  H1158   1.079   .     S
C1117  C1118   1.397   .     A
C1117  H1159   1.081   .     S
C1118  C1119   1.397   .     A
C1119  H1162   1.077   .     S
C1120  C1126   1.400   .     A
C1120  C1121   1.403   .     A
C1121  H1163   1.083   .     S
C1121  C1123   1.392   .     A
C1122  C1147   1.404   .     A
C1122  C2324   1.429   1_554 S
C1122  C2357   1.422   1_554 S
C1123  C1124   1.390   .     A
C1123  H1164   1.072   .     S
C1124  H1165   1.080   .     S
C1124  C1125   1.397   .     A
C1125  C1126   1.399   .     A
C1125  H1166   1.078   .     S
C1126  H1167   1.079   .     S
C1127  C1128   1.400   .     A
C1127  C1132   1.406   .     A
C1128  H1168   1.073   .     S
C1128  C1129   1.398   .     A
C1129  C1130   1.392   .     A
C1129  H1169   1.082   .     S
C1130  C1131   1.395   .     A
C1130  H354    1.082   1_565 S
C1131  H1172   1.074   .     S
C1131  C1132   1.395   .     A
C1132  H1173   1.084   .     S
C1133  C1144   1.396   .     A
C1133  C2329   1.409   .     S
C1133  C2346   1.422   .     S
C1134  C1139   1.405   .     A
C1134  C1135   1.404   .     A
C1135  C1136   1.397   .     A
C1135  H1174   1.083   .     S
C1136  H1175   1.075   .     S
C1136  C1137   1.396   .     A
C1137  C1138   1.393   .     A
C1137  H1176   1.082   .     S
C1138  H1177   1.077   .     S
C1138  C1139   1.397   .     A
C1139  H1178   1.082   .     S
C1140  N1211   1.450   .     S
C1140  H1181   1.110   .     S
C1140  H1180   1.110   .     S
C1140  H2407   1.106   .     S
C1141  H1187   1.106   .     S
C1141  N1212   1.443   .     S
C1141  H1186   1.110   .     S
C1142  H1189   1.107   .     S
C1142  N1213   1.445   .     S
C1142  H1191   1.110   .     S
C1142  H1190   1.110   .     S
C1143  H1194   1.104   .     S
C1143  H1195   1.108   .     S
C1143  N1214   1.451   .     S
C1143  H1196   1.111   .     S
C1144  C1146   1.390   .     A
C1144  H1160   1.076   .     S
C1145  H1199   1.101   .     S
C1145  H1200   1.111   .     S
C1145  H1198   1.102   .     S
C1145  N1206   1.431   .     S
C1146  N1214   1.436   .     S
C1147  H1171   1.079   .     S
C1148  H1149   1.063   .     S
H1153  N1210   1.030   .     S
H1161  C302    1.082   1_565 S
H1179  N1211   1.030   .     S
H1182  C2332   1.081   1_554 S
H1183  C2364   1.106   1_554 S
H1184  N1212   1.032   .     S
H1185  C869    1.108   1_655 S
H1188  N1213   1.031   .     S
H1192  N1214   1.033   .     S
H1193  N1208   1.028   .     S
H1197  N1206   1.022   .     S
H1204  N1209   1.025   .     S
N1205  Zn1223  2.087   .     S
N1207  Zn1224  2.086   .     S
N1211  C2329   1.428   .     S
O1215  Zn1223  2.016   .     S
O1216  Zn1224  2.025   .     S
O1217  Zn1223  1.991   .     S
O1218  Zn1224  1.954   .     S
O1219  Zn1223  2.025   .     S
O1220  Zn1224  2.016   .     S
O1221  Zn1223  1.954   .     S
O1222  Zn1224  1.991   .     S
C1225  O1352   1.314   .     A
C1225  C1233   1.438   .     S
C1225  O1351   1.319   .     A
C1226  C1228   1.507   .     S
C1226  C1243   1.411   .     A
C1226  C1247   1.403   .     A
C1227  C1233   1.395   .     A
C1227  N1342   1.422   .     S
C1227  C1637   1.390   .     S
C1228  O1353   1.327   .     A
C1228  O1354   1.341   .     A
C1229  N1344   1.414   .     S
C1229  C1230   1.395   .     A
C1229  C2043   1.390   1_545 S
C1230  C1239   1.451   .     S
C1230  C1231   1.409   .     A
C1231  N1345   1.424   .     S
C1231  C2048   1.411   1_545 S
C1232  C1233   1.407   .     A
C1232  N1346   1.428   .     S
C1232  C1639   1.411   .     S
C1234  N1343   1.374   .     A
C1234  C1250   1.472   .     S
C1234  C1371   1.455   .     S
C1235  C1256   1.470   .     S
C1235  N1341   1.373   .     A
C1235  C1506   1.455   1_455 S
C1236  C1247   1.418   .     A
C1236  C21     1.420   1_556 S
C1236  C34     1.429   1_556 S
C1237  N1341   1.381   .     A
C1237  C1263   1.474   .     S
C1237  C1510   1.452   1_455 S
C1238  C1270   1.474   .     S
C1238  N1343   1.371   .     A
C1238  C1373   1.452   .     S
C1239  O1356   1.319   .     A
C1239  O1355   1.325   .     A
C1240  O1358   1.329   .     A
C1240  O1357   1.325   .     A
C1240  C1242   1.474   .     S
C1241  C1284   1.399   .     A
C1242  C1284   1.396   .     A
C1242  C1283   1.395   .     A
C1243  N1348   1.420   .     S
C1243  C1244   1.405   .     A
C1244  C21     1.407   1_556 S
C1244  H94     1.081   1_556 S
C1245  N1349   1.434   .     S
C1246  N1344   1.449   .     S
C1246  H1337   1.105   .     S
C1246  H1339   1.109   .     S
C1246  H1338   1.099   .     S
C1247  C1282   1.398   .     A
C1248  H1288   1.103   .     S
C1248  H1287   1.103   .     S
C1248  H1286   1.097   .     S
C1248  N1345   1.428   .     S
C1249  H1291   1.109   .     S
C1249  N1346   1.449   .     S
C1249  H1292   1.105   .     S
C1249  H1290   1.104   .     S
C1250  C1251   1.397   .     A
C1250  C1255   1.402   .     A
C1251  H1293   1.084   .     S
C1251  C1252   1.397   .     A
C1252  C1253   1.394   .     A
C1252  H1294   1.079   .     S
C1253  C1254   1.397   .     A
C1253  H1295   1.081   .     S
C1254  C1255   1.397   .     A
C1254  H2113   1.082   1_545 S
C1255  H1298   1.077   .     S
C1256  C1262   1.400   .     A
C1256  C1257   1.403   .     A
C1257  H1299   1.083   .     S
C1257  C1259   1.392   .     A
C1258  C1283   1.404   .     A
C1259  C1260   1.390   .     A
C1259  H1300   1.072   .     S
C1260  H1301   1.080   .     S
C1260  C1261   1.397   .     A
C1261  C1262   1.399   .     A
C1261  H1302   1.078   .     S
C1262  H1303   1.079   .     S
C1263  C1264   1.400   .     A
C1263  C1268   1.406   .     A
C1264  H1304   1.073   .     S
C1264  C1265   1.398   .     A
C1265  C1266   1.392   .     A
C1265  H1305   1.082   .     S
C1266  C1267   1.395   .     A
C1266  H1714   1.082   .     S
C1267  H1308   1.074   .     S
C1267  C1268   1.395   .     A
C1268  H1309   1.084   .     S
C1269  C1280   1.396   .     A
C1269  C17     1.409   1_556 S
C1269  C34     1.422   1_556 S
C1270  C1275   1.405   .     A
C1270  C1271   1.404   .     A
C1271  C1272   1.397   .     A
C1271  H1310   1.083   .     S
C1272  H1311   1.075   .     S
C1272  C1273   1.396   .     A
C1273  C1274   1.393   .     A
C1273  H1312   1.082   .     S
C1274  H1313   1.077   .     S
C1274  C1275   1.397   .     A
C1275  H1314   1.082   .     S
C1276  N1347   1.450   .     S
C1276  H1317   1.110   .     S
C1276  H1316   1.110   .     S
C1276  H95     1.106   1_556 S
C1277  H1323   1.106   .     S
C1277  N1348   1.443   .     S
C1277  H1322   1.110   .     S
C1277  H1593   1.108   1_455 S
C1278  H1325   1.107   .     S
C1278  N1349   1.445   .     S
C1278  H1327   1.110   .     S
C1278  H1326   1.110   .     S
C1279  H1330   1.104   .     S
C1279  H1331   1.108   .     S
C1279  N1350   1.451   .     S
C1279  H1332   1.111   .     S
C1280  C1282   1.390   .     A
C1280  H1296   1.076   .     S
C1281  H1335   1.101   .     S
C1281  H1336   1.111   .     S
C1281  H1334   1.102   .     S
C1281  N1342   1.431   .     S
C1282  N1350   1.436   .     S
C1283  H1307   1.079   .     S
C1284  H1285   1.063   .     S
H1289  N1346   1.030   .     S
H1297  C1662   1.082   .     S
H1306  C2082   1.082   1_545 S
H1315  N1347   1.030   .     S
H1320  N1348   1.032   .     S
H1321  C1413   1.108   .     S
H1324  N1349   1.031   .     S
H1328  N1350   1.033   .     S
H1329  N1344   1.028   .     S
H1333  N1342   1.022   .     S
H1340  N1345   1.025   .     S
N1341  Zn1359  2.087   .     S
N1343  Zn1360  2.086   .     S
N1347  C17     1.428   1_556 S
O1351  Zn1359  2.016   .     S
O1352  Zn1360  2.025   .     S
O1353  Zn1359  1.991   .     S
O1354  Zn1360  1.954   .     S
O1355  Zn1359  2.025   .     S
O1356  Zn1360  2.016   .     S
O1357  Zn1359  1.954   .     S
O1358  Zn1360  1.991   .     S
C1361  O1488   1.314   .     A
C1361  C1369   1.438   .     S
C1361  O1487   1.319   .     A
C1362  C1364   1.507   .     S
C1362  C1379   1.411   .     A
C1362  C1383   1.403   .     A
C1363  C1369   1.395   .     A
C1363  N1478   1.422   .     S
C1363  C1773   1.390   .     S
C1364  O1489   1.327   .     A
C1364  O1490   1.341   .     A
C1365  N1480   1.414   .     S
C1365  C1366   1.395   .     A
C1365  C2179   1.390   1_545 S
C1366  C1375   1.451   .     S
C1366  C1367   1.409   .     A
C1367  N1481   1.424   .     S
C1367  C2184   1.411   1_545 S
C1368  C1369   1.407   .     A
C1368  N1482   1.428   .     S
C1368  C1775   1.411   .     S
C1370  N1479   1.374   .     A
C1370  C1386   1.472   .     S
C1370  C1507   1.455   .     S
C1371  C1392   1.470   .     S
C1371  N1477   1.373   .     A
C1372  C1383   1.418   .     A
C1372  C157    1.420   1_556 S
C1372  C170    1.429   1_556 S
C1373  N1477   1.381   .     A
C1373  C1399   1.474   .     S
C1374  C1406   1.474   .     S
C1374  N1479   1.371   .     A
C1374  C1509   1.452   .     S
C1375  O1492   1.319   .     A
C1375  O1491   1.325   .     A
C1376  O1494   1.329   .     A
C1376  O1493   1.325   .     A
C1376  C1378   1.474   .     S
C1377  C1420   1.399   .     A
C1378  C1420   1.396   .     A
C1378  C1419   1.395   .     A
C1379  N1484   1.420   .     S
C1379  C1380   1.405   .     A
C1380  C157    1.407   1_556 S
C1380  H230    1.081   1_556 S
C1381  N1485   1.434   .     S
C1382  N1480   1.449   .     S
C1382  H1473   1.105   .     S
C1382  H1475   1.109   .     S
C1382  H1474   1.099   .     S
C1383  C1418   1.398   .     A
C1384  H1424   1.103   .     S
C1384  H1423   1.103   .     S
C1384  H1422   1.097   .     S
C1384  N1481   1.428   .     S
C1385  H1427   1.109   .     S
C1385  N1482   1.449   .     S
C1385  H1428   1.105   .     S
C1385  H1426   1.104   .     S
C1386  C1387   1.397   .     A
C1386  C1391   1.402   .     A
C1387  H1429   1.084   .     S
C1387  C1388   1.397   .     A
C1388  C1389   1.394   .     A
C1388  H1430   1.079   .     S
C1389  C1390   1.397   .     A
C1389  H1431   1.081   .     S
C1390  C1391   1.397   .     A
C1390  H2249   1.082   1_545 S
C1391  H1434   1.077   .     S
C1392  C1398   1.400   .     A
C1392  C1393   1.403   .     A
C1393  H1435   1.083   .     S
C1393  C1395   1.392   .     A
C1394  C1419   1.404   .     A
C1395  C1396   1.390   .     A
C1395  H1436   1.072   .     S
C1396  H1437   1.080   .     S
C1396  C1397   1.397   .     A
C1397  C1398   1.399   .     A
C1397  H1438   1.078   .     S
C1398  H1439   1.079   .     S
C1399  C1400   1.400   .     A
C1399  C1404   1.406   .     A
C1400  H1440   1.073   .     S
C1400  C1401   1.398   .     A
C1401  C1402   1.392   .     A
C1401  H1441   1.082   .     S
C1402  C1403   1.395   .     A
C1402  H1850   1.082   .     S
C1403  H1444   1.074   .     S
C1403  C1404   1.395   .     A
C1404  H1445   1.084   .     S
C1405  C1416   1.396   .     A
C1405  C153    1.409   1_556 S
C1405  C170    1.422   1_556 S
C1406  C1411   1.405   .     A
C1406  C1407   1.404   .     A
C1407  C1408   1.397   .     A
C1407  H1446   1.083   .     S
C1408  H1447   1.075   .     S
C1408  C1409   1.396   .     A
C1409  C1410   1.393   .     A
C1409  H1448   1.082   .     S
C1410  H1449   1.077   .     S
C1410  C1411   1.397   .     A
C1411  H1450   1.082   .     S
C1412  N1483   1.450   .     S
C1412  H1453   1.110   .     S
C1412  H1452   1.110   .     S
C1412  H231    1.106   1_556 S
C1413  H1459   1.106   .     S
C1413  N1484   1.443   .     S
C1413  H1458   1.110   .     S
C1414  H1461   1.107   .     S
C1414  N1485   1.445   .     S
C1414  H1463   1.110   .     S
C1414  H1462   1.110   .     S
C1415  H1466   1.104   .     S
C1415  H1467   1.108   .     S
C1415  N1486   1.451   .     S
C1415  H1468   1.111   .     S
C1416  C1418   1.390   .     A
C1416  H1432   1.076   .     S
C1417  H1471   1.101   .     S
C1417  H1472   1.111   .     S
C1417  H1470   1.102   .     S
C1417  N1478   1.431   .     S
C1418  N1486   1.436   .     S
C1419  H1443   1.079   .     S
C1420  H1421   1.063   .     S
H1425  N1482   1.030   .     S
H1433  C1798   1.082   .     S
H1442  C2218   1.082   1_545 S
H1451  N1483   1.030   .     S
H1456  N1484   1.032   .     S
H1457  C1549   1.108   .     S
H1460  N1485   1.031   .     S
H1464  N1486   1.033   .     S
H1465  N1480   1.028   .     S
H1469  N1478   1.022   .     S
H1476  N1481   1.025   .     S
N1477  Zn1495  2.087   .     S
N1479  Zn1496  2.086   .     S
N1483  C153    1.428   1_556 S
O1487  Zn1495  2.016   .     S
O1488  Zn1496  2.025   .     S
O1489  Zn1495  1.991   .     S
O1490  Zn1496  1.954   .     S
O1491  Zn1495  2.025   .     S
O1492  Zn1496  2.016   .     S
O1493  Zn1495  1.954   .     S
O1494  Zn1496  1.991   .     S
C1497  O1624   1.314   .     A
C1497  C1505   1.438   .     S
C1497  O1623   1.319   .     A
C1498  C1500   1.507   .     S
C1498  C1515   1.411   .     A
C1498  C1519   1.403   .     A
C1499  C1505   1.395   .     A
C1499  N1614   1.422   .     S
C1499  C1909   1.390   .     S
C1500  O1625   1.327   .     A
C1500  O1626   1.341   .     A
C1501  N1616   1.414   .     S
C1501  C1502   1.395   .     A
C1501  C2315   1.390   1_545 S
C1502  C1511   1.451   .     S
C1502  C1503   1.409   .     A
C1503  N1617   1.424   .     S
C1503  C2320   1.411   1_545 S
C1504  C1505   1.407   .     A
C1504  N1618   1.428   .     S
C1504  C1911   1.411   .     S
C1506  N1615   1.374   .     A
C1506  C1522   1.472   .     S
C1506  C1235   1.455   1_655 S
C1507  C1528   1.470   .     S
C1507  N1613   1.373   .     A
C1508  C1519   1.418   .     A
C1508  C293    1.420   1_556 S
C1508  C306    1.429   1_556 S
C1509  N1613   1.381   .     A
C1509  C1535   1.474   .     S
C1510  C1542   1.474   .     S
C1510  N1615   1.371   .     A
C1510  C1237   1.452   1_655 S
C1511  O1628   1.319   .     A
C1511  O1627   1.325   .     A
C1512  O1630   1.329   .     A
C1512  O1629   1.325   .     A
C1512  C1514   1.474   .     S
C1513  C1556   1.399   .     A
C1514  C1556   1.396   .     A
C1514  C1555   1.395   .     A
C1515  N1620   1.420   .     S
C1515  C1516   1.405   .     A
C1516  C293    1.407   1_556 S
C1516  H366    1.081   1_556 S
C1517  N1621   1.434   .     S
C1518  N1616   1.449   .     S
C1518  H1609   1.105   .     S
C1518  H1611   1.109   .     S
C1518  H1610   1.099   .     S
C1519  C1554   1.398   .     A
C1520  H1560   1.103   .     S
C1520  H1559   1.103   .     S
C1520  H1558   1.097   .     S
C1520  N1617   1.428   .     S
C1521  H1563   1.109   .     S
C1521  N1618   1.449   .     S
C1521  H1564   1.105   .     S
C1521  H1562   1.104   .     S
C1522  C1523   1.397   .     A
C1522  C1527   1.402   .     A
C1523  H1565   1.084   .     S
C1523  C1524   1.397   .     A
C1524  C1525   1.394   .     A
C1524  H1566   1.079   .     S
C1525  C1526   1.397   .     A
C1525  H1567   1.081   .     S
C1526  C1527   1.397   .     A
C1526  H2385   1.082   1_545 S
C1527  H1570   1.077   .     S
C1528  C1534   1.400   .     A
C1528  C1529   1.403   .     A
C1529  H1571   1.083   .     S
C1529  C1531   1.392   .     A
C1530  C1555   1.404   .     A
C1531  C1532   1.390   .     A
C1531  H1572   1.072   .     S
C1532  H1573   1.080   .     S
C1532  C1533   1.397   .     A
C1533  C1534   1.399   .     A
C1533  H1574   1.078   .     S
C1534  H1575   1.079   .     S
C1535  C1536   1.400   .     A
C1535  C1540   1.406   .     A
C1536  H1576   1.073   .     S
C1536  C1537   1.398   .     A
C1537  C1538   1.392   .     A
C1537  H1577   1.082   .     S
C1538  C1539   1.395   .     A
C1538  H1986   1.082   .     S
C1539  H1580   1.074   .     S
C1539  C1540   1.395   .     A
C1540  H1581   1.084   .     S
C1541  C1552   1.396   .     A
C1541  C289    1.409   1_556 S
C1541  C306    1.422   1_556 S
C1542  C1547   1.405   .     A
C1542  C1543   1.404   .     A
C1543  C1544   1.397   .     A
C1543  H1582   1.083   .     S
C1544  H1583   1.075   .     S
C1544  C1545   1.396   .     A
C1545  C1546   1.393   .     A
C1545  H1584   1.082   .     S
C1546  H1585   1.077   .     S
C1546  C1547   1.397   .     A
C1547  H1586   1.082   .     S
C1548  N1619   1.450   .     S
C1548  H1589   1.110   .     S
C1548  H1588   1.110   .     S
C1548  H367    1.106   1_556 S
C1549  H1595   1.106   .     S
C1549  N1620   1.443   .     S
C1549  H1594   1.110   .     S
C1550  H1597   1.107   .     S
C1550  N1621   1.445   .     S
C1550  H1599   1.110   .     S
C1550  H1598   1.110   .     S
C1551  H1602   1.104   .     S
C1551  H1603   1.108   .     S
C1551  N1622   1.451   .     S
C1551  H1604   1.111   .     S
C1552  C1554   1.390   .     A
C1552  H1568   1.076   .     S
C1553  H1607   1.101   .     S
C1553  H1608   1.111   .     S
C1553  H1606   1.102   .     S
C1553  N1614   1.431   .     S
C1554  N1622   1.436   .     S
C1555  H1579   1.079   .     S
C1556  H1557   1.063   .     S
H1561  N1618   1.030   .     S
H1569  C1934   1.082   .     S
H1578  C2354   1.082   1_545 S
H1587  N1619   1.030   .     S
H1592  N1620   1.032   .     S
H1593  C1277   1.108   1_655 S
H1596  N1621   1.031   .     S
H1600  N1622   1.033   .     S
H1601  N1616   1.028   .     S
H1605  N1614   1.022   .     S
H1612  N1617   1.025   .     S
N1613  Zn1631  2.087   .     S
N1615  Zn1632  2.086   .     S
N1619  C289    1.428   1_556 S
O1623  Zn1631  2.016   .     S
O1624  Zn1632  2.025   .     S
O1625  Zn1631  1.991   .     S
O1626  Zn1632  1.954   .     S
O1627  Zn1631  2.025   .     S
O1628  Zn1632  2.016   .     S
O1629  Zn1631  1.954   .     S
O1630  Zn1632  1.991   .     S
C1633  O1760   1.314   .     A
C1633  C1641   1.438   .     S
C1633  O1759   1.319   .     A
C1634  C1636   1.507   .     S
C1634  C1651   1.411   .     A
C1634  C1655   1.403   .     A
C1635  C1641   1.395   .     A
C1635  N1750   1.422   .     S
C1635  C2045   1.390   .     S
C1636  O1761   1.327   .     A
C1636  O1762   1.341   .     A
C1637  N1752   1.414   .     S
C1637  C1638   1.395   .     A
C1638  C1647   1.451   .     S
C1638  C1639   1.409   .     A
C1639  N1753   1.424   .     S
C1640  C1641   1.407   .     A
C1640  N1754   1.428   .     S
C1640  C2047   1.411   .     S
C1642  N1751   1.374   .     A
C1642  C1658   1.472   .     S
C1642  C1779   1.455   .     S
C1643  C1664   1.470   .     S
C1643  N1749   1.373   .     A
C1643  C1914   1.455   1_455 S
C1644  C1655   1.418   .     A
C1644  C429    1.420   1_556 S
C1644  C442    1.429   1_556 S
C1645  N1749   1.381   .     A
C1645  C1671   1.474   .     S
C1645  C1918   1.452   1_455 S
C1646  C1678   1.474   .     S
C1646  N1751   1.371   .     A
C1646  C1781   1.452   .     S
C1647  O1764   1.319   .     A
C1647  O1763   1.325   .     A
C1648  O1766   1.329   .     A
C1648  O1765   1.325   .     A
C1648  C1650   1.474   .     S
C1649  C1692   1.399   .     A
C1650  C1692   1.396   .     A
C1650  C1691   1.395   .     A
C1651  N1756   1.420   .     S
C1651  C1652   1.405   .     A
C1652  C429    1.407   1_556 S
C1652  H502    1.081   1_556 S
C1653  N1757   1.434   .     S
C1654  N1752   1.449   .     S
C1654  H1745   1.105   .     S
C1654  H1747   1.109   .     S
C1654  H1746   1.099   .     S
C1655  C1690   1.398   .     A
C1656  H1696   1.103   .     S
C1656  H1695   1.103   .     S
C1656  H1694   1.097   .     S
C1656  N1753   1.428   .     S
C1657  H1699   1.109   .     S
C1657  N1754   1.449   .     S
C1657  H1700   1.105   .     S
C1657  H1698   1.104   .     S
C1658  C1659   1.397   .     A
C1658  C1663   1.402   .     A
C1659  H1701   1.084   .     S
C1659  C1660   1.397   .     A
C1660  C1661   1.394   .     A
C1660  H1702   1.079   .     S
C1661  C1662   1.397   .     A
C1661  H1703   1.081   .     S
C1662  C1663   1.397   .     A
C1663  H1706   1.077   .     S
C1664  C1670   1.400   .     A
C1664  C1665   1.403   .     A
C1665  H1707   1.083   .     S
C1665  C1667   1.392   .     A
C1666  C1691   1.404   .     A
C1667  C1668   1.390   .     A
C1667  H1708   1.072   .     S
C1668  H1709   1.080   .     S
C1668  C1669   1.397   .     A
C1669  C1670   1.399   .     A
C1669  H1710   1.078   .     S
C1670  H1711   1.079   .     S
C1671  C1672   1.400   .     A
C1671  C1676   1.406   .     A
C1672  H1712   1.073   .     S
C1672  C1673   1.398   .     A
C1673  C1674   1.392   .     A
C1673  H1713   1.082   .     S
C1674  C1675   1.395   .     A
C1674  H2122   1.082   .     S
C1675  H1716   1.074   .     S
C1675  C1676   1.395   .     A
C1676  H1717   1.084   .     S
C1677  C1688   1.396   .     A
C1677  C425    1.409   1_556 S
C1677  C442    1.422   1_556 S
C1678  C1683   1.405   .     A
C1678  C1679   1.404   .     A
C1679  C1680   1.397   .     A
C1679  H1718   1.083   .     S
C1680  H1719   1.075   .     S
C1680  C1681   1.396   .     A
C1681  C1682   1.393   .     A
C1681  H1720   1.082   .     S
C1682  H1721   1.077   .     S
C1682  C1683   1.397   .     A
C1683  H1722   1.082   .     S
C1684  N1755   1.450   .     S
C1684  H1725   1.110   .     S
C1684  H1724   1.110   .     S
C1684  H503    1.106   1_556 S
C1685  H1731   1.106   .     S
C1685  N1756   1.443   .     S
C1685  H1730   1.110   .     S
C1685  H2001   1.108   1_455 S
C1686  H1733   1.107   .     S
C1686  N1757   1.445   .     S
C1686  H1735   1.110   .     S
C1686  H1734   1.110   .     S
C1687  H1738   1.104   .     S
C1687  H1739   1.108   .     S
C1687  N1758   1.451   .     S
C1687  H1740   1.111   .     S
C1688  C1690   1.390   .     A
C1688  H1704   1.076   .     S
C1689  H1743   1.101   .     S
C1689  H1744   1.111   .     S
C1689  H1742   1.102   .     S
C1689  N1750   1.431   .     S
C1690  N1758   1.436   .     S
C1691  H1715   1.079   .     S
C1692  H1693   1.063   .     S
H1697  N1754   1.030   .     S
H1705  C2070   1.082   .     S
H1723  N1755   1.030   .     S
H1728  N1756   1.032   .     S
H1729  C1821   1.108   .     S
H1732  N1757   1.031   .     S
H1736  N1758   1.033   .     S
H1737  N1752   1.028   .     S
H1741  N1750   1.022   .     S
H1748  N1753   1.025   .     S
N1749  Zn1767  2.087   .     S
N1751  Zn1768  2.086   .     S
N1755  C425    1.428   1_556 S
O1759  Zn1767  2.016   .     S
O1760  Zn1768  2.025   .     S
O1761  Zn1767  1.991   .     S
O1762  Zn1768  1.954   .     S
O1763  Zn1767  2.025   .     S
O1764  Zn1768  2.016   .     S
O1765  Zn1767  1.954   .     S
O1766  Zn1768  1.991   .     S
C1769  O1896   1.314   .     A
C1769  C1777   1.438   .     S
C1769  O1895   1.319   .     A
C1770  C1772   1.507   .     S
C1770  C1787   1.411   .     A
C1770  C1791   1.403   .     A
C1771  C1777   1.395   .     A
C1771  N1886   1.422   .     S
C1771  C2181   1.390   .     S
C1772  O1897   1.327   .     A
C1772  O1898   1.341   .     A
C1773  N1888   1.414   .     S
C1773  C1774   1.395   .     A
C1774  C1783   1.451   .     S
C1774  C1775   1.409   .     A
C1775  N1889   1.424   .     S
C1776  C1777   1.407   .     A
C1776  N1890   1.428   .     S
C1776  C2183   1.411   .     S
C1778  N1887   1.374   .     A
C1778  C1794   1.472   .     S
C1778  C1915   1.455   .     S
C1779  C1800   1.470   .     S
C1779  N1885   1.373   .     A
C1780  C1791   1.418   .     A
C1780  C565    1.420   1_556 S
C1780  C578    1.429   1_556 S
C1781  N1885   1.381   .     A
C1781  C1807   1.474   .     S
C1782  C1814   1.474   .     S
C1782  N1887   1.371   .     A
C1782  C1917   1.452   .     S
C1783  O1900   1.319   .     A
C1783  O1899   1.325   .     A
C1784  O1902   1.329   .     A
C1784  O1901   1.325   .     A
C1784  C1786   1.474   .     S
C1785  C1828   1.399   .     A
C1786  C1828   1.396   .     A
C1786  C1827   1.395   .     A
C1787  N1892   1.420   .     S
C1787  C1788   1.405   .     A
C1788  C565    1.407   1_556 S
C1788  H638    1.081   1_556 S
C1789  N1893   1.434   .     S
C1790  N1888   1.449   .     S
C1790  H1881   1.105   .     S
C1790  H1883   1.109   .     S
C1790  H1882   1.099   .     S
C1791  C1826   1.398   .     A
C1792  H1832   1.103   .     S
C1792  H1831   1.103   .     S
C1792  H1830   1.097   .     S
C1792  N1889   1.428   .     S
C1793  H1835   1.109   .     S
C1793  N1890   1.449   .     S
C1793  H1836   1.105   .     S
C1793  H1834   1.104   .     S
C1794  C1795   1.397   .     A
C1794  C1799   1.402   .     A
C1795  H1837   1.084   .     S
C1795  C1796   1.397   .     A
C1796  C1797   1.394   .     A
C1796  H1838   1.079   .     S
C1797  C1798   1.397   .     A
C1797  H1839   1.081   .     S
C1798  C1799   1.397   .     A
C1799  H1842   1.077   .     S
C1800  C1806   1.400   .     A
C1800  C1801   1.403   .     A
C1801  H1843   1.083   .     S
C1801  C1803   1.392   .     A
C1802  C1827   1.404   .     A
C1803  C1804   1.390   .     A
C1803  H1844   1.072   .     S
C1804  H1845   1.080   .     S
C1804  C1805   1.397   .     A
C1805  C1806   1.399   .     A
C1805  H1846   1.078   .     S
C1806  H1847   1.079   .     S
C1807  C1808   1.400   .     A
C1807  C1812   1.406   .     A
C1808  H1848   1.073   .     S
C1808  C1809   1.398   .     A
C1809  C1810   1.392   .     A
C1809  H1849   1.082   .     S
C1810  C1811   1.395   .     A
C1810  H2258   1.082   .     S
C1811  H1852   1.074   .     S
C1811  C1812   1.395   .     A
C1812  H1853   1.084   .     S
C1813  C1824   1.396   .     A
C1813  C561    1.409   1_556 S
C1813  C578    1.422   1_556 S
C1814  C1819   1.405   .     A
C1814  C1815   1.404   .     A
C1815  C1816   1.397   .     A
C1815  H1854   1.083   .     S
C1816  H1855   1.075   .     S
C1816  C1817   1.396   .     A
C1817  C1818   1.393   .     A
C1817  H1856   1.082   .     S
C1818  H1857   1.077   .     S
C1818  C1819   1.397   .     A
C1819  H1858   1.082   .     S
C1820  N1891   1.450   .     S
C1820  H1861   1.110   .     S
C1820  H1860   1.110   .     S
C1820  H639    1.106   1_556 S
C1821  H1867   1.106   .     S
C1821  N1892   1.443   .     S
C1821  H1866   1.110   .     S
C1822  H1869   1.107   .     S
C1822  N1893   1.445   .     S
C1822  H1871   1.110   .     S
C1822  H1870   1.110   .     S
C1823  H1874   1.104   .     S
C1823  H1875   1.108   .     S
C1823  N1894   1.451   .     S
C1823  H1876   1.111   .     S
C1824  C1826   1.390   .     A
C1824  H1840   1.076   .     S
C1825  H1879   1.101   .     S
C1825  H1880   1.111   .     S
C1825  H1878   1.102   .     S
C1825  N1886   1.431   .     S
C1826  N1894   1.436   .     S
C1827  H1851   1.079   .     S
C1828  H1829   1.063   .     S
H1833  N1890   1.030   .     S
H1841  C2206   1.082   .     S
H1859  N1891   1.030   .     S
H1864  N1892   1.032   .     S
H1865  C1957   1.108   .     S
H1868  N1893   1.031   .     S
H1872  N1894   1.033   .     S
H1873  N1888   1.028   .     S
H1877  N1886   1.022   .     S
H1884  N1889   1.025   .     S
N1885  Zn1903  2.087   .     S
N1887  Zn1904  2.086   .     S
N1891  C561    1.428   1_556 S
O1895  Zn1903  2.016   .     S
O1896  Zn1904  2.025   .     S
O1897  Zn1903  1.991   .     S
O1898  Zn1904  1.954   .     S
O1899  Zn1903  2.025   .     S
O1900  Zn1904  2.016   .     S
O1901  Zn1903  1.954   .     S
O1902  Zn1904  1.991   .     S
C1905  O2032   1.314   .     A
C1905  C1913   1.438   .     S
C1905  O2031   1.319   .     A
C1906  C1908   1.507   .     S
C1906  C1923   1.411   .     A
C1906  C1927   1.403   .     A
C1907  C1913   1.395   .     A
C1907  N2022   1.422   .     S
C1907  C2317   1.390   .     S
C1908  O2033   1.327   .     A
C1908  O2034   1.341   .     A
C1909  N2024   1.414   .     S
C1909  C1910   1.395   .     A
C1910  C1919   1.451   .     S
C1910  C1911   1.409   .     A
C1911  N2025   1.424   .     S
C1912  C1913   1.407   .     A
C1912  N2026   1.428   .     S
C1912  C2319   1.411   .     S
C1914  N2023   1.374   .     A
C1914  C1930   1.472   .     S
C1914  C1643   1.455   1_655 S
C1915  C1936   1.470   .     S
C1915  N2021   1.373   .     A
C1916  C1927   1.418   .     A
C1916  C701    1.420   1_556 S
C1916  C714    1.429   1_556 S
C1917  N2021   1.381   .     A
C1917  C1943   1.474   .     S
C1918  C1950   1.474   .     S
C1918  N2023   1.371   .     A
C1918  C1645   1.452   1_655 S
C1919  O2036   1.319   .     A
C1919  O2035   1.325   .     A
C1920  O2038   1.329   .     A
C1920  O2037   1.325   .     A
C1920  C1922   1.474   .     S
C1921  C1964   1.399   .     A
C1922  C1964   1.396   .     A
C1922  C1963   1.395   .     A
C1923  N2028   1.420   .     S
C1923  C1924   1.405   .     A
C1924  C701    1.407   1_556 S
C1924  H774    1.081   1_556 S
C1925  N2029   1.434   .     S
C1926  N2024   1.449   .     S
C1926  H2017   1.105   .     S
C1926  H2019   1.109   .     S
C1926  H2018   1.099   .     S
C1927  C1962   1.398   .     A
C1928  H1968   1.103   .     S
C1928  H1967   1.103   .     S
C1928  H1966   1.097   .     S
C1928  N2025   1.428   .     S
C1929  H1971   1.109   .     S
C1929  N2026   1.449   .     S
C1929  H1972   1.105   .     S
C1929  H1970   1.104   .     S
C1930  C1931   1.397   .     A
C1930  C1935   1.402   .     A
C1931  H1973   1.084   .     S
C1931  C1932   1.397   .     A
C1932  C1933   1.394   .     A
C1932  H1974   1.079   .     S
C1933  C1934   1.397   .     A
C1933  H1975   1.081   .     S
C1934  C1935   1.397   .     A
C1935  H1978   1.077   .     S
C1936  C1942   1.400   .     A
C1936  C1937   1.403   .     A
C1937  H1979   1.083   .     S
C1937  C1939   1.392   .     A
C1938  C1963   1.404   .     A
C1939  C1940   1.390   .     A
C1939  H1980   1.072   .     S
C1940  H1981   1.080   .     S
C1940  C1941   1.397   .     A
C1941  C1942   1.399   .     A
C1941  H1982   1.078   .     S
C1942  H1983   1.079   .     S
C1943  C1944   1.400   .     A
C1943  C1948   1.406   .     A
C1944  H1984   1.073   .     S
C1944  C1945   1.398   .     A
C1945  C1946   1.392   .     A
C1945  H1985   1.082   .     S
C1946  C1947   1.395   .     A
C1946  H2394   1.082   .     S
C1947  H1988   1.074   .     S
C1947  C1948   1.395   .     A
C1948  H1989   1.084   .     S
C1949  C1960   1.396   .     A
C1949  C697    1.409   1_556 S
C1949  C714    1.422   1_556 S
C1950  C1955   1.405   .     A
C1950  C1951   1.404   .     A
C1951  C1952   1.397   .     A
C1951  H1990   1.083   .     S
C1952  H1991   1.075   .     S
C1952  C1953   1.396   .     A
C1953  C1954   1.393   .     A
C1953  H1992   1.082   .     S
C1954  H1993   1.077   .     S
C1954  C1955   1.397   .     A
C1955  H1994   1.082   .     S
C1956  N2027   1.450   .     S
C1956  H1997   1.110   .     S
C1956  H1996   1.110   .     S
C1956  H775    1.106   1_556 S
C1957  H2003   1.106   .     S
C1957  N2028   1.443   .     S
C1957  H2002   1.110   .     S
C1958  H2005   1.107   .     S
C1958  N2029   1.445   .     S
C1958  H2007   1.110   .     S
C1958  H2006   1.110   .     S
C1959  H2010   1.104   .     S
C1959  H2011   1.108   .     S
C1959  N2030   1.451   .     S
C1959  H2012   1.111   .     S
C1960  C1962   1.390   .     A
C1960  H1976   1.076   .     S
C1961  H2015   1.101   .     S
C1961  H2016   1.111   .     S
C1961  H2014   1.102   .     S
C1961  N2022   1.431   .     S
C1962  N2030   1.436   .     S
C1963  H1987   1.079   .     S
C1964  H1965   1.063   .     S
H1969  N2026   1.030   .     S
H1977  C2342   1.082   .     S
H1995  N2027   1.030   .     S
H2000  N2028   1.032   .     S
H2001  C1685   1.108   1_655 S
H2004  N2029   1.031   .     S
H2008  N2030   1.033   .     S
H2009  N2024   1.028   .     S
H2013  N2022   1.022   .     S
H2020  N2025   1.025   .     S
N2021  Zn2039  2.087   .     S
N2023  Zn2040  2.086   .     S
N2027  C697    1.428   1_556 S
O2031  Zn2039  2.016   .     S
O2032  Zn2040  2.025   .     S
O2033  Zn2039  1.991   .     S
O2034  Zn2040  1.954   .     S
O2035  Zn2039  2.025   .     S
O2036  Zn2040  2.016   .     S
O2037  Zn2039  1.954   .     S
O2038  Zn2040  1.991   .     S
C2041  O2168   1.314   .     A
C2041  C2049   1.438   .     S
C2041  O2167   1.319   .     A
C2042  C2044   1.507   .     S
C2042  C2059   1.411   .     A
C2042  C2063   1.403   .     A
C2043  C2049   1.395   .     A
C2043  N2158   1.422   .     S
C2043  C1229   1.390   1_565 S
C2044  O2169   1.327   .     A
C2044  O2170   1.341   .     A
C2045  N2160   1.414   .     S
C2045  C2046   1.395   .     A
C2046  C2055   1.451   .     S
C2046  C2047   1.409   .     A
C2047  N2161   1.424   .     S
C2048  C2049   1.407   .     A
C2048  N2162   1.428   .     S
C2048  C1231   1.411   1_565 S
C2050  N2159   1.374   .     A
C2050  C2066   1.472   .     S
C2050  C2187   1.455   .     S
C2051  C2072   1.470   .     S
C2051  N2157   1.373   .     A
C2051  C2322   1.455   1_455 S
C2052  C2063   1.418   .     A
C2052  C837    1.420   1_556 S
C2052  C850    1.429   1_556 S
C2053  N2157   1.381   .     A
C2053  C2079   1.474   .     S
C2053  C2326   1.452   1_455 S
C2054  C2086   1.474   .     S
C2054  N2159   1.371   .     A
C2054  C2189   1.452   .     S
C2055  O2172   1.319   .     A
C2055  O2171   1.325   .     A
C2056  O2174   1.329   .     A
C2056  O2173   1.325   .     A
C2056  C2058   1.474   .     S
C2057  C2100   1.399   .     A
C2058  C2100   1.396   .     A
C2058  C2099   1.395   .     A
C2059  N2164   1.420   .     S
C2059  C2060   1.405   .     A
C2060  C837    1.407   1_556 S
C2060  H910    1.081   1_556 S
C2061  N2165   1.434   .     S
C2062  N2160   1.449   .     S
C2062  H2153   1.105   .     S
C2062  H2155   1.109   .     S
C2062  H2154   1.099   .     S
C2063  C2098   1.398   .     A
C2064  H2104   1.103   .     S
C2064  H2103   1.103   .     S
C2064  H2102   1.097   .     S
C2064  N2161   1.428   .     S
C2065  H2107   1.109   .     S
C2065  N2162   1.449   .     S
C2065  H2108   1.105   .     S
C2065  H2106   1.104   .     S
C2066  C2067   1.397   .     A
C2066  C2071   1.402   .     A
C2067  H2109   1.084   .     S
C2067  C2068   1.397   .     A
C2068  C2069   1.394   .     A
C2068  H2110   1.079   .     S
C2069  C2070   1.397   .     A
C2069  H2111   1.081   .     S
C2070  C2071   1.397   .     A
C2071  H2114   1.077   .     S
C2072  C2078   1.400   .     A
C2072  C2073   1.403   .     A
C2073  H2115   1.083   .     S
C2073  C2075   1.392   .     A
C2074  C2099   1.404   .     A
C2075  C2076   1.390   .     A
C2075  H2116   1.072   .     S
C2076  H2117   1.080   .     S
C2076  C2077   1.397   .     A
C2077  C2078   1.399   .     A
C2077  H2118   1.078   .     S
C2078  H2119   1.079   .     S
C2079  C2080   1.400   .     A
C2079  C2084   1.406   .     A
C2080  H2120   1.073   .     S
C2080  C2081   1.398   .     A
C2081  C2082   1.392   .     A
C2081  H2121   1.082   .     S
C2082  C2083   1.395   .     A
C2082  H1306   1.082   1_565 S
C2083  H2124   1.074   .     S
C2083  C2084   1.395   .     A
C2084  H2125   1.084   .     S
C2085  C2096   1.396   .     A
C2085  C833    1.409   1_556 S
C2085  C850    1.422   1_556 S
C2086  C2091   1.405   .     A
C2086  C2087   1.404   .     A
C2087  C2088   1.397   .     A
C2087  H2126   1.083   .     S
C2088  H2127   1.075   .     S
C2088  C2089   1.396   .     A
C2089  C2090   1.393   .     A
C2089  H2128   1.082   .     S
C2090  H2129   1.077   .     S
C2090  C2091   1.397   .     A
C2091  H2130   1.082   .     S
C2092  N2163   1.450   .     S
C2092  H2133   1.110   .     S
C2092  H2132   1.110   .     S
C2092  H911    1.106   1_556 S
C2093  H2139   1.106   .     S
C2093  N2164   1.443   .     S
C2093  H2138   1.110   .     S
C2093  H2409   1.108   1_455 S
C2094  H2141   1.107   .     S
C2094  N2165   1.445   .     S
C2094  H2143   1.110   .     S
C2094  H2142   1.110   .     S
C2095  H2146   1.104   .     S
C2095  H2147   1.108   .     S
C2095  N2166   1.451   .     S
C2095  H2148   1.111   .     S
C2096  C2098   1.390   .     A
C2096  H2112   1.076   .     S
C2097  H2151   1.101   .     S
C2097  H2152   1.111   .     S
C2097  H2150   1.102   .     S
C2097  N2158   1.431   .     S
C2098  N2166   1.436   .     S
C2099  H2123   1.079   .     S
C2100  H2101   1.063   .     S
H2105  N2162   1.030   .     S
H2113  C1254   1.082   1_565 S
H2131  N2163   1.030   .     S
H2136  N2164   1.032   .     S
H2137  C2229   1.108   .     S
H2140  N2165   1.031   .     S
H2144  N2166   1.033   .     S
H2145  N2160   1.028   .     S
H2149  N2158   1.022   .     S
H2156  N2161   1.025   .     S
N2157  Zn2175  2.087   .     S
N2159  Zn2176  2.086   .     S
N2163  C833    1.428   1_556 S
O2167  Zn2175  2.016   .     S
O2168  Zn2176  2.025   .     S
O2169  Zn2175  1.991   .     S
O2170  Zn2176  1.954   .     S
O2171  Zn2175  2.025   .     S
O2172  Zn2176  2.016   .     S
O2173  Zn2175  1.954   .     S
O2174  Zn2176  1.991   .     S
C2177  O2304   1.314   .     A
C2177  C2185   1.438   .     S
C2177  O2303   1.319   .     A
C2178  C2180   1.507   .     S
C2178  C2195   1.411   .     A
C2178  C2199   1.403   .     A
C2179  C2185   1.395   .     A
C2179  N2294   1.422   .     S
C2179  C1365   1.390   1_565 S
C2180  O2305   1.327   .     A
C2180  O2306   1.341   .     A
C2181  N2296   1.414   .     S
C2181  C2182   1.395   .     A
C2182  C2191   1.451   .     S
C2182  C2183   1.409   .     A
C2183  N2297   1.424   .     S
C2184  C2185   1.407   .     A
C2184  N2298   1.428   .     S
C2184  C1367   1.411   1_565 S
C2186  N2295   1.374   .     A
C2186  C2202   1.472   .     S
C2186  C2323   1.455   .     S
C2187  C2208   1.470   .     S
C2187  N2293   1.373   .     A
C2188  C2199   1.418   .     A
C2188  C973    1.420   1_556 S
C2188  C986    1.429   1_556 S
C2189  N2293   1.381   .     A
C2189  C2215   1.474   .     S
C2190  C2222   1.474   .     S
C2190  N2295   1.371   .     A
C2190  C2325   1.452   .     S
C2191  O2308   1.319   .     A
C2191  O2307   1.325   .     A
C2192  O2310   1.329   .     A
C2192  O2309   1.325   .     A
C2192  C2194   1.474   .     S
C2193  C2236   1.399   .     A
C2194  C2236   1.396   .     A
C2194  C2235   1.395   .     A
C2195  N2300   1.420   .     S
C2195  C2196   1.405   .     A
C2196  C973    1.407   1_556 S
C2196  H1046   1.081   1_556 S
C2197  N2301   1.434   .     S
C2198  N2296   1.449   .     S
C2198  H2289   1.105   .     S
C2198  H2291   1.109   .     S
C2198  H2290   1.099   .     S
C2199  C2234   1.398   .     A
C2200  H2240   1.103   .     S
C2200  H2239   1.103   .     S
C2200  H2238   1.097   .     S
C2200  N2297   1.428   .     S
C2201  H2243   1.109   .     S
C2201  N2298   1.449   .     S
C2201  H2244   1.105   .     S
C2201  H2242   1.104   .     S
C2202  C2203   1.397   .     A
C2202  C2207   1.402   .     A
C2203  H2245   1.084   .     S
C2203  C2204   1.397   .     A
C2204  C2205   1.394   .     A
C2204  H2246   1.079   .     S
C2205  C2206   1.397   .     A
C2205  H2247   1.081   .     S
C2206  C2207   1.397   .     A
C2207  H2250   1.077   .     S
C2208  C2214   1.400   .     A
C2208  C2209   1.403   .     A
C2209  H2251   1.083   .     S
C2209  C2211   1.392   .     A
C2210  C2235   1.404   .     A
C2211  C2212   1.390   .     A
C2211  H2252   1.072   .     S
C2212  H2253   1.080   .     S
C2212  C2213   1.397   .     A
C2213  C2214   1.399   .     A
C2213  H2254   1.078   .     S
C2214  H2255   1.079   .     S
C2215  C2216   1.400   .     A
C2215  C2220   1.406   .     A
C2216  H2256   1.073   .     S
C2216  C2217   1.398   .     A
C2217  C2218   1.392   .     A
C2217  H2257   1.082   .     S
C2218  C2219   1.395   .     A
C2218  H1442   1.082   1_565 S
C2219  H2260   1.074   .     S
C2219  C2220   1.395   .     A
C2220  H2261   1.084   .     S
C2221  C2232   1.396   .     A
C2221  C969    1.409   1_556 S
C2221  C986    1.422   1_556 S
C2222  C2227   1.405   .     A
C2222  C2223   1.404   .     A
C2223  C2224   1.397   .     A
C2223  H2262   1.083   .     S
C2224  H2263   1.075   .     S
C2224  C2225   1.396   .     A
C2225  C2226   1.393   .     A
C2225  H2264   1.082   .     S
C2226  H2265   1.077   .     S
C2226  C2227   1.397   .     A
C2227  H2266   1.082   .     S
C2228  N2299   1.450   .     S
C2228  H2269   1.110   .     S
C2228  H2268   1.110   .     S
C2228  H1047   1.106   1_556 S
C2229  H2275   1.106   .     S
C2229  N2300   1.443   .     S
C2229  H2274   1.110   .     S
C2230  H2277   1.107   .     S
C2230  N2301   1.445   .     S
C2230  H2279   1.110   .     S
C2230  H2278   1.110   .     S
C2231  H2282   1.104   .     S
C2231  H2283   1.108   .     S
C2231  N2302   1.451   .     S
C2231  H2284   1.111   .     S
C2232  C2234   1.390   .     A
C2232  H2248   1.076   .     S
C2233  H2287   1.101   .     S
C2233  H2288   1.111   .     S
C2233  H2286   1.102   .     S
C2233  N2294   1.431   .     S
C2234  N2302   1.436   .     S
C2235  H2259   1.079   .     S
C2236  H2237   1.063   .     S
H2241  N2298   1.030   .     S
H2249  C1390   1.082   1_565 S
H2267  N2299   1.030   .     S
H2272  N2300   1.032   .     S
H2273  C2365   1.108   .     S
H2276  N2301   1.031   .     S
H2280  N2302   1.033   .     S
H2281  N2296   1.028   .     S
H2285  N2294   1.022   .     S
H2292  N2297   1.025   .     S
N2293  Zn2311  2.087   .     S
N2295  Zn2312  2.086   .     S
N2299  C969    1.428   1_556 S
O2303  Zn2311  2.016   .     S
O2304  Zn2312  2.025   .     S
O2305  Zn2311  1.991   .     S
O2306  Zn2312  1.954   .     S
O2307  Zn2311  2.025   .     S
O2308  Zn2312  2.016   .     S
O2309  Zn2311  1.954   .     S
O2310  Zn2312  1.991   .     S
C2313  O2440   1.314   .     A
C2313  C2321   1.438   .     S
C2313  O2439   1.319   .     A
C2314  C2316   1.507   .     S
C2314  C2331   1.411   .     A
C2314  C2335   1.403   .     A
C2315  C2321   1.395   .     A
C2315  N2430   1.422   .     S
C2315  C1501   1.390   1_565 S
C2316  O2441   1.327   .     A
C2316  O2442   1.341   .     A
C2317  N2432   1.414   .     S
C2317  C2318   1.395   .     A
C2318  C2327   1.451   .     S
C2318  C2319   1.409   .     A
C2319  N2433   1.424   .     S
C2320  C2321   1.407   .     A
C2320  N2434   1.428   .     S
C2320  C1503   1.411   1_565 S
C2322  N2431   1.374   .     A
C2322  C2338   1.472   .     S
C2322  C2051   1.455   1_655 S
C2323  C2344   1.470   .     S
C2323  N2429   1.373   .     A
C2324  C2335   1.418   .     A
C2324  C1109   1.420   1_556 S
C2324  C1122   1.429   1_556 S
C2325  N2429   1.381   .     A
C2325  C2351   1.474   .     S
C2326  C2358   1.474   .     S
C2326  N2431   1.371   .     A
C2326  C2053   1.452   1_655 S
C2327  O2444   1.319   .     A
C2327  O2443   1.325   .     A
C2328  O2446   1.329   .     A
C2328  O2445   1.325   .     A
C2328  C2330   1.474   .     S
C2329  C2372   1.399   .     A
C2330  C2372   1.396   .     A
C2330  C2371   1.395   .     A
C2331  N2436   1.420   .     S
C2331  C2332   1.405   .     A
C2332  C1109   1.407   1_556 S
C2332  H1182   1.081   1_556 S
C2333  N2437   1.434   .     S
C2334  N2432   1.449   .     S
C2334  H2425   1.105   .     S
C2334  H2427   1.109   .     S
C2334  H2426   1.099   .     S
C2335  C2370   1.398   .     A
C2336  H2376   1.103   .     S
C2336  H2375   1.103   .     S
C2336  H2374   1.097   .     S
C2336  N2433   1.428   .     S
C2337  H2379   1.109   .     S
C2337  N2434   1.449   .     S
C2337  H2380   1.105   .     S
C2337  H2378   1.104   .     S
C2338  C2339   1.397   .     A
C2338  C2343   1.402   .     A
C2339  H2381   1.084   .     S
C2339  C2340   1.397   .     A
C2340  C2341   1.394   .     A
C2340  H2382   1.079   .     S
C2341  C2342   1.397   .     A
C2341  H2383   1.081   .     S
C2342  C2343   1.397   .     A
C2343  H2386   1.077   .     S
C2344  C2350   1.400   .     A
C2344  C2345   1.403   .     A
C2345  H2387   1.083   .     S
C2345  C2347   1.392   .     A
C2346  C2371   1.404   .     A
C2347  C2348   1.390   .     A
C2347  H2388   1.072   .     S
C2348  H2389   1.080   .     S
C2348  C2349   1.397   .     A
C2349  C2350   1.399   .     A
C2349  H2390   1.078   .     S
C2350  H2391   1.079   .     S
C2351  C2352   1.400   .     A
C2351  C2356   1.406   .     A
C2352  H2392   1.073   .     S
C2352  C2353   1.398   .     A
C2353  C2354   1.392   .     A
C2353  H2393   1.082   .     S
C2354  C2355   1.395   .     A
C2354  H1578   1.082   1_565 S
C2355  H2396   1.074   .     S
C2355  C2356   1.395   .     A
C2356  H2397   1.084   .     S
C2357  C2368   1.396   .     A
C2357  C1105   1.409   1_556 S
C2357  C1122   1.422   1_556 S
C2358  C2363   1.405   .     A
C2358  C2359   1.404   .     A
C2359  C2360   1.397   .     A
C2359  H2398   1.083   .     S
C2360  H2399   1.075   .     S
C2360  C2361   1.396   .     A
C2361  C2362   1.393   .     A
C2361  H2400   1.082   .     S
C2362  H2401   1.077   .     S
C2362  C2363   1.397   .     A
C2363  H2402   1.082   .     S
C2364  N2435   1.450   .     S
C2364  H2405   1.110   .     S
C2364  H2404   1.110   .     S
C2364  H1183   1.106   1_556 S
C2365  H2411   1.106   .     S
C2365  N2436   1.443   .     S
C2365  H2410   1.110   .     S
C2366  H2413   1.107   .     S
C2366  N2437   1.445   .     S
C2366  H2415   1.110   .     S
C2366  H2414   1.110   .     S
C2367  H2418   1.104   .     S
C2367  H2419   1.108   .     S
C2367  N2438   1.451   .     S
C2367  H2420   1.111   .     S
C2368  C2370   1.390   .     A
C2368  H2384   1.076   .     S
C2369  H2423   1.101   .     S
C2369  H2424   1.111   .     S
C2369  H2422   1.102   .     S
C2369  N2430   1.431   .     S
C2370  N2438   1.436   .     S
C2371  H2395   1.079   .     S
C2372  H2373   1.063   .     S
H2377  N2434   1.030   .     S
H2385  C1526   1.082   1_565 S
H2403  N2435   1.030   .     S
H2408  N2436   1.032   .     S
H2409  C2093   1.108   1_655 S
H2412  N2437   1.031   .     S
H2416  N2438   1.033   .     S
H2417  N2432   1.028   .     S
H2421  N2430   1.022   .     S
H2428  N2433   1.025   .     S
N2429  Zn2447  2.087   .     S
N2431  Zn2448  2.086   .     S
N2435  C1105   1.428   1_556 S
O2439  Zn2447  2.016   .     S
O2440  Zn2448  2.025   .     S
O2441  Zn2447  1.991   .     S
O2442  Zn2448  1.954   .     S
O2443  Zn2447  2.025   .     S
O2444  Zn2448  2.016   .     S
O2445  Zn2447  1.954   .     S
O2446  Zn2448  1.991   .     S
