data_str_m2_o1_o5_pcu_sym.52
_audit_creation_date              2020-01-03
_audit_creation_method            'Materials Studio'
_symmetry_space_group_name_H-M    'P1'
_symmetry_Int_Tables_number       1
_symmetry_cell_setting            triclinic
loop_
_symmetry_equiv_pos_as_xyz
  x,y,z
_cell_length_a                    32.8011
_cell_length_b                    28.7942
_cell_length_c                    27.2038
_cell_angle_alpha                 90.0000
_cell_angle_beta                  92.9846
_cell_angle_gamma                 89.9999
loop_
_atom_site_label
_atom_site_type_symbol
_atom_site_fract_x
_atom_site_fract_y
_atom_site_fract_z
_atom_site_U_iso_or_equiv
_atom_site_adp_type
_atom_site_occupancy
Br1    Br    0.10539   0.05619   0.08681   0.00000  Uiso   1.00
Br2    Br    0.22794   0.27714   0.24652   0.00000  Uiso   1.00
Br3    Br    0.22794   0.05619   0.24652   0.00000  Uiso   1.00
Br4    Br    0.10539   0.27714   0.08681   0.00000  Uiso   1.00
C5     C     0.08758   0.16667   0.16990   0.00000  Uiso   1.00
C6     C     0.02104   0.20910   0.17151   0.00000  Uiso   1.00
C7     C     0.29050   0.16667   0.16073   0.00000  Uiso   1.00
C8     C     0.04284   0.16667   0.17260   0.00000  Uiso   1.00
C9     C     0.14158   0.02469   0.13401   0.00000  Uiso   1.00
C10    C     0.19175   0.30864   0.19933   0.00000  Uiso   1.00
C11    C     0.19175   0.02469   0.19933   0.00000  Uiso   1.00
C12    C     0.14158   0.30864   0.13401   0.00000  Uiso   1.00
C13    C     0.24575   0.16667   0.16343   0.00000  Uiso   1.00
C14    C     0.16660   0.16667   0.07361   0.00000  Uiso   1.00
C15    C     0.16674   0.16667   0.25972   0.00000  Uiso   1.00
C16    C     0.16664   0.16667   0.02187   0.00000  Uiso   1.00
C17    C     0.16669   0.16667   0.31147   0.00000  Uiso   1.00
C18    C     0.02104   0.12423   0.17151   0.00000  Uiso   1.00
C19    C     0.31230   0.20910   0.16182   0.00000  Uiso   1.00
C20    C     0.31230   0.12423   0.16183   0.00000  Uiso   1.00
Cl21   Cl    0.04421   0.07016   0.18762   0.00000  Uiso   1.00
Cl22   Cl    0.28912   0.26317   0.14572   0.00000  Uiso   1.00
Cl23   Cl    0.28912   0.07016   0.14572   0.00000  Uiso   1.00
Cl24   Cl    0.04421   0.26317   0.18761   0.00000  Uiso   1.00
Cu25   Cu    0.16667   0.21355   0.16667   0.00000  Uiso   1.00
Cu26   Cu    0.16667   0.11978   0.16667   0.00000  Uiso   1.00
N27    N     0.16667   0.28402   0.16667   0.00000  Uiso   1.00
N28    N     0.16667   0.04931   0.16667   0.00000  Uiso   1.00
O29    O     0.10655   0.20625   0.16666   0.00000  Uiso   1.00
O30    O     0.22679   0.12709   0.16667   0.00000  Uiso   1.00
O31    O     0.22679   0.20625   0.16667   0.00000  Uiso   1.00
O32    O     0.10655   0.12709   0.16666   0.00000  Uiso   1.00
O33    O     0.16667   0.20625   0.09613   0.00000  Uiso   1.00
O34    O     0.16667   0.12708   0.23720   0.00000  Uiso   1.00
O35    O     0.16667   0.20625   0.23720   0.00000  Uiso   1.00
O36    O     0.16667   0.12708   0.09613   0.00000  Uiso   1.00
Br37   Br    0.43873   0.05619   0.08681   0.00000  Uiso   1.00
Br38   Br    0.56127   0.27714   0.24652   0.00000  Uiso   1.00
Br39   Br    0.56127   0.05619   0.24652   0.00000  Uiso   1.00
Br40   Br    0.43873   0.27714   0.08681   0.00000  Uiso   1.00
C41    C     0.42091   0.16667   0.16990   0.00000  Uiso   1.00
C42    C     0.35437   0.20910   0.17151   0.00000  Uiso   1.00
C43    C     0.62383   0.16667   0.16073   0.00000  Uiso   1.00
C44    C     0.37617   0.16667   0.17260   0.00000  Uiso   1.00
C45    C     0.47491   0.02469   0.13401   0.00000  Uiso   1.00
C46    C     0.52509   0.30864   0.19933   0.00000  Uiso   1.00
C47    C     0.52509   0.02469   0.19933   0.00000  Uiso   1.00
C48    C     0.47491   0.30864   0.13401   0.00000  Uiso   1.00
C49    C     0.57909   0.16667   0.16343   0.00000  Uiso   1.00
C50    C     0.49993   0.16667   0.07361   0.00000  Uiso   1.00
C51    C     0.50007   0.16667   0.25972   0.00000  Uiso   1.00
C52    C     0.49998   0.16667   0.02187   0.00000  Uiso   1.00
C53    C     0.50002   0.16667   0.31147   0.00000  Uiso   1.00
C54    C     0.35437   0.12423   0.17151   0.00000  Uiso   1.00
C55    C     0.64563   0.20910   0.16182   0.00000  Uiso   1.00
C56    C     0.64563   0.12423   0.16183   0.00000  Uiso   1.00
Cl57   Cl    0.37754   0.07016   0.18762   0.00000  Uiso   1.00
Cl58   Cl    0.62246   0.26317   0.14572   0.00000  Uiso   1.00
Cl59   Cl    0.62246   0.07016   0.14572   0.00000  Uiso   1.00
Cl60   Cl    0.37754   0.26317   0.18761   0.00000  Uiso   1.00
Cu61   Cu    0.50000   0.21355   0.16667   0.00000  Uiso   1.00
Cu62   Cu    0.50000   0.11978   0.16667   0.00000  Uiso   1.00
N63    N     0.50000   0.28402   0.16667   0.00000  Uiso   1.00
N64    N     0.50000   0.04931   0.16667   0.00000  Uiso   1.00
O65    O     0.43988   0.20625   0.16666   0.00000  Uiso   1.00
O66    O     0.56012   0.12709   0.16667   0.00000  Uiso   1.00
O67    O     0.56012   0.20625   0.16667   0.00000  Uiso   1.00
O68    O     0.43988   0.12709   0.16666   0.00000  Uiso   1.00
O69    O     0.50000   0.20625   0.09613   0.00000  Uiso   1.00
O70    O     0.50000   0.12708   0.23720   0.00000  Uiso   1.00
O71    O     0.50000   0.20625   0.23720   0.00000  Uiso   1.00
O72    O     0.50000   0.12708   0.09613   0.00000  Uiso   1.00
Br73   Br    0.77206   0.05619   0.08681   0.00000  Uiso   1.00
Br74   Br    0.89460   0.27714   0.24652   0.00000  Uiso   1.00
Br75   Br    0.89461   0.05619   0.24652   0.00000  Uiso   1.00
Br76   Br    0.77206   0.27714   0.08681   0.00000  Uiso   1.00
C77    C     0.75425   0.16667   0.16990   0.00000  Uiso   1.00
C78    C     0.68770   0.20910   0.17151   0.00000  Uiso   1.00
C79    C     0.95716   0.16667   0.16073   0.00000  Uiso   1.00
C80    C     0.70950   0.16667   0.17260   0.00000  Uiso   1.00
C81    C     0.80825   0.02469   0.13401   0.00000  Uiso   1.00
C82    C     0.85842   0.30864   0.19933   0.00000  Uiso   1.00
C83    C     0.85842   0.02469   0.19933   0.00000  Uiso   1.00
C84    C     0.80825   0.30864   0.13401   0.00000  Uiso   1.00
C85    C     0.91242   0.16667   0.16343   0.00000  Uiso   1.00
C86    C     0.83326   0.16667   0.07361   0.00000  Uiso   1.00
C87    C     0.83340   0.16667   0.25972   0.00000  Uiso   1.00
C88    C     0.83331   0.16667   0.02187   0.00000  Uiso   1.00
C89    C     0.83336   0.16667   0.31147   0.00000  Uiso   1.00
C90    C     0.68770   0.12423   0.17151   0.00000  Uiso   1.00
C91    C     0.97896   0.20910   0.16182   0.00000  Uiso   1.00
C92    C     0.97896   0.12423   0.16183   0.00000  Uiso   1.00
Cl93   Cl    0.71088   0.07016   0.18762   0.00000  Uiso   1.00
Cl94   Cl    0.95579   0.26317   0.14572   0.00000  Uiso   1.00
Cl95   Cl    0.95579   0.07016   0.14572   0.00000  Uiso   1.00
Cl96   Cl    0.71088   0.26317   0.18761   0.00000  Uiso   1.00
Cu97   Cu    0.83333   0.21355   0.16667   0.00000  Uiso   1.00
Cu98   Cu    0.83333   0.11978   0.16667   0.00000  Uiso   1.00
N99    N     0.83333   0.28402   0.16667   0.00000  Uiso   1.00
N100   N     0.83333   0.04931   0.16667   0.00000  Uiso   1.00
O101   O     0.77321   0.20625   0.16666   0.00000  Uiso   1.00
O102   O     0.89345   0.12709   0.16667   0.00000  Uiso   1.00
O103   O     0.89345   0.20625   0.16667   0.00000  Uiso   1.00
O104   O     0.77321   0.12709   0.16666   0.00000  Uiso   1.00
O105   O     0.83333   0.20625   0.09613   0.00000  Uiso   1.00
O106   O     0.83333   0.12708   0.23720   0.00000  Uiso   1.00
O107   O     0.83333   0.20625   0.23720   0.00000  Uiso   1.00
O108   O     0.83333   0.12708   0.09613   0.00000  Uiso   1.00
Br109  Br    0.10539   0.38952   0.08681   0.00000  Uiso   1.00
Br110  Br    0.22794   0.61048   0.24652   0.00000  Uiso   1.00
Br111  Br    0.22794   0.38952   0.24652   0.00000  Uiso   1.00
Br112  Br    0.10539   0.61048   0.08681   0.00000  Uiso   1.00
C113   C     0.08758   0.50000   0.16990   0.00000  Uiso   1.00
C114   C     0.02104   0.54243   0.17151   0.00000  Uiso   1.00
C115   C     0.29050   0.50000   0.16073   0.00000  Uiso   1.00
C116   C     0.04284   0.50000   0.17260   0.00000  Uiso   1.00
C117   C     0.14158   0.35803   0.13401   0.00000  Uiso   1.00
C118   C     0.19175   0.64197   0.19933   0.00000  Uiso   1.00
C119   C     0.19175   0.35803   0.19933   0.00000  Uiso   1.00
C120   C     0.14158   0.64197   0.13401   0.00000  Uiso   1.00
C121   C     0.24575   0.50000   0.16343   0.00000  Uiso   1.00
C122   C     0.16660   0.50000   0.07361   0.00000  Uiso   1.00
C123   C     0.16674   0.50000   0.25972   0.00000  Uiso   1.00
C124   C     0.16664   0.50000   0.02187   0.00000  Uiso   1.00
C125   C     0.16669   0.50000   0.31147   0.00000  Uiso   1.00
C126   C     0.02104   0.45757   0.17151   0.00000  Uiso   1.00
C127   C     0.31230   0.54243   0.16182   0.00000  Uiso   1.00
C128   C     0.31230   0.45757   0.16183   0.00000  Uiso   1.00
Cl129  Cl    0.04421   0.40349   0.18762   0.00000  Uiso   1.00
Cl130  Cl    0.28912   0.59651   0.14572   0.00000  Uiso   1.00
Cl131  Cl    0.28912   0.40349   0.14572   0.00000  Uiso   1.00
Cl132  Cl    0.04421   0.59651   0.18761   0.00000  Uiso   1.00
Cu133  Cu    0.16667   0.54689   0.16667   0.00000  Uiso   1.00
Cu134  Cu    0.16667   0.45311   0.16667   0.00000  Uiso   1.00
N135   N     0.16667   0.61736   0.16667   0.00000  Uiso   1.00
N136   N     0.16667   0.38264   0.16667   0.00000  Uiso   1.00
O137   O     0.10655   0.53958   0.16666   0.00000  Uiso   1.00
O138   O     0.22679   0.46042   0.16667   0.00000  Uiso   1.00
O139   O     0.22679   0.53958   0.16667   0.00000  Uiso   1.00
O140   O     0.10655   0.46042   0.16666   0.00000  Uiso   1.00
O141   O     0.16667   0.53959   0.09613   0.00000  Uiso   1.00
O142   O     0.16667   0.46041   0.23720   0.00000  Uiso   1.00
O143   O     0.16667   0.53959   0.23720   0.00000  Uiso   1.00
O144   O     0.16667   0.46041   0.09613   0.00000  Uiso   1.00
Br145  Br    0.43873   0.38952   0.08681   0.00000  Uiso   1.00
Br146  Br    0.56127   0.61048   0.24652   0.00000  Uiso   1.00
Br147  Br    0.56127   0.38952   0.24652   0.00000  Uiso   1.00
Br148  Br    0.43873   0.61048   0.08681   0.00000  Uiso   1.00
C149   C     0.42091   0.50000   0.16990   0.00000  Uiso   1.00
C150   C     0.35437   0.54243   0.17151   0.00000  Uiso   1.00
C151   C     0.62383   0.50000   0.16073   0.00000  Uiso   1.00
C152   C     0.37617   0.50000   0.17260   0.00000  Uiso   1.00
C153   C     0.47491   0.35803   0.13401   0.00000  Uiso   1.00
C154   C     0.52509   0.64197   0.19933   0.00000  Uiso   1.00
C155   C     0.52509   0.35803   0.19933   0.00000  Uiso   1.00
C156   C     0.47491   0.64197   0.13401   0.00000  Uiso   1.00
C157   C     0.57909   0.50000   0.16343   0.00000  Uiso   1.00
C158   C     0.49993   0.50000   0.07361   0.00000  Uiso   1.00
C159   C     0.50007   0.50000   0.25972   0.00000  Uiso   1.00
C160   C     0.49998   0.50000   0.02187   0.00000  Uiso   1.00
C161   C     0.50002   0.50000   0.31147   0.00000  Uiso   1.00
C162   C     0.35437   0.45757   0.17151   0.00000  Uiso   1.00
C163   C     0.64563   0.54243   0.16182   0.00000  Uiso   1.00
C164   C     0.64563   0.45757   0.16183   0.00000  Uiso   1.00
Cl165  Cl    0.37754   0.40349   0.18762   0.00000  Uiso   1.00
Cl166  Cl    0.62246   0.59651   0.14572   0.00000  Uiso   1.00
Cl167  Cl    0.62246   0.40349   0.14572   0.00000  Uiso   1.00
Cl168  Cl    0.37754   0.59651   0.18761   0.00000  Uiso   1.00
Cu169  Cu    0.50000   0.54689   0.16667   0.00000  Uiso   1.00
Cu170  Cu    0.50000   0.45311   0.16667   0.00000  Uiso   1.00
N171   N     0.50000   0.61736   0.16667   0.00000  Uiso   1.00
N172   N     0.50000   0.38264   0.16667   0.00000  Uiso   1.00
O173   O     0.43988   0.53958   0.16666   0.00000  Uiso   1.00
O174   O     0.56012   0.46042   0.16667   0.00000  Uiso   1.00
O175   O     0.56012   0.53958   0.16667   0.00000  Uiso   1.00
O176   O     0.43988   0.46042   0.16666   0.00000  Uiso   1.00
O177   O     0.50000   0.53959   0.09613   0.00000  Uiso   1.00
O178   O     0.50000   0.46041   0.23720   0.00000  Uiso   1.00
O179   O     0.50000   0.53959   0.23720   0.00000  Uiso   1.00
O180   O     0.50000   0.46041   0.09613   0.00000  Uiso   1.00
Br181  Br    0.77206   0.38952   0.08681   0.00000  Uiso   1.00
Br182  Br    0.89460   0.61048   0.24652   0.00000  Uiso   1.00
Br183  Br    0.89461   0.38952   0.24652   0.00000  Uiso   1.00
Br184  Br    0.77206   0.61048   0.08681   0.00000  Uiso   1.00
C185   C     0.75425   0.50000   0.16990   0.00000  Uiso   1.00
C186   C     0.68770   0.54243   0.17151   0.00000  Uiso   1.00
C187   C     0.95716   0.50000   0.16073   0.00000  Uiso   1.00
C188   C     0.70950   0.50000   0.17260   0.00000  Uiso   1.00
C189   C     0.80825   0.35803   0.13401   0.00000  Uiso   1.00
C190   C     0.85842   0.64197   0.19933   0.00000  Uiso   1.00
C191   C     0.85842   0.35803   0.19933   0.00000  Uiso   1.00
C192   C     0.80825   0.64197   0.13401   0.00000  Uiso   1.00
C193   C     0.91242   0.50000   0.16343   0.00000  Uiso   1.00
C194   C     0.83326   0.50000   0.07361   0.00000  Uiso   1.00
C195   C     0.83340   0.50000   0.25972   0.00000  Uiso   1.00
C196   C     0.83331   0.50000   0.02187   0.00000  Uiso   1.00
C197   C     0.83336   0.50000   0.31147   0.00000  Uiso   1.00
C198   C     0.68770   0.45757   0.17151   0.00000  Uiso   1.00
C199   C     0.97896   0.54243   0.16182   0.00000  Uiso   1.00
C200   C     0.97896   0.45757   0.16183   0.00000  Uiso   1.00
Cl201  Cl    0.71088   0.40349   0.18762   0.00000  Uiso   1.00
Cl202  Cl    0.95579   0.59651   0.14572   0.00000  Uiso   1.00
Cl203  Cl    0.95579   0.40349   0.14572   0.00000  Uiso   1.00
Cl204  Cl    0.71088   0.59651   0.18761   0.00000  Uiso   1.00
Cu205  Cu    0.83333   0.54689   0.16667   0.00000  Uiso   1.00
Cu206  Cu    0.83333   0.45311   0.16667   0.00000  Uiso   1.00
N207   N     0.83333   0.61736   0.16667   0.00000  Uiso   1.00
N208   N     0.83333   0.38264   0.16667   0.00000  Uiso   1.00
O209   O     0.77321   0.53958   0.16666   0.00000  Uiso   1.00
O210   O     0.89345   0.46042   0.16667   0.00000  Uiso   1.00
O211   O     0.89345   0.53958   0.16667   0.00000  Uiso   1.00
O212   O     0.77321   0.46042   0.16666   0.00000  Uiso   1.00
O213   O     0.83333   0.53959   0.09613   0.00000  Uiso   1.00
O214   O     0.83333   0.46041   0.23720   0.00000  Uiso   1.00
O215   O     0.83333   0.53959   0.23720   0.00000  Uiso   1.00
O216   O     0.83333   0.46041   0.09613   0.00000  Uiso   1.00
Br217  Br    0.10539   0.72286   0.08681   0.00000  Uiso   1.00
Br218  Br    0.22794   0.94381   0.24652   0.00000  Uiso   1.00
Br219  Br    0.22794   0.72286   0.24652   0.00000  Uiso   1.00
Br220  Br    0.10539   0.94381   0.08681   0.00000  Uiso   1.00
C221   C     0.08758   0.83333   0.16990   0.00000  Uiso   1.00
C222   C     0.02104   0.87577   0.17151   0.00000  Uiso   1.00
C223   C     0.29050   0.83333   0.16073   0.00000  Uiso   1.00
C224   C     0.04284   0.83333   0.17260   0.00000  Uiso   1.00
C225   C     0.14158   0.69136   0.13401   0.00000  Uiso   1.00
C226   C     0.19175   0.97531   0.19933   0.00000  Uiso   1.00
C227   C     0.19175   0.69136   0.19933   0.00000  Uiso   1.00
C228   C     0.14158   0.97531   0.13401   0.00000  Uiso   1.00
C229   C     0.24575   0.83333   0.16343   0.00000  Uiso   1.00
C230   C     0.16660   0.83333   0.07361   0.00000  Uiso   1.00
C231   C     0.16674   0.83333   0.25972   0.00000  Uiso   1.00
C232   C     0.16664   0.83333   0.02187   0.00000  Uiso   1.00
C233   C     0.16669   0.83333   0.31147   0.00000  Uiso   1.00
C234   C     0.02104   0.79090   0.17151   0.00000  Uiso   1.00
C235   C     0.31230   0.87577   0.16182   0.00000  Uiso   1.00
C236   C     0.31230   0.79090   0.16183   0.00000  Uiso   1.00
Cl237  Cl    0.04421   0.73683   0.18762   0.00000  Uiso   1.00
Cl238  Cl    0.28912   0.92984   0.14572   0.00000  Uiso   1.00
Cl239  Cl    0.28912   0.73683   0.14572   0.00000  Uiso   1.00
Cl240  Cl    0.04421   0.92984   0.18761   0.00000  Uiso   1.00
Cu241  Cu    0.16667   0.88022   0.16667   0.00000  Uiso   1.00
Cu242  Cu    0.16667   0.78645   0.16667   0.00000  Uiso   1.00
N243   N     0.16667   0.95069   0.16667   0.00000  Uiso   1.00
N244   N     0.16667   0.71598   0.16667   0.00000  Uiso   1.00
O245   O     0.10655   0.87291   0.16666   0.00000  Uiso   1.00
O246   O     0.22679   0.79375   0.16667   0.00000  Uiso   1.00
O247   O     0.22679   0.87291   0.16667   0.00000  Uiso   1.00
O248   O     0.10655   0.79375   0.16666   0.00000  Uiso   1.00
O249   O     0.16667   0.87292   0.09613   0.00000  Uiso   1.00
O250   O     0.16667   0.79375   0.23720   0.00000  Uiso   1.00
O251   O     0.16667   0.87292   0.23720   0.00000  Uiso   1.00
O252   O     0.16667   0.79375   0.09613   0.00000  Uiso   1.00
Br253  Br    0.43873   0.72286   0.08681   0.00000  Uiso   1.00
Br254  Br    0.56127   0.94381   0.24652   0.00000  Uiso   1.00
Br255  Br    0.56127   0.72286   0.24652   0.00000  Uiso   1.00
Br256  Br    0.43873   0.94381   0.08681   0.00000  Uiso   1.00
C257   C     0.42091   0.83333   0.16990   0.00000  Uiso   1.00
C258   C     0.35437   0.87577   0.17151   0.00000  Uiso   1.00
C259   C     0.62383   0.83333   0.16073   0.00000  Uiso   1.00
C260   C     0.37617   0.83333   0.17260   0.00000  Uiso   1.00
C261   C     0.47491   0.69136   0.13401   0.00000  Uiso   1.00
C262   C     0.52509   0.97531   0.19933   0.00000  Uiso   1.00
C263   C     0.52509   0.69136   0.19933   0.00000  Uiso   1.00
C264   C     0.47491   0.97531   0.13401   0.00000  Uiso   1.00
C265   C     0.57909   0.83333   0.16343   0.00000  Uiso   1.00
C266   C     0.49993   0.83333   0.07361   0.00000  Uiso   1.00
C267   C     0.50007   0.83333   0.25972   0.00000  Uiso   1.00
C268   C     0.49998   0.83333   0.02187   0.00000  Uiso   1.00
C269   C     0.50002   0.83333   0.31147   0.00000  Uiso   1.00
C270   C     0.35437   0.79090   0.17151   0.00000  Uiso   1.00
C271   C     0.64563   0.87577   0.16182   0.00000  Uiso   1.00
C272   C     0.64563   0.79090   0.16183   0.00000  Uiso   1.00
Cl273  Cl    0.37754   0.73683   0.18762   0.00000  Uiso   1.00
Cl274  Cl    0.62246   0.92984   0.14572   0.00000  Uiso   1.00
Cl275  Cl    0.62246   0.73683   0.14572   0.00000  Uiso   1.00
Cl276  Cl    0.37754   0.92984   0.18761   0.00000  Uiso   1.00
Cu277  Cu    0.50000   0.88022   0.16667   0.00000  Uiso   1.00
Cu278  Cu    0.50000   0.78645   0.16667   0.00000  Uiso   1.00
N279   N     0.50000   0.95069   0.16667   0.00000  Uiso   1.00
N280   N     0.50000   0.71598   0.16667   0.00000  Uiso   1.00
O281   O     0.43988   0.87291   0.16666   0.00000  Uiso   1.00
O282   O     0.56012   0.79375   0.16667   0.00000  Uiso   1.00
O283   O     0.56012   0.87291   0.16667   0.00000  Uiso   1.00
O284   O     0.43988   0.79375   0.16666   0.00000  Uiso   1.00
O285   O     0.50000   0.87292   0.09613   0.00000  Uiso   1.00
O286   O     0.50000   0.79375   0.23720   0.00000  Uiso   1.00
O287   O     0.50000   0.87292   0.23720   0.00000  Uiso   1.00
O288   O     0.50000   0.79375   0.09613   0.00000  Uiso   1.00
Br289  Br    0.77206   0.72286   0.08681   0.00000  Uiso   1.00
Br290  Br    0.89460   0.94381   0.24652   0.00000  Uiso   1.00
Br291  Br    0.89461   0.72286   0.24652   0.00000  Uiso   1.00
Br292  Br    0.77206   0.94381   0.08681   0.00000  Uiso   1.00
C293   C     0.75425   0.83333   0.16990   0.00000  Uiso   1.00
C294   C     0.68770   0.87577   0.17151   0.00000  Uiso   1.00
C295   C     0.95716   0.83333   0.16073   0.00000  Uiso   1.00
C296   C     0.70950   0.83333   0.17260   0.00000  Uiso   1.00
C297   C     0.80825   0.69136   0.13401   0.00000  Uiso   1.00
C298   C     0.85842   0.97531   0.19933   0.00000  Uiso   1.00
C299   C     0.85842   0.69136   0.19933   0.00000  Uiso   1.00
C300   C     0.80825   0.97531   0.13401   0.00000  Uiso   1.00
C301   C     0.91242   0.83333   0.16343   0.00000  Uiso   1.00
C302   C     0.83326   0.83333   0.07361   0.00000  Uiso   1.00
C303   C     0.83340   0.83333   0.25972   0.00000  Uiso   1.00
C304   C     0.83331   0.83333   0.02187   0.00000  Uiso   1.00
C305   C     0.83336   0.83333   0.31147   0.00000  Uiso   1.00
C306   C     0.68770   0.79090   0.17151   0.00000  Uiso   1.00
C307   C     0.97896   0.87577   0.16182   0.00000  Uiso   1.00
C308   C     0.97896   0.79090   0.16183   0.00000  Uiso   1.00
Cl309  Cl    0.71088   0.73683   0.18762   0.00000  Uiso   1.00
Cl310  Cl    0.95579   0.92984   0.14572   0.00000  Uiso   1.00
Cl311  Cl    0.95579   0.73683   0.14572   0.00000  Uiso   1.00
Cl312  Cl    0.71088   0.92984   0.18761   0.00000  Uiso   1.00
Cu313  Cu    0.83333   0.88022   0.16667   0.00000  Uiso   1.00
Cu314  Cu    0.83333   0.78645   0.16667   0.00000  Uiso   1.00
N315   N     0.83333   0.95069   0.16667   0.00000  Uiso   1.00
N316   N     0.83333   0.71598   0.16667   0.00000  Uiso   1.00
O317   O     0.77321   0.87291   0.16666   0.00000  Uiso   1.00
O318   O     0.89345   0.79375   0.16667   0.00000  Uiso   1.00
O319   O     0.89345   0.87291   0.16667   0.00000  Uiso   1.00
O320   O     0.77321   0.79375   0.16666   0.00000  Uiso   1.00
O321   O     0.83333   0.87292   0.09613   0.00000  Uiso   1.00
O322   O     0.83333   0.79375   0.23720   0.00000  Uiso   1.00
O323   O     0.83333   0.87292   0.23720   0.00000  Uiso   1.00
O324   O     0.83333   0.79375   0.09613   0.00000  Uiso   1.00
Br325  Br    0.10539   0.05619   0.42015   0.00000  Uiso   1.00
Br326  Br    0.22794   0.27714   0.57985   0.00000  Uiso   1.00
Br327  Br    0.22794   0.05619   0.57985   0.00000  Uiso   1.00
Br328  Br    0.10539   0.27714   0.42015   0.00000  Uiso   1.00
C329   C     0.08758   0.16667   0.50324   0.00000  Uiso   1.00
C330   C     0.02104   0.20910   0.50484   0.00000  Uiso   1.00
C331   C     0.29050   0.16667   0.49406   0.00000  Uiso   1.00
C332   C     0.04284   0.16667   0.50594   0.00000  Uiso   1.00
C333   C     0.14158   0.02469   0.46734   0.00000  Uiso   1.00
C334   C     0.19175   0.30864   0.53266   0.00000  Uiso   1.00
C335   C     0.19175   0.02469   0.53266   0.00000  Uiso   1.00
C336   C     0.14158   0.30864   0.46734   0.00000  Uiso   1.00
C337   C     0.24575   0.16667   0.49676   0.00000  Uiso   1.00
C338   C     0.16660   0.16667   0.40694   0.00000  Uiso   1.00
C339   C     0.16674   0.16667   0.59306   0.00000  Uiso   1.00
C340   C     0.16664   0.16667   0.35520   0.00000  Uiso   1.00
C341   C     0.16669   0.16667   0.64480   0.00000  Uiso   1.00
C342   C     0.02104   0.12423   0.50484   0.00000  Uiso   1.00
C343   C     0.31230   0.20910   0.49516   0.00000  Uiso   1.00
C344   C     0.31230   0.12423   0.49516   0.00000  Uiso   1.00
Cl345  Cl    0.04421   0.07016   0.52095   0.00000  Uiso   1.00
Cl346  Cl    0.28912   0.26317   0.47905   0.00000  Uiso   1.00
Cl347  Cl    0.28912   0.07016   0.47905   0.00000  Uiso   1.00
Cl348  Cl    0.04421   0.26317   0.52095   0.00000  Uiso   1.00
Cu349  Cu    0.16667   0.21355   0.50000   0.00000  Uiso   1.00
Cu350  Cu    0.16667   0.11978   0.50000   0.00000  Uiso   1.00
N351   N     0.16667   0.28402   0.50000   0.00000  Uiso   1.00
N352   N     0.16667   0.04931   0.50000   0.00000  Uiso   1.00
O353   O     0.10655   0.20625   0.50000   0.00000  Uiso   1.00
O354   O     0.22679   0.12709   0.50000   0.00000  Uiso   1.00
O355   O     0.22679   0.20625   0.50000   0.00000  Uiso   1.00
O356   O     0.10655   0.12709   0.50000   0.00000  Uiso   1.00
O357   O     0.16667   0.20625   0.42946   0.00000  Uiso   1.00
O358   O     0.16667   0.12708   0.57054   0.00000  Uiso   1.00
O359   O     0.16667   0.20625   0.57054   0.00000  Uiso   1.00
O360   O     0.16667   0.12708   0.42946   0.00000  Uiso   1.00
Br361  Br    0.43873   0.05619   0.42015   0.00000  Uiso   1.00
Br362  Br    0.56127   0.27714   0.57985   0.00000  Uiso   1.00
Br363  Br    0.56127   0.05619   0.57985   0.00000  Uiso   1.00
Br364  Br    0.43873   0.27714   0.42015   0.00000  Uiso   1.00
C365   C     0.42091   0.16667   0.50324   0.00000  Uiso   1.00
C366   C     0.35437   0.20910   0.50484   0.00000  Uiso   1.00
C367   C     0.62383   0.16667   0.49406   0.00000  Uiso   1.00
C368   C     0.37617   0.16667   0.50594   0.00000  Uiso   1.00
C369   C     0.47491   0.02469   0.46734   0.00000  Uiso   1.00
C370   C     0.52509   0.30864   0.53266   0.00000  Uiso   1.00
C371   C     0.52509   0.02469   0.53266   0.00000  Uiso   1.00
C372   C     0.47491   0.30864   0.46734   0.00000  Uiso   1.00
C373   C     0.57909   0.16667   0.49676   0.00000  Uiso   1.00
C374   C     0.49993   0.16667   0.40694   0.00000  Uiso   1.00
C375   C     0.50007   0.16667   0.59306   0.00000  Uiso   1.00
C376   C     0.49998   0.16667   0.35520   0.00000  Uiso   1.00
C377   C     0.50002   0.16667   0.64480   0.00000  Uiso   1.00
C378   C     0.35437   0.12423   0.50484   0.00000  Uiso   1.00
C379   C     0.64563   0.20910   0.49516   0.00000  Uiso   1.00
C380   C     0.64563   0.12423   0.49516   0.00000  Uiso   1.00
Cl381  Cl    0.37754   0.07016   0.52095   0.00000  Uiso   1.00
Cl382  Cl    0.62246   0.26317   0.47905   0.00000  Uiso   1.00
Cl383  Cl    0.62246   0.07016   0.47905   0.00000  Uiso   1.00
Cl384  Cl    0.37754   0.26317   0.52095   0.00000  Uiso   1.00
Cu385  Cu    0.50000   0.21355   0.50000   0.00000  Uiso   1.00
Cu386  Cu    0.50000   0.11978   0.50000   0.00000  Uiso   1.00
N387   N     0.50000   0.28402   0.50000   0.00000  Uiso   1.00
N388   N     0.50000   0.04931   0.50000   0.00000  Uiso   1.00
O389   O     0.43988   0.20625   0.50000   0.00000  Uiso   1.00
O390   O     0.56012   0.12709   0.50000   0.00000  Uiso   1.00
O391   O     0.56012   0.20625   0.50000   0.00000  Uiso   1.00
O392   O     0.43988   0.12709   0.50000   0.00000  Uiso   1.00
O393   O     0.50000   0.20625   0.42946   0.00000  Uiso   1.00
O394   O     0.50000   0.12708   0.57054   0.00000  Uiso   1.00
O395   O     0.50000   0.20625   0.57054   0.00000  Uiso   1.00
O396   O     0.50000   0.12708   0.42946   0.00000  Uiso   1.00
Br397  Br    0.77206   0.05619   0.42015   0.00000  Uiso   1.00
Br398  Br    0.89460   0.27714   0.57985   0.00000  Uiso   1.00
Br399  Br    0.89461   0.05619   0.57985   0.00000  Uiso   1.00
Br400  Br    0.77206   0.27714   0.42015   0.00000  Uiso   1.00
C401   C     0.75425   0.16667   0.50324   0.00000  Uiso   1.00
C402   C     0.68770   0.20910   0.50484   0.00000  Uiso   1.00
C403   C     0.95716   0.16667   0.49406   0.00000  Uiso   1.00
C404   C     0.70950   0.16667   0.50594   0.00000  Uiso   1.00
C405   C     0.80825   0.02469   0.46734   0.00000  Uiso   1.00
C406   C     0.85842   0.30864   0.53266   0.00000  Uiso   1.00
C407   C     0.85842   0.02469   0.53266   0.00000  Uiso   1.00
C408   C     0.80825   0.30864   0.46734   0.00000  Uiso   1.00
C409   C     0.91242   0.16667   0.49676   0.00000  Uiso   1.00
C410   C     0.83326   0.16667   0.40694   0.00000  Uiso   1.00
C411   C     0.83340   0.16667   0.59306   0.00000  Uiso   1.00
C412   C     0.83331   0.16667   0.35520   0.00000  Uiso   1.00
C413   C     0.83336   0.16667   0.64480   0.00000  Uiso   1.00
C414   C     0.68770   0.12423   0.50484   0.00000  Uiso   1.00
C415   C     0.97896   0.20910   0.49516   0.00000  Uiso   1.00
C416   C     0.97896   0.12423   0.49516   0.00000  Uiso   1.00
Cl417  Cl    0.71088   0.07016   0.52095   0.00000  Uiso   1.00
Cl418  Cl    0.95579   0.26317   0.47905   0.00000  Uiso   1.00
Cl419  Cl    0.95579   0.07016   0.47905   0.00000  Uiso   1.00
Cl420  Cl    0.71088   0.26317   0.52095   0.00000  Uiso   1.00
Cu421  Cu    0.83333   0.21355   0.50000   0.00000  Uiso   1.00
Cu422  Cu    0.83333   0.11978   0.50000   0.00000  Uiso   1.00
N423   N     0.83333   0.28402   0.50000   0.00000  Uiso   1.00
N424   N     0.83333   0.04931   0.50000   0.00000  Uiso   1.00
O425   O     0.77321   0.20625   0.50000   0.00000  Uiso   1.00
O426   O     0.89345   0.12709   0.50000   0.00000  Uiso   1.00
O427   O     0.89345   0.20625   0.50000   0.00000  Uiso   1.00
O428   O     0.77321   0.12709   0.50000   0.00000  Uiso   1.00
O429   O     0.83333   0.20625   0.42946   0.00000  Uiso   1.00
O430   O     0.83333   0.12708   0.57054   0.00000  Uiso   1.00
O431   O     0.83333   0.20625   0.57054   0.00000  Uiso   1.00
O432   O     0.83333   0.12708   0.42946   0.00000  Uiso   1.00
Br433  Br    0.10539   0.38952   0.42015   0.00000  Uiso   1.00
Br434  Br    0.22794   0.61048   0.57985   0.00000  Uiso   1.00
Br435  Br    0.22794   0.38952   0.57985   0.00000  Uiso   1.00
Br436  Br    0.10539   0.61048   0.42015   0.00000  Uiso   1.00
C437   C     0.08758   0.50000   0.50324   0.00000  Uiso   1.00
C438   C     0.02104   0.54243   0.50484   0.00000  Uiso   1.00
C439   C     0.29050   0.50000   0.49406   0.00000  Uiso   1.00
C440   C     0.04284   0.50000   0.50594   0.00000  Uiso   1.00
C441   C     0.14158   0.35803   0.46734   0.00000  Uiso   1.00
C442   C     0.19175   0.64197   0.53266   0.00000  Uiso   1.00
C443   C     0.19175   0.35803   0.53266   0.00000  Uiso   1.00
C444   C     0.14158   0.64197   0.46734   0.00000  Uiso   1.00
C445   C     0.24575   0.50000   0.49676   0.00000  Uiso   1.00
C446   C     0.16660   0.50000   0.40694   0.00000  Uiso   1.00
C447   C     0.16674   0.50000   0.59306   0.00000  Uiso   1.00
C448   C     0.16664   0.50000   0.35520   0.00000  Uiso   1.00
C449   C     0.16669   0.50000   0.64480   0.00000  Uiso   1.00
C450   C     0.02104   0.45757   0.50484   0.00000  Uiso   1.00
C451   C     0.31230   0.54243   0.49516   0.00000  Uiso   1.00
C452   C     0.31230   0.45757   0.49516   0.00000  Uiso   1.00
Cl453  Cl    0.04421   0.40349   0.52095   0.00000  Uiso   1.00
Cl454  Cl    0.28912   0.59651   0.47905   0.00000  Uiso   1.00
Cl455  Cl    0.28912   0.40349   0.47905   0.00000  Uiso   1.00
Cl456  Cl    0.04421   0.59651   0.52095   0.00000  Uiso   1.00
Cu457  Cu    0.16667   0.54689   0.50000   0.00000  Uiso   1.00
Cu458  Cu    0.16667   0.45311   0.50000   0.00000  Uiso   1.00
N459   N     0.16667   0.61736   0.50000   0.00000  Uiso   1.00
N460   N     0.16667   0.38264   0.50000   0.00000  Uiso   1.00
O461   O     0.10655   0.53958   0.50000   0.00000  Uiso   1.00
O462   O     0.22679   0.46042   0.50000   0.00000  Uiso   1.00
O463   O     0.22679   0.53958   0.50000   0.00000  Uiso   1.00
O464   O     0.10655   0.46042   0.50000   0.00000  Uiso   1.00
O465   O     0.16667   0.53959   0.42946   0.00000  Uiso   1.00
O466   O     0.16667   0.46041   0.57054   0.00000  Uiso   1.00
O467   O     0.16667   0.53959   0.57054   0.00000  Uiso   1.00
O468   O     0.16667   0.46041   0.42946   0.00000  Uiso   1.00
Br469  Br    0.43873   0.38952   0.42015   0.00000  Uiso   1.00
Br470  Br    0.56127   0.61048   0.57985   0.00000  Uiso   1.00
Br471  Br    0.56127   0.38952   0.57985   0.00000  Uiso   1.00
Br472  Br    0.43873   0.61048   0.42015   0.00000  Uiso   1.00
C473   C     0.42091   0.50000   0.50324   0.00000  Uiso   1.00
C474   C     0.35437   0.54243   0.50484   0.00000  Uiso   1.00
C475   C     0.62383   0.50000   0.49406   0.00000  Uiso   1.00
C476   C     0.37617   0.50000   0.50594   0.00000  Uiso   1.00
C477   C     0.47491   0.35803   0.46734   0.00000  Uiso   1.00
C478   C     0.52509   0.64197   0.53266   0.00000  Uiso   1.00
C479   C     0.52509   0.35803   0.53266   0.00000  Uiso   1.00
C480   C     0.47491   0.64197   0.46734   0.00000  Uiso   1.00
C481   C     0.57909   0.50000   0.49676   0.00000  Uiso   1.00
C482   C     0.49993   0.50000   0.40694   0.00000  Uiso   1.00
C483   C     0.50007   0.50000   0.59306   0.00000  Uiso   1.00
C484   C     0.49998   0.50000   0.35520   0.00000  Uiso   1.00
C485   C     0.50002   0.50000   0.64480   0.00000  Uiso   1.00
C486   C     0.35437   0.45757   0.50484   0.00000  Uiso   1.00
C487   C     0.64563   0.54243   0.49516   0.00000  Uiso   1.00
C488   C     0.64563   0.45757   0.49516   0.00000  Uiso   1.00
Cl489  Cl    0.37754   0.40349   0.52095   0.00000  Uiso   1.00
Cl490  Cl    0.62246   0.59651   0.47905   0.00000  Uiso   1.00
Cl491  Cl    0.62246   0.40349   0.47905   0.00000  Uiso   1.00
Cl492  Cl    0.37754   0.59651   0.52095   0.00000  Uiso   1.00
Cu493  Cu    0.50000   0.54689   0.50000   0.00000  Uiso   1.00
Cu494  Cu    0.50000   0.45311   0.50000   0.00000  Uiso   1.00
N495   N     0.50000   0.61736   0.50000   0.00000  Uiso   1.00
N496   N     0.50000   0.38264   0.50000   0.00000  Uiso   1.00
O497   O     0.43988   0.53958   0.50000   0.00000  Uiso   1.00
O498   O     0.56012   0.46042   0.50000   0.00000  Uiso   1.00
O499   O     0.56012   0.53958   0.50000   0.00000  Uiso   1.00
O500   O     0.43988   0.46042   0.50000   0.00000  Uiso   1.00
O501   O     0.50000   0.53959   0.42946   0.00000  Uiso   1.00
O502   O     0.50000   0.46041   0.57054   0.00000  Uiso   1.00
O503   O     0.50000   0.53959   0.57054   0.00000  Uiso   1.00
O504   O     0.50000   0.46041   0.42946   0.00000  Uiso   1.00
Br505  Br    0.77206   0.38952   0.42015   0.00000  Uiso   1.00
Br506  Br    0.89460   0.61048   0.57985   0.00000  Uiso   1.00
Br507  Br    0.89461   0.38952   0.57985   0.00000  Uiso   1.00
Br508  Br    0.77206   0.61048   0.42015   0.00000  Uiso   1.00
C509   C     0.75425   0.50000   0.50324   0.00000  Uiso   1.00
C510   C     0.68770   0.54243   0.50484   0.00000  Uiso   1.00
C511   C     0.95716   0.50000   0.49406   0.00000  Uiso   1.00
C512   C     0.70950   0.50000   0.50594   0.00000  Uiso   1.00
C513   C     0.80825   0.35803   0.46734   0.00000  Uiso   1.00
C514   C     0.85842   0.64197   0.53266   0.00000  Uiso   1.00
C515   C     0.85842   0.35803   0.53266   0.00000  Uiso   1.00
C516   C     0.80825   0.64197   0.46734   0.00000  Uiso   1.00
C517   C     0.91242   0.50000   0.49676   0.00000  Uiso   1.00
C518   C     0.83326   0.50000   0.40694   0.00000  Uiso   1.00
C519   C     0.83340   0.50000   0.59306   0.00000  Uiso   1.00
C520   C     0.83331   0.50000   0.35520   0.00000  Uiso   1.00
C521   C     0.83336   0.50000   0.64480   0.00000  Uiso   1.00
C522   C     0.68770   0.45757   0.50484   0.00000  Uiso   1.00
C523   C     0.97896   0.54243   0.49516   0.00000  Uiso   1.00
C524   C     0.97896   0.45757   0.49516   0.00000  Uiso   1.00
Cl525  Cl    0.71088   0.40349   0.52095   0.00000  Uiso   1.00
Cl526  Cl    0.95579   0.59651   0.47905   0.00000  Uiso   1.00
Cl527  Cl    0.95579   0.40349   0.47905   0.00000  Uiso   1.00
Cl528  Cl    0.71088   0.59651   0.52095   0.00000  Uiso   1.00
Cu529  Cu    0.83333   0.54689   0.50000   0.00000  Uiso   1.00
Cu530  Cu    0.83333   0.45311   0.50000   0.00000  Uiso   1.00
N531   N     0.83333   0.61736   0.50000   0.00000  Uiso   1.00
N532   N     0.83333   0.38264   0.50000   0.00000  Uiso   1.00
O533   O     0.77321   0.53958   0.50000   0.00000  Uiso   1.00
O534   O     0.89345   0.46042   0.50000   0.00000  Uiso   1.00
O535   O     0.89345   0.53958   0.50000   0.00000  Uiso   1.00
O536   O     0.77321   0.46042   0.50000   0.00000  Uiso   1.00
O537   O     0.83333   0.53959   0.42946   0.00000  Uiso   1.00
O538   O     0.83333   0.46041   0.57054   0.00000  Uiso   1.00
O539   O     0.83333   0.53959   0.57054   0.00000  Uiso   1.00
O540   O     0.83333   0.46041   0.42946   0.00000  Uiso   1.00
Br541  Br    0.10539   0.72286   0.42015   0.00000  Uiso   1.00
Br542  Br    0.22794   0.94381   0.57985   0.00000  Uiso   1.00
Br543  Br    0.22794   0.72286   0.57985   0.00000  Uiso   1.00
Br544  Br    0.10539   0.94381   0.42015   0.00000  Uiso   1.00
C545   C     0.08758   0.83333   0.50324   0.00000  Uiso   1.00
C546   C     0.02104   0.87577   0.50484   0.00000  Uiso   1.00
C547   C     0.29050   0.83333   0.49406   0.00000  Uiso   1.00
C548   C     0.04284   0.83333   0.50594   0.00000  Uiso   1.00
C549   C     0.14158   0.69136   0.46734   0.00000  Uiso   1.00
C550   C     0.19175   0.97531   0.53266   0.00000  Uiso   1.00
C551   C     0.19175   0.69136   0.53266   0.00000  Uiso   1.00
C552   C     0.14158   0.97531   0.46734   0.00000  Uiso   1.00
C553   C     0.24575   0.83333   0.49676   0.00000  Uiso   1.00
C554   C     0.16660   0.83333   0.40694   0.00000  Uiso   1.00
C555   C     0.16674   0.83333   0.59306   0.00000  Uiso   1.00
C556   C     0.16664   0.83333   0.35520   0.00000  Uiso   1.00
C557   C     0.16669   0.83333   0.64480   0.00000  Uiso   1.00
C558   C     0.02104   0.79090   0.50484   0.00000  Uiso   1.00
C559   C     0.31230   0.87577   0.49516   0.00000  Uiso   1.00
C560   C     0.31230   0.79090   0.49516   0.00000  Uiso   1.00
Cl561  Cl    0.04421   0.73683   0.52095   0.00000  Uiso   1.00
Cl562  Cl    0.28912   0.92984   0.47905   0.00000  Uiso   1.00
Cl563  Cl    0.28912   0.73683   0.47905   0.00000  Uiso   1.00
Cl564  Cl    0.04421   0.92984   0.52095   0.00000  Uiso   1.00
Cu565  Cu    0.16667   0.88022   0.50000   0.00000  Uiso   1.00
Cu566  Cu    0.16667   0.78645   0.50000   0.00000  Uiso   1.00
N567   N     0.16667   0.95069   0.50000   0.00000  Uiso   1.00
N568   N     0.16667   0.71598   0.50000   0.00000  Uiso   1.00
O569   O     0.10655   0.87291   0.50000   0.00000  Uiso   1.00
O570   O     0.22679   0.79375   0.50000   0.00000  Uiso   1.00
O571   O     0.22679   0.87291   0.50000   0.00000  Uiso   1.00
O572   O     0.10655   0.79375   0.50000   0.00000  Uiso   1.00
O573   O     0.16667   0.87292   0.42946   0.00000  Uiso   1.00
O574   O     0.16667   0.79375   0.57054   0.00000  Uiso   1.00
O575   O     0.16667   0.87292   0.57054   0.00000  Uiso   1.00
O576   O     0.16667   0.79375   0.42946   0.00000  Uiso   1.00
Br577  Br    0.43873   0.72286   0.42015   0.00000  Uiso   1.00
Br578  Br    0.56127   0.94381   0.57985   0.00000  Uiso   1.00
Br579  Br    0.56127   0.72286   0.57985   0.00000  Uiso   1.00
Br580  Br    0.43873   0.94381   0.42015   0.00000  Uiso   1.00
C581   C     0.42091   0.83333   0.50324   0.00000  Uiso   1.00
C582   C     0.35437   0.87577   0.50484   0.00000  Uiso   1.00
C583   C     0.62383   0.83333   0.49406   0.00000  Uiso   1.00
C584   C     0.37617   0.83333   0.50594   0.00000  Uiso   1.00
C585   C     0.47491   0.69136   0.46734   0.00000  Uiso   1.00
C586   C     0.52509   0.97531   0.53266   0.00000  Uiso   1.00
C587   C     0.52509   0.69136   0.53266   0.00000  Uiso   1.00
C588   C     0.47491   0.97531   0.46734   0.00000  Uiso   1.00
C589   C     0.57909   0.83333   0.49676   0.00000  Uiso   1.00
C590   C     0.49993   0.83333   0.40694   0.00000  Uiso   1.00
C591   C     0.50007   0.83333   0.59306   0.00000  Uiso   1.00
C592   C     0.49998   0.83333   0.35520   0.00000  Uiso   1.00
C593   C     0.50002   0.83333   0.64480   0.00000  Uiso   1.00
C594   C     0.35437   0.79090   0.50484   0.00000  Uiso   1.00
C595   C     0.64563   0.87577   0.49516   0.00000  Uiso   1.00
C596   C     0.64563   0.79090   0.49516   0.00000  Uiso   1.00
Cl597  Cl    0.37754   0.73683   0.52095   0.00000  Uiso   1.00
Cl598  Cl    0.62246   0.92984   0.47905   0.00000  Uiso   1.00
Cl599  Cl    0.62246   0.73683   0.47905   0.00000  Uiso   1.00
Cl600  Cl    0.37754   0.92984   0.52095   0.00000  Uiso   1.00
Cu601  Cu    0.50000   0.88022   0.50000   0.00000  Uiso   1.00
Cu602  Cu    0.50000   0.78645   0.50000   0.00000  Uiso   1.00
N603   N     0.50000   0.95069   0.50000   0.00000  Uiso   1.00
N604   N     0.50000   0.71598   0.50000   0.00000  Uiso   1.00
O605   O     0.43988   0.87291   0.50000   0.00000  Uiso   1.00
O606   O     0.56012   0.79375   0.50000   0.00000  Uiso   1.00
O607   O     0.56012   0.87291   0.50000   0.00000  Uiso   1.00
O608   O     0.43988   0.79375   0.50000   0.00000  Uiso   1.00
O609   O     0.50000   0.87292   0.42946   0.00000  Uiso   1.00
O610   O     0.50000   0.79375   0.57054   0.00000  Uiso   1.00
O611   O     0.50000   0.87292   0.57054   0.00000  Uiso   1.00
O612   O     0.50000   0.79375   0.42946   0.00000  Uiso   1.00
Br613  Br    0.77206   0.72286   0.42015   0.00000  Uiso   1.00
Br614  Br    0.89460   0.94381   0.57985   0.00000  Uiso   1.00
Br615  Br    0.89461   0.72286   0.57985   0.00000  Uiso   1.00
Br616  Br    0.77206   0.94381   0.42015   0.00000  Uiso   1.00
C617   C     0.75425   0.83333   0.50324   0.00000  Uiso   1.00
C618   C     0.68770   0.87577   0.50484   0.00000  Uiso   1.00
C619   C     0.95716   0.83333   0.49406   0.00000  Uiso   1.00
C620   C     0.70950   0.83333   0.50594   0.00000  Uiso   1.00
C621   C     0.80825   0.69136   0.46734   0.00000  Uiso   1.00
C622   C     0.85842   0.97531   0.53266   0.00000  Uiso   1.00
C623   C     0.85842   0.69136   0.53266   0.00000  Uiso   1.00
C624   C     0.80825   0.97531   0.46734   0.00000  Uiso   1.00
C625   C     0.91242   0.83333   0.49676   0.00000  Uiso   1.00
C626   C     0.83326   0.83333   0.40694   0.00000  Uiso   1.00
C627   C     0.83340   0.83333   0.59306   0.00000  Uiso   1.00
C628   C     0.83331   0.83333   0.35520   0.00000  Uiso   1.00
C629   C     0.83336   0.83333   0.64480   0.00000  Uiso   1.00
C630   C     0.68770   0.79090   0.50484   0.00000  Uiso   1.00
C631   C     0.97896   0.87577   0.49516   0.00000  Uiso   1.00
C632   C     0.97896   0.79090   0.49516   0.00000  Uiso   1.00
Cl633  Cl    0.71088   0.73683   0.52095   0.00000  Uiso   1.00
Cl634  Cl    0.95579   0.92984   0.47905   0.00000  Uiso   1.00
Cl635  Cl    0.95579   0.73683   0.47905   0.00000  Uiso   1.00
Cl636  Cl    0.71088   0.92984   0.52095   0.00000  Uiso   1.00
Cu637  Cu    0.83333   0.88022   0.50000   0.00000  Uiso   1.00
Cu638  Cu    0.83333   0.78645   0.50000   0.00000  Uiso   1.00
N639   N     0.83333   0.95069   0.50000   0.00000  Uiso   1.00
N640   N     0.83333   0.71598   0.50000   0.00000  Uiso   1.00
O641   O     0.77321   0.87291   0.50000   0.00000  Uiso   1.00
O642   O     0.89345   0.79375   0.50000   0.00000  Uiso   1.00
O643   O     0.89345   0.87291   0.50000   0.00000  Uiso   1.00
O644   O     0.77321   0.79375   0.50000   0.00000  Uiso   1.00
O645   O     0.83333   0.87292   0.42946   0.00000  Uiso   1.00
O646   O     0.83333   0.79375   0.57054   0.00000  Uiso   1.00
O647   O     0.83333   0.87292   0.57054   0.00000  Uiso   1.00
O648   O     0.83333   0.79375   0.42946   0.00000  Uiso   1.00
Br649  Br    0.10539   0.05619   0.75348   0.00000  Uiso   1.00
Br650  Br    0.22794   0.27714   0.91319   0.00000  Uiso   1.00
Br651  Br    0.22794   0.05619   0.91319   0.00000  Uiso   1.00
Br652  Br    0.10539   0.27714   0.75348   0.00000  Uiso   1.00
C653   C     0.08758   0.16667   0.83657   0.00000  Uiso   1.00
C654   C     0.02104   0.20910   0.83817   0.00000  Uiso   1.00
C655   C     0.29050   0.16667   0.82740   0.00000  Uiso   1.00
C656   C     0.04284   0.16667   0.83927   0.00000  Uiso   1.00
C657   C     0.14158   0.02469   0.80067   0.00000  Uiso   1.00
C658   C     0.19175   0.30864   0.86599   0.00000  Uiso   1.00
C659   C     0.19175   0.02469   0.86599   0.00000  Uiso   1.00
C660   C     0.14158   0.30864   0.80067   0.00000  Uiso   1.00
C661   C     0.24575   0.16667   0.83010   0.00000  Uiso   1.00
C662   C     0.16660   0.16667   0.74028   0.00000  Uiso   1.00
C663   C     0.16674   0.16667   0.92639   0.00000  Uiso   1.00
C664   C     0.16664   0.16667   0.68853   0.00000  Uiso   1.00
C665   C     0.16669   0.16667   0.97813   0.00000  Uiso   1.00
C666   C     0.02104   0.12423   0.83818   0.00000  Uiso   1.00
C667   C     0.31230   0.20910   0.82849   0.00000  Uiso   1.00
C668   C     0.31230   0.12423   0.82849   0.00000  Uiso   1.00
Cl669  Cl    0.04421   0.07016   0.85428   0.00000  Uiso   1.00
Cl670  Cl    0.28912   0.26317   0.81238   0.00000  Uiso   1.00
Cl671  Cl    0.28912   0.07016   0.81239   0.00000  Uiso   1.00
Cl672  Cl    0.04421   0.26317   0.85428   0.00000  Uiso   1.00
Cu673  Cu    0.16667   0.21355   0.83333   0.00000  Uiso   1.00
Cu674  Cu    0.16667   0.11978   0.83333   0.00000  Uiso   1.00
N675   N     0.16667   0.28402   0.83333   0.00000  Uiso   1.00
N676   N     0.16667   0.04931   0.83333   0.00000  Uiso   1.00
O677   O     0.10655   0.20625   0.83333   0.00000  Uiso   1.00
O678   O     0.22679   0.12709   0.83334   0.00000  Uiso   1.00
O679   O     0.22679   0.20625   0.83334   0.00000  Uiso   1.00
O680   O     0.10655   0.12709   0.83333   0.00000  Uiso   1.00
O681   O     0.16667   0.20625   0.76280   0.00000  Uiso   1.00
O682   O     0.16667   0.12708   0.90387   0.00000  Uiso   1.00
O683   O     0.16667   0.20625   0.90387   0.00000  Uiso   1.00
O684   O     0.16667   0.12708   0.76280   0.00000  Uiso   1.00
Br685  Br    0.43873   0.05619   0.75348   0.00000  Uiso   1.00
Br686  Br    0.56127   0.27714   0.91319   0.00000  Uiso   1.00
Br687  Br    0.56127   0.05619   0.91319   0.00000  Uiso   1.00
Br688  Br    0.43873   0.27714   0.75348   0.00000  Uiso   1.00
C689   C     0.42091   0.16667   0.83657   0.00000  Uiso   1.00
C690   C     0.35437   0.20910   0.83817   0.00000  Uiso   1.00
C691   C     0.62383   0.16667   0.82740   0.00000  Uiso   1.00
C692   C     0.37617   0.16667   0.83927   0.00000  Uiso   1.00
C693   C     0.47491   0.02469   0.80067   0.00000  Uiso   1.00
C694   C     0.52509   0.30864   0.86599   0.00000  Uiso   1.00
C695   C     0.52509   0.02469   0.86599   0.00000  Uiso   1.00
C696   C     0.47491   0.30864   0.80067   0.00000  Uiso   1.00
C697   C     0.57909   0.16667   0.83010   0.00000  Uiso   1.00
C698   C     0.49993   0.16667   0.74028   0.00000  Uiso   1.00
C699   C     0.50007   0.16667   0.92639   0.00000  Uiso   1.00
C700   C     0.49998   0.16667   0.68853   0.00000  Uiso   1.00
C701   C     0.50002   0.16667   0.97813   0.00000  Uiso   1.00
C702   C     0.35437   0.12423   0.83818   0.00000  Uiso   1.00
C703   C     0.64563   0.20910   0.82849   0.00000  Uiso   1.00
C704   C     0.64563   0.12423   0.82849   0.00000  Uiso   1.00
Cl705  Cl    0.37754   0.07016   0.85428   0.00000  Uiso   1.00
Cl706  Cl    0.62246   0.26317   0.81238   0.00000  Uiso   1.00
Cl707  Cl    0.62246   0.07016   0.81239   0.00000  Uiso   1.00
Cl708  Cl    0.37754   0.26317   0.85428   0.00000  Uiso   1.00
Cu709  Cu    0.50000   0.21355   0.83333   0.00000  Uiso   1.00
Cu710  Cu    0.50000   0.11978   0.83333   0.00000  Uiso   1.00
N711   N     0.50000   0.28402   0.83333   0.00000  Uiso   1.00
N712   N     0.50000   0.04931   0.83333   0.00000  Uiso   1.00
O713   O     0.43988   0.20625   0.83333   0.00000  Uiso   1.00
O714   O     0.56012   0.12709   0.83334   0.00000  Uiso   1.00
O715   O     0.56012   0.20625   0.83334   0.00000  Uiso   1.00
O716   O     0.43988   0.12709   0.83333   0.00000  Uiso   1.00
O717   O     0.50000   0.20625   0.76280   0.00000  Uiso   1.00
O718   O     0.50000   0.12708   0.90387   0.00000  Uiso   1.00
O719   O     0.50000   0.20625   0.90387   0.00000  Uiso   1.00
O720   O     0.50000   0.12708   0.76280   0.00000  Uiso   1.00
Br721  Br    0.77206   0.05619   0.75348   0.00000  Uiso   1.00
Br722  Br    0.89460   0.27714   0.91319   0.00000  Uiso   1.00
Br723  Br    0.89461   0.05619   0.91319   0.00000  Uiso   1.00
Br724  Br    0.77206   0.27714   0.75348   0.00000  Uiso   1.00
C725   C     0.75425   0.16667   0.83657   0.00000  Uiso   1.00
C726   C     0.68770   0.20910   0.83817   0.00000  Uiso   1.00
C727   C     0.95716   0.16667   0.82740   0.00000  Uiso   1.00
C728   C     0.70950   0.16667   0.83927   0.00000  Uiso   1.00
C729   C     0.80825   0.02469   0.80067   0.00000  Uiso   1.00
C730   C     0.85842   0.30864   0.86599   0.00000  Uiso   1.00
C731   C     0.85842   0.02469   0.86599   0.00000  Uiso   1.00
C732   C     0.80825   0.30864   0.80067   0.00000  Uiso   1.00
C733   C     0.91242   0.16667   0.83010   0.00000  Uiso   1.00
C734   C     0.83326   0.16667   0.74028   0.00000  Uiso   1.00
C735   C     0.83340   0.16667   0.92639   0.00000  Uiso   1.00
C736   C     0.83331   0.16667   0.68853   0.00000  Uiso   1.00
C737   C     0.83336   0.16667   0.97813   0.00000  Uiso   1.00
C738   C     0.68770   0.12423   0.83818   0.00000  Uiso   1.00
C739   C     0.97896   0.20910   0.82849   0.00000  Uiso   1.00
C740   C     0.97896   0.12423   0.82849   0.00000  Uiso   1.00
Cl741  Cl    0.71088   0.07016   0.85428   0.00000  Uiso   1.00
Cl742  Cl    0.95579   0.26317   0.81238   0.00000  Uiso   1.00
Cl743  Cl    0.95579   0.07016   0.81239   0.00000  Uiso   1.00
Cl744  Cl    0.71088   0.26317   0.85428   0.00000  Uiso   1.00
Cu745  Cu    0.83333   0.21355   0.83333   0.00000  Uiso   1.00
Cu746  Cu    0.83333   0.11978   0.83333   0.00000  Uiso   1.00
N747   N     0.83333   0.28402   0.83333   0.00000  Uiso   1.00
N748   N     0.83333   0.04931   0.83333   0.00000  Uiso   1.00
O749   O     0.77321   0.20625   0.83333   0.00000  Uiso   1.00
O750   O     0.89345   0.12709   0.83334   0.00000  Uiso   1.00
O751   O     0.89345   0.20625   0.83334   0.00000  Uiso   1.00
O752   O     0.77321   0.12709   0.83333   0.00000  Uiso   1.00
O753   O     0.83333   0.20625   0.76280   0.00000  Uiso   1.00
O754   O     0.83333   0.12708   0.90387   0.00000  Uiso   1.00
O755   O     0.83333   0.20625   0.90387   0.00000  Uiso   1.00
O756   O     0.83333   0.12708   0.76280   0.00000  Uiso   1.00
Br757  Br    0.10539   0.38952   0.75348   0.00000  Uiso   1.00
Br758  Br    0.22794   0.61048   0.91319   0.00000  Uiso   1.00
Br759  Br    0.22794   0.38952   0.91319   0.00000  Uiso   1.00
Br760  Br    0.10539   0.61048   0.75348   0.00000  Uiso   1.00
C761   C     0.08758   0.50000   0.83657   0.00000  Uiso   1.00
C762   C     0.02104   0.54243   0.83817   0.00000  Uiso   1.00
C763   C     0.29050   0.50000   0.82740   0.00000  Uiso   1.00
C764   C     0.04284   0.50000   0.83927   0.00000  Uiso   1.00
C765   C     0.14158   0.35803   0.80067   0.00000  Uiso   1.00
C766   C     0.19175   0.64197   0.86599   0.00000  Uiso   1.00
C767   C     0.19175   0.35803   0.86599   0.00000  Uiso   1.00
C768   C     0.14158   0.64197   0.80067   0.00000  Uiso   1.00
C769   C     0.24575   0.50000   0.83010   0.00000  Uiso   1.00
C770   C     0.16660   0.50000   0.74028   0.00000  Uiso   1.00
C771   C     0.16674   0.50000   0.92639   0.00000  Uiso   1.00
C772   C     0.16664   0.50000   0.68853   0.00000  Uiso   1.00
C773   C     0.16669   0.50000   0.97813   0.00000  Uiso   1.00
C774   C     0.02104   0.45757   0.83818   0.00000  Uiso   1.00
C775   C     0.31230   0.54243   0.82849   0.00000  Uiso   1.00
C776   C     0.31230   0.45757   0.82849   0.00000  Uiso   1.00
Cl777  Cl    0.04421   0.40349   0.85428   0.00000  Uiso   1.00
Cl778  Cl    0.28912   0.59651   0.81238   0.00000  Uiso   1.00
Cl779  Cl    0.28912   0.40349   0.81239   0.00000  Uiso   1.00
Cl780  Cl    0.04421   0.59651   0.85428   0.00000  Uiso   1.00
Cu781  Cu    0.16667   0.54689   0.83333   0.00000  Uiso   1.00
Cu782  Cu    0.16667   0.45311   0.83333   0.00000  Uiso   1.00
N783   N     0.16667   0.61736   0.83333   0.00000  Uiso   1.00
N784   N     0.16667   0.38264   0.83333   0.00000  Uiso   1.00
O785   O     0.10655   0.53958   0.83333   0.00000  Uiso   1.00
O786   O     0.22679   0.46042   0.83334   0.00000  Uiso   1.00
O787   O     0.22679   0.53958   0.83334   0.00000  Uiso   1.00
O788   O     0.10655   0.46042   0.83333   0.00000  Uiso   1.00
O789   O     0.16667   0.53959   0.76280   0.00000  Uiso   1.00
O790   O     0.16667   0.46041   0.90387   0.00000  Uiso   1.00
O791   O     0.16667   0.53959   0.90387   0.00000  Uiso   1.00
O792   O     0.16667   0.46041   0.76280   0.00000  Uiso   1.00
Br793  Br    0.43873   0.38952   0.75348   0.00000  Uiso   1.00
Br794  Br    0.56127   0.61048   0.91319   0.00000  Uiso   1.00
Br795  Br    0.56127   0.38952   0.91319   0.00000  Uiso   1.00
Br796  Br    0.43873   0.61048   0.75348   0.00000  Uiso   1.00
C797   C     0.42091   0.50000   0.83657   0.00000  Uiso   1.00
C798   C     0.35437   0.54243   0.83817   0.00000  Uiso   1.00
C799   C     0.62383   0.50000   0.82740   0.00000  Uiso   1.00
C800   C     0.37617   0.50000   0.83927   0.00000  Uiso   1.00
C801   C     0.47491   0.35803   0.80067   0.00000  Uiso   1.00
C802   C     0.52509   0.64197   0.86599   0.00000  Uiso   1.00
C803   C     0.52509   0.35803   0.86599   0.00000  Uiso   1.00
C804   C     0.47491   0.64197   0.80067   0.00000  Uiso   1.00
C805   C     0.57909   0.50000   0.83010   0.00000  Uiso   1.00
C806   C     0.49993   0.50000   0.74028   0.00000  Uiso   1.00
C807   C     0.50007   0.50000   0.92639   0.00000  Uiso   1.00
C808   C     0.49998   0.50000   0.68853   0.00000  Uiso   1.00
C809   C     0.50002   0.50000   0.97813   0.00000  Uiso   1.00
C810   C     0.35437   0.45757   0.83818   0.00000  Uiso   1.00
C811   C     0.64563   0.54243   0.82849   0.00000  Uiso   1.00
C812   C     0.64563   0.45757   0.82849   0.00000  Uiso   1.00
Cl813  Cl    0.37754   0.40349   0.85428   0.00000  Uiso   1.00
Cl814  Cl    0.62246   0.59651   0.81238   0.00000  Uiso   1.00
Cl815  Cl    0.62246   0.40349   0.81239   0.00000  Uiso   1.00
Cl816  Cl    0.37754   0.59651   0.85428   0.00000  Uiso   1.00
Cu817  Cu    0.50000   0.54689   0.83333   0.00000  Uiso   1.00
Cu818  Cu    0.50000   0.45311   0.83333   0.00000  Uiso   1.00
N819   N     0.50000   0.61736   0.83333   0.00000  Uiso   1.00
N820   N     0.50000   0.38264   0.83333   0.00000  Uiso   1.00
O821   O     0.43988   0.53958   0.83333   0.00000  Uiso   1.00
O822   O     0.56012   0.46042   0.83334   0.00000  Uiso   1.00
O823   O     0.56012   0.53958   0.83334   0.00000  Uiso   1.00
O824   O     0.43988   0.46042   0.83333   0.00000  Uiso   1.00
O825   O     0.50000   0.53959   0.76280   0.00000  Uiso   1.00
O826   O     0.50000   0.46041   0.90387   0.00000  Uiso   1.00
O827   O     0.50000   0.53959   0.90387   0.00000  Uiso   1.00
O828   O     0.50000   0.46041   0.76280   0.00000  Uiso   1.00
Br829  Br    0.77206   0.38952   0.75348   0.00000  Uiso   1.00
Br830  Br    0.89460   0.61048   0.91319   0.00000  Uiso   1.00
Br831  Br    0.89461   0.38952   0.91319   0.00000  Uiso   1.00
Br832  Br    0.77206   0.61048   0.75348   0.00000  Uiso   1.00
C833   C     0.75425   0.50000   0.83657   0.00000  Uiso   1.00
C834   C     0.68770   0.54243   0.83817   0.00000  Uiso   1.00
C835   C     0.95716   0.50000   0.82740   0.00000  Uiso   1.00
C836   C     0.70950   0.50000   0.83927   0.00000  Uiso   1.00
C837   C     0.80825   0.35803   0.80067   0.00000  Uiso   1.00
C838   C     0.85842   0.64197   0.86599   0.00000  Uiso   1.00
C839   C     0.85842   0.35803   0.86599   0.00000  Uiso   1.00
C840   C     0.80825   0.64197   0.80067   0.00000  Uiso   1.00
C841   C     0.91242   0.50000   0.83010   0.00000  Uiso   1.00
C842   C     0.83326   0.50000   0.74028   0.00000  Uiso   1.00
C843   C     0.83340   0.50000   0.92639   0.00000  Uiso   1.00
C844   C     0.83331   0.50000   0.68853   0.00000  Uiso   1.00
C845   C     0.83336   0.50000   0.97813   0.00000  Uiso   1.00
C846   C     0.68770   0.45757   0.83818   0.00000  Uiso   1.00
C847   C     0.97896   0.54243   0.82849   0.00000  Uiso   1.00
C848   C     0.97896   0.45757   0.82849   0.00000  Uiso   1.00
Cl849  Cl    0.71088   0.40349   0.85428   0.00000  Uiso   1.00
Cl850  Cl    0.95579   0.59651   0.81238   0.00000  Uiso   1.00
Cl851  Cl    0.95579   0.40349   0.81239   0.00000  Uiso   1.00
Cl852  Cl    0.71088   0.59651   0.85428   0.00000  Uiso   1.00
Cu853  Cu    0.83333   0.54689   0.83333   0.00000  Uiso   1.00
Cu854  Cu    0.83333   0.45311   0.83333   0.00000  Uiso   1.00
N855   N     0.83333   0.61736   0.83333   0.00000  Uiso   1.00
N856   N     0.83333   0.38264   0.83333   0.00000  Uiso   1.00
O857   O     0.77321   0.53958   0.83333   0.00000  Uiso   1.00
O858   O     0.89345   0.46042   0.83334   0.00000  Uiso   1.00
O859   O     0.89345   0.53958   0.83334   0.00000  Uiso   1.00
O860   O     0.77321   0.46042   0.83333   0.00000  Uiso   1.00
O861   O     0.83333   0.53959   0.76280   0.00000  Uiso   1.00
O862   O     0.83333   0.46041   0.90387   0.00000  Uiso   1.00
O863   O     0.83333   0.53959   0.90387   0.00000  Uiso   1.00
O864   O     0.83333   0.46041   0.76280   0.00000  Uiso   1.00
Br865  Br    0.10539   0.72286   0.75348   0.00000  Uiso   1.00
Br866  Br    0.22794   0.94381   0.91319   0.00000  Uiso   1.00
Br867  Br    0.22794   0.72286   0.91319   0.00000  Uiso   1.00
Br868  Br    0.10539   0.94381   0.75348   0.00000  Uiso   1.00
C869   C     0.08758   0.83333   0.83657   0.00000  Uiso   1.00
C870   C     0.02104   0.87577   0.83817   0.00000  Uiso   1.00
C871   C     0.29050   0.83333   0.82740   0.00000  Uiso   1.00
C872   C     0.04284   0.83333   0.83927   0.00000  Uiso   1.00
C873   C     0.14158   0.69136   0.80067   0.00000  Uiso   1.00
C874   C     0.19175   0.97531   0.86599   0.00000  Uiso   1.00
C875   C     0.19175   0.69136   0.86599   0.00000  Uiso   1.00
C876   C     0.14158   0.97531   0.80067   0.00000  Uiso   1.00
C877   C     0.24575   0.83333   0.83010   0.00000  Uiso   1.00
C878   C     0.16660   0.83333   0.74028   0.00000  Uiso   1.00
C879   C     0.16674   0.83333   0.92639   0.00000  Uiso   1.00
C880   C     0.16664   0.83333   0.68853   0.00000  Uiso   1.00
C881   C     0.16669   0.83333   0.97813   0.00000  Uiso   1.00
C882   C     0.02104   0.79090   0.83818   0.00000  Uiso   1.00
C883   C     0.31230   0.87577   0.82849   0.00000  Uiso   1.00
C884   C     0.31230   0.79090   0.82849   0.00000  Uiso   1.00
Cl885  Cl    0.04421   0.73683   0.85428   0.00000  Uiso   1.00
Cl886  Cl    0.28912   0.92984   0.81238   0.00000  Uiso   1.00
Cl887  Cl    0.28912   0.73683   0.81239   0.00000  Uiso   1.00
Cl888  Cl    0.04421   0.92984   0.85428   0.00000  Uiso   1.00
Cu889  Cu    0.16667   0.88022   0.83333   0.00000  Uiso   1.00
Cu890  Cu    0.16667   0.78645   0.83333   0.00000  Uiso   1.00
N891   N     0.16667   0.95069   0.83333   0.00000  Uiso   1.00
N892   N     0.16667   0.71598   0.83333   0.00000  Uiso   1.00
O893   O     0.10655   0.87291   0.83333   0.00000  Uiso   1.00
O894   O     0.22679   0.79375   0.83334   0.00000  Uiso   1.00
O895   O     0.22679   0.87291   0.83334   0.00000  Uiso   1.00
O896   O     0.10655   0.79375   0.83333   0.00000  Uiso   1.00
O897   O     0.16667   0.87292   0.76280   0.00000  Uiso   1.00
O898   O     0.16667   0.79375   0.90387   0.00000  Uiso   1.00
O899   O     0.16667   0.87292   0.90387   0.00000  Uiso   1.00
O900   O     0.16667   0.79375   0.76280   0.00000  Uiso   1.00
Br901  Br    0.43873   0.72286   0.75348   0.00000  Uiso   1.00
Br902  Br    0.56127   0.94381   0.91319   0.00000  Uiso   1.00
Br903  Br    0.56127   0.72286   0.91319   0.00000  Uiso   1.00
Br904  Br    0.43873   0.94381   0.75348   0.00000  Uiso   1.00
C905   C     0.42091   0.83333   0.83657   0.00000  Uiso   1.00
C906   C     0.35437   0.87577   0.83817   0.00000  Uiso   1.00
C907   C     0.62383   0.83333   0.82740   0.00000  Uiso   1.00
C908   C     0.37617   0.83333   0.83927   0.00000  Uiso   1.00
C909   C     0.47491   0.69136   0.80067   0.00000  Uiso   1.00
C910   C     0.52509   0.97531   0.86599   0.00000  Uiso   1.00
C911   C     0.52509   0.69136   0.86599   0.00000  Uiso   1.00
C912   C     0.47491   0.97531   0.80067   0.00000  Uiso   1.00
C913   C     0.57909   0.83333   0.83010   0.00000  Uiso   1.00
C914   C     0.49993   0.83333   0.74028   0.00000  Uiso   1.00
C915   C     0.50007   0.83333   0.92639   0.00000  Uiso   1.00
C916   C     0.49998   0.83333   0.68853   0.00000  Uiso   1.00
C917   C     0.50002   0.83333   0.97813   0.00000  Uiso   1.00
C918   C     0.35437   0.79090   0.83818   0.00000  Uiso   1.00
C919   C     0.64563   0.87577   0.82849   0.00000  Uiso   1.00
C920   C     0.64563   0.79090   0.82849   0.00000  Uiso   1.00
Cl921  Cl    0.37754   0.73683   0.85428   0.00000  Uiso   1.00
Cl922  Cl    0.62246   0.92984   0.81238   0.00000  Uiso   1.00
Cl923  Cl    0.62246   0.73683   0.81239   0.00000  Uiso   1.00
Cl924  Cl    0.37754   0.92984   0.85428   0.00000  Uiso   1.00
Cu925  Cu    0.50000   0.88022   0.83333   0.00000  Uiso   1.00
Cu926  Cu    0.50000   0.78645   0.83333   0.00000  Uiso   1.00
N927   N     0.50000   0.95069   0.83333   0.00000  Uiso   1.00
N928   N     0.50000   0.71598   0.83333   0.00000  Uiso   1.00
O929   O     0.43988   0.87291   0.83333   0.00000  Uiso   1.00
O930   O     0.56012   0.79375   0.83334   0.00000  Uiso   1.00
O931   O     0.56012   0.87291   0.83334   0.00000  Uiso   1.00
O932   O     0.43988   0.79375   0.83333   0.00000  Uiso   1.00
O933   O     0.50000   0.87292   0.76280   0.00000  Uiso   1.00
O934   O     0.50000   0.79375   0.90387   0.00000  Uiso   1.00
O935   O     0.50000   0.87292   0.90387   0.00000  Uiso   1.00
O936   O     0.50000   0.79375   0.76280   0.00000  Uiso   1.00
Br937  Br    0.77206   0.72286   0.75348   0.00000  Uiso   1.00
Br938  Br    0.89460   0.94381   0.91319   0.00000  Uiso   1.00
Br939  Br    0.89461   0.72286   0.91319   0.00000  Uiso   1.00
Br940  Br    0.77206   0.94381   0.75348   0.00000  Uiso   1.00
C941   C     0.75425   0.83333   0.83657   0.00000  Uiso   1.00
C942   C     0.68770   0.87577   0.83817   0.00000  Uiso   1.00
C943   C     0.95716   0.83333   0.82740   0.00000  Uiso   1.00
C944   C     0.70950   0.83333   0.83927   0.00000  Uiso   1.00
C945   C     0.80825   0.69136   0.80067   0.00000  Uiso   1.00
C946   C     0.85842   0.97531   0.86599   0.00000  Uiso   1.00
C947   C     0.85842   0.69136   0.86599   0.00000  Uiso   1.00
C948   C     0.80825   0.97531   0.80067   0.00000  Uiso   1.00
C949   C     0.91242   0.83333   0.83010   0.00000  Uiso   1.00
C950   C     0.83326   0.83333   0.74028   0.00000  Uiso   1.00
C951   C     0.83340   0.83333   0.92639   0.00000  Uiso   1.00
C952   C     0.83331   0.83333   0.68853   0.00000  Uiso   1.00
C953   C     0.83336   0.83333   0.97813   0.00000  Uiso   1.00
C954   C     0.68770   0.79090   0.83818   0.00000  Uiso   1.00
C955   C     0.97896   0.87577   0.82849   0.00000  Uiso   1.00
C956   C     0.97896   0.79090   0.82849   0.00000  Uiso   1.00
Cl957  Cl    0.71088   0.73683   0.85428   0.00000  Uiso   1.00
Cl958  Cl    0.95579   0.92984   0.81238   0.00000  Uiso   1.00
Cl959  Cl    0.95579   0.73683   0.81239   0.00000  Uiso   1.00
Cl960  Cl    0.71088   0.92984   0.85428   0.00000  Uiso   1.00
Cu961  Cu    0.83333   0.88022   0.83333   0.00000  Uiso   1.00
Cu962  Cu    0.83333   0.78645   0.83333   0.00000  Uiso   1.00
N963   N     0.83333   0.95069   0.83333   0.00000  Uiso   1.00
N964   N     0.83333   0.71598   0.83333   0.00000  Uiso   1.00
O965   O     0.77321   0.87291   0.83333   0.00000  Uiso   1.00
O966   O     0.89345   0.79375   0.83334   0.00000  Uiso   1.00
O967   O     0.89345   0.87291   0.83334   0.00000  Uiso   1.00
O968   O     0.77321   0.79375   0.83333   0.00000  Uiso   1.00
O969   O     0.83333   0.87292   0.76280   0.00000  Uiso   1.00
O970   O     0.83333   0.79375   0.90387   0.00000  Uiso   1.00
O971   O     0.83333   0.87292   0.90387   0.00000  Uiso   1.00
O972   O     0.83333   0.79375   0.76280   0.00000  Uiso   1.00
loop_
_geom_bond_atom_site_label_1
_geom_bond_atom_site_label_2
_geom_bond_distance
_geom_bond_site_symmetry_2
_ccdc_geom_bond_type
Br1    C9      1.929   .     S
Br2    C10     1.929   .     S
Br3    C11     1.929   .     S
Br4    C12     1.929   .     S
C5     C8      1.473   .     S
C5     O32     1.304   .     A
C5     O29     1.304   .     A
C6     Cl24    1.777   .     S
C6     C8      1.415   .     A
C6     C91     1.391   1_455 S
C7     C13     1.473   .     S
C7     C20     1.415   .     A
C7     C19     1.415   .     A
C8     C18     1.415   .     A
C9     N28     1.376   .     A
C9     C228    1.422   1_545 S
C10    N27     1.376   .     A
C10    C119    1.422   .     S
C11    N28     1.376   .     A
C11    C226    1.422   1_545 S
C12    N27     1.376   .     A
C12    C117    1.422   .     S
C13    O31     1.304   .     A
C13    O30     1.304   .     A
C14    O33     1.294   .     A
C14    O36     1.294   .     A
C14    C16     1.408   .     S
C15    O34     1.294   .     A
C15    O35     1.294   .     A
C15    C17     1.408   .     S
C16    C665    1.190   1_554 S
C17    C340    1.190   .     S
C18    Cl21    1.777   .     S
C18    C92     1.391   1_455 S
C19    Cl22    1.777   .     S
C19    C42     1.391   .     S
C20    Cl23    1.777   .     S
C20    C54     1.391   .     S
Cu25   O31     1.983   .     S
Cu25   N27     2.029   .     S
Cu25   O35     1.930   .     S
Cu25   O29     1.983   .     S
Cu25   Cu26    2.700   .     S
Cu25   O33     1.930   .     S
Cu26   O32     1.983   .     S
Cu26   N28     2.029   .     S
Cu26   O36     1.930   .     S
Cu26   O30     1.983   .     S
Cu26   O34     1.930   .     S
Br37   C45     1.929   .     S
Br38   C46     1.929   .     S
Br39   C47     1.929   .     S
Br40   C48     1.929   .     S
C41    C44     1.473   .     S
C41    O68     1.304   .     A
C41    O65     1.304   .     A
C42    Cl60    1.777   .     S
C42    C44     1.415   .     A
C43    C49     1.473   .     S
C43    C56     1.415   .     A
C43    C55     1.415   .     A
C44    C54     1.415   .     A
C45    N64     1.376   .     A
C45    C264    1.422   1_545 S
C46    N63     1.376   .     A
C46    C155    1.422   .     S
C47    N64     1.376   .     A
C47    C262    1.422   1_545 S
C48    N63     1.376   .     A
C48    C153    1.422   .     S
C49    O67     1.304   .     A
C49    O66     1.304   .     A
C50    O69     1.294   .     A
C50    O72     1.294   .     A
C50    C52     1.408   .     S
C51    O70     1.294   .     A
C51    O71     1.294   .     A
C51    C53     1.408   .     S
C52    C701    1.190   1_554 S
C53    C376    1.190   .     S
C54    Cl57    1.777   .     S
C55    Cl58    1.777   .     S
C55    C78     1.391   .     S
C56    Cl59    1.777   .     S
C56    C90     1.391   .     S
Cu61   O67     1.983   .     S
Cu61   N63     2.029   .     S
Cu61   O71     1.930   .     S
Cu61   O65     1.983   .     S
Cu61   Cu62    2.700   .     S
Cu61   O69     1.930   .     S
Cu62   O68     1.983   .     S
Cu62   N64     2.029   .     S
Cu62   O72     1.930   .     S
Cu62   O66     1.983   .     S
Cu62   O70     1.930   .     S
Br73   C81     1.929   .     S
Br74   C82     1.929   .     S
Br75   C83     1.929   .     S
Br76   C84     1.929   .     S
C77    C80     1.473   .     S
C77    O104    1.304   .     A
C77    O101    1.304   .     A
C78    Cl96    1.777   .     S
C78    C80     1.415   .     A
C79    C85     1.473   .     S
C79    C92     1.415   .     A
C79    C91     1.415   .     A
C80    C90     1.415   .     A
C81    N100    1.376   .     A
C81    C300    1.422   1_545 S
C82    N99     1.376   .     A
C82    C191    1.422   .     S
C83    N100    1.376   .     A
C83    C298    1.422   1_545 S
C84    N99     1.376   .     A
C84    C189    1.422   .     S
C85    O103    1.304   .     A
C85    O102    1.304   .     A
C86    O105    1.294   .     A
C86    O108    1.294   .     A
C86    C88     1.408   .     S
C87    O106    1.294   .     A
C87    O107    1.294   .     A
C87    C89     1.408   .     S
C88    C737    1.190   1_554 S
C89    C412    1.190   .     S
C90    Cl93    1.777   .     S
C91    Cl94    1.777   .     S
C91    C6      1.391   1_655 S
C92    Cl95    1.777   .     S
C92    C18     1.391   1_655 S
Cu97   O103    1.983   .     S
Cu97   N99     2.029   .     S
Cu97   O107    1.930   .     S
Cu97   O101    1.983   .     S
Cu97   Cu98    2.700   .     S
Cu97   O105    1.930   .     S
Cu98   O104    1.983   .     S
Cu98   N100    2.029   .     S
Cu98   O108    1.930   .     S
Cu98   O102    1.983   .     S
Cu98   O106    1.930   .     S
Br109  C117    1.929   .     S
Br110  C118    1.929   .     S
Br111  C119    1.929   .     S
Br112  C120    1.929   .     S
C113   C116    1.473   .     S
C113   O140    1.304   .     A
C113   O137    1.304   .     A
C114   Cl132   1.777   .     S
C114   C116    1.415   .     A
C114   C199    1.391   1_455 S
C115   C121    1.473   .     S
C115   C128    1.415   .     A
C115   C127    1.415   .     A
C116   C126    1.415   .     A
C117   N136    1.376   .     A
C118   N135    1.376   .     A
C118   C227    1.422   .     S
C119   N136    1.376   .     A
C120   N135    1.376   .     A
C120   C225    1.422   .     S
C121   O139    1.304   .     A
C121   O138    1.304   .     A
C122   O141    1.294   .     A
C122   O144    1.294   .     A
C122   C124    1.408   .     S
C123   O142    1.294   .     A
C123   O143    1.294   .     A
C123   C125    1.408   .     S
C124   C773    1.190   1_554 S
C125   C448    1.190   .     S
C126   Cl129   1.777   .     S
C126   C200    1.391   1_455 S
C127   Cl130   1.777   .     S
C127   C150    1.391   .     S
C128   Cl131   1.777   .     S
C128   C162    1.391   .     S
Cu133  O139    1.983   .     S
Cu133  N135    2.029   .     S
Cu133  O143    1.930   .     S
Cu133  O137    1.983   .     S
Cu133  Cu134   2.700   .     S
Cu133  O141    1.930   .     S
Cu134  O140    1.983   .     S
Cu134  N136    2.029   .     S
Cu134  O144    1.930   .     S
Cu134  O138    1.983   .     S
Cu134  O142    1.930   .     S
Br145  C153    1.929   .     S
Br146  C154    1.929   .     S
Br147  C155    1.929   .     S
Br148  C156    1.929   .     S
C149   C152    1.473   .     S
C149   O176    1.304   .     A
C149   O173    1.304   .     A
C150   Cl168   1.777   .     S
C150   C152    1.415   .     A
C151   C157    1.473   .     S
C151   C164    1.415   .     A
C151   C163    1.415   .     A
C152   C162    1.415   .     A
C153   N172    1.376   .     A
C154   N171    1.376   .     A
C154   C263    1.422   .     S
C155   N172    1.376   .     A
C156   N171    1.376   .     A
C156   C261    1.422   .     S
C157   O175    1.304   .     A
C157   O174    1.304   .     A
C158   O177    1.294   .     A
C158   O180    1.294   .     A
C158   C160    1.408   .     S
C159   O178    1.294   .     A
C159   O179    1.294   .     A
C159   C161    1.408   .     S
C160   C809    1.190   1_554 S
C161   C484    1.190   .     S
C162   Cl165   1.777   .     S
C163   Cl166   1.777   .     S
C163   C186    1.391   .     S
C164   Cl167   1.777   .     S
C164   C198    1.391   .     S
Cu169  O175    1.983   .     S
Cu169  N171    2.029   .     S
Cu169  O179    1.930   .     S
Cu169  O173    1.983   .     S
Cu169  Cu170   2.700   .     S
Cu169  O177    1.930   .     S
Cu170  O176    1.983   .     S
Cu170  N172    2.029   .     S
Cu170  O180    1.930   .     S
Cu170  O174    1.983   .     S
Cu170  O178    1.930   .     S
Br181  C189    1.929   .     S
Br182  C190    1.929   .     S
Br183  C191    1.929   .     S
Br184  C192    1.929   .     S
C185   C188    1.473   .     S
C185   O212    1.304   .     A
C185   O209    1.304   .     A
C186   Cl204   1.777   .     S
C186   C188    1.415   .     A
C187   C193    1.473   .     S
C187   C200    1.415   .     A
C187   C199    1.415   .     A
C188   C198    1.415   .     A
C189   N208    1.376   .     A
C190   N207    1.376   .     A
C190   C299    1.422   .     S
C191   N208    1.376   .     A
C192   N207    1.376   .     A
C192   C297    1.422   .     S
C193   O211    1.304   .     A
C193   O210    1.304   .     A
C194   O213    1.294   .     A
C194   O216    1.294   .     A
C194   C196    1.408   .     S
C195   O214    1.294   .     A
C195   O215    1.294   .     A
C195   C197    1.408   .     S
C196   C845    1.190   1_554 S
C197   C520    1.190   .     S
C198   Cl201   1.777   .     S
C199   Cl202   1.777   .     S
C199   C114    1.391   1_655 S
C200   Cl203   1.777   .     S
C200   C126    1.391   1_655 S
Cu205  O211    1.983   .     S
Cu205  N207    2.029   .     S
Cu205  O215    1.930   .     S
Cu205  O209    1.983   .     S
Cu205  Cu206   2.700   .     S
Cu205  O213    1.930   .     S
Cu206  O212    1.983   .     S
Cu206  N208    2.029   .     S
Cu206  O216    1.930   .     S
Cu206  O210    1.983   .     S
Cu206  O214    1.930   .     S
Br217  C225    1.929   .     S
Br218  C226    1.929   .     S
Br219  C227    1.929   .     S
Br220  C228    1.929   .     S
C221   C224    1.473   .     S
C221   O248    1.304   .     A
C221   O245    1.304   .     A
C222   Cl240   1.777   .     S
C222   C224    1.415   .     A
C222   C307    1.391   1_455 S
C223   C229    1.473   .     S
C223   C236    1.415   .     A
C223   C235    1.415   .     A
C224   C234    1.415   .     A
C225   N244    1.376   .     A
C226   N243    1.376   .     A
C226   C11     1.422   1_565 S
C227   N244    1.376   .     A
C228   N243    1.376   .     A
C228   C9      1.422   1_565 S
C229   O247    1.304   .     A
C229   O246    1.304   .     A
C230   O249    1.294   .     A
C230   O252    1.294   .     A
C230   C232    1.408   .     S
C231   O250    1.294   .     A
C231   O251    1.294   .     A
C231   C233    1.408   .     S
C232   C881    1.190   1_554 S
C233   C556    1.190   .     S
C234   Cl237   1.777   .     S
C234   C308    1.391   1_455 S
C235   Cl238   1.777   .     S
C235   C258    1.391   .     S
C236   Cl239   1.777   .     S
C236   C270    1.391   .     S
Cu241  O247    1.983   .     S
Cu241  N243    2.029   .     S
Cu241  O251    1.930   .     S
Cu241  O245    1.983   .     S
Cu241  Cu242   2.700   .     S
Cu241  O249    1.930   .     S
Cu242  O248    1.983   .     S
Cu242  N244    2.029   .     S
Cu242  O252    1.930   .     S
Cu242  O246    1.983   .     S
Cu242  O250    1.930   .     S
Br253  C261    1.929   .     S
Br254  C262    1.929   .     S
Br255  C263    1.929   .     S
Br256  C264    1.929   .     S
C257   C260    1.473   .     S
C257   O284    1.304   .     A
C257   O281    1.304   .     A
C258   Cl276   1.777   .     S
C258   C260    1.415   .     A
C259   C265    1.473   .     S
C259   C272    1.415   .     A
C259   C271    1.415   .     A
C260   C270    1.415   .     A
C261   N280    1.376   .     A
C262   N279    1.376   .     A
C262   C47     1.422   1_565 S
C263   N280    1.376   .     A
C264   N279    1.376   .     A
C264   C45     1.422   1_565 S
C265   O283    1.304   .     A
C265   O282    1.304   .     A
C266   O285    1.294   .     A
C266   O288    1.294   .     A
C266   C268    1.408   .     S
C267   O286    1.294   .     A
C267   O287    1.294   .     A
C267   C269    1.408   .     S
C268   C917    1.190   1_554 S
C269   C592    1.190   .     S
C270   Cl273   1.777   .     S
C271   Cl274   1.777   .     S
C271   C294    1.391   .     S
C272   Cl275   1.777   .     S
C272   C306    1.391   .     S
Cu277  O283    1.983   .     S
Cu277  N279    2.029   .     S
Cu277  O287    1.930   .     S
Cu277  O281    1.983   .     S
Cu277  Cu278   2.700   .     S
Cu277  O285    1.930   .     S
Cu278  O284    1.983   .     S
Cu278  N280    2.029   .     S
Cu278  O288    1.930   .     S
Cu278  O282    1.983   .     S
Cu278  O286    1.930   .     S
Br289  C297    1.929   .     S
Br290  C298    1.929   .     S
Br291  C299    1.929   .     S
Br292  C300    1.929   .     S
C293   C296    1.473   .     S
C293   O320    1.304   .     A
C293   O317    1.304   .     A
C294   Cl312   1.777   .     S
C294   C296    1.415   .     A
C295   C301    1.473   .     S
C295   C308    1.415   .     A
C295   C307    1.415   .     A
C296   C306    1.415   .     A
C297   N316    1.376   .     A
C298   N315    1.376   .     A
C298   C83     1.422   1_565 S
C299   N316    1.376   .     A
C300   N315    1.376   .     A
C300   C81     1.422   1_565 S
C301   O319    1.304   .     A
C301   O318    1.304   .     A
C302   O321    1.294   .     A
C302   O324    1.294   .     A
C302   C304    1.408   .     S
C303   O322    1.294   .     A
C303   O323    1.294   .     A
C303   C305    1.408   .     S
C304   C953    1.190   1_554 S
C305   C628    1.190   .     S
C306   Cl309   1.777   .     S
C307   Cl310   1.777   .     S
C307   C222    1.391   1_655 S
C308   Cl311   1.777   .     S
C308   C234    1.391   1_655 S
Cu313  O319    1.983   .     S
Cu313  N315    2.029   .     S
Cu313  O323    1.930   .     S
Cu313  O317    1.983   .     S
Cu313  Cu314   2.700   .     S
Cu313  O321    1.930   .     S
Cu314  O320    1.983   .     S
Cu314  N316    2.029   .     S
Cu314  O324    1.930   .     S
Cu314  O318    1.983   .     S
Cu314  O322    1.930   .     S
Br325  C333    1.929   .     S
Br326  C334    1.929   .     S
Br327  C335    1.929   .     S
Br328  C336    1.929   .     S
C329   C332    1.473   .     S
C329   O356    1.304   .     A
C329   O353    1.304   .     A
C330   Cl348   1.777   .     S
C330   C332    1.415   .     A
C330   C415    1.391   1_455 S
C331   C337    1.473   .     S
C331   C344    1.415   .     A
C331   C343    1.415   .     A
C332   C342    1.415   .     A
C333   N352    1.376   .     A
C333   C552    1.422   1_545 S
C334   N351    1.376   .     A
C334   C443    1.422   .     S
C335   N352    1.376   .     A
C335   C550    1.422   1_545 S
C336   N351    1.376   .     A
C336   C441    1.422   .     S
C337   O355    1.304   .     A
C337   O354    1.304   .     A
C338   O357    1.294   .     A
C338   O360    1.294   .     A
C338   C340    1.408   .     S
C339   O358    1.294   .     A
C339   O359    1.294   .     A
C339   C341    1.408   .     S
C341   C664    1.190   .     S
C342   Cl345   1.777   .     S
C342   C416    1.391   1_455 S
C343   Cl346   1.777   .     S
C343   C366    1.391   .     S
C344   Cl347   1.777   .     S
C344   C378    1.391   .     S
Cu349  O355    1.983   .     S
Cu349  N351    2.029   .     S
Cu349  O359    1.930   .     S
Cu349  O353    1.983   .     S
Cu349  Cu350   2.700   .     S
Cu349  O357    1.930   .     S
Cu350  O356    1.983   .     S
Cu350  N352    2.029   .     S
Cu350  O360    1.930   .     S
Cu350  O354    1.983   .     S
Cu350  O358    1.930   .     S
Br361  C369    1.929   .     S
Br362  C370    1.929   .     S
Br363  C371    1.929   .     S
Br364  C372    1.929   .     S
C365   C368    1.473   .     S
C365   O392    1.304   .     A
C365   O389    1.304   .     A
C366   Cl384   1.777   .     S
C366   C368    1.415   .     A
C367   C373    1.473   .     S
C367   C380    1.415   .     A
C367   C379    1.415   .     A
C368   C378    1.415   .     A
C369   N388    1.376   .     A
C369   C588    1.422   1_545 S
C370   N387    1.376   .     A
C370   C479    1.422   .     S
C371   N388    1.376   .     A
C371   C586    1.422   1_545 S
C372   N387    1.376   .     A
C372   C477    1.422   .     S
C373   O391    1.304   .     A
C373   O390    1.304   .     A
C374   O393    1.294   .     A
C374   O396    1.294   .     A
C374   C376    1.408   .     S
C375   O394    1.294   .     A
C375   O395    1.294   .     A
C375   C377    1.408   .     S
C377   C700    1.190   .     S
C378   Cl381   1.777   .     S
C379   Cl382   1.777   .     S
C379   C402    1.391   .     S
C380   Cl383   1.777   .     S
C380   C414    1.391   .     S
Cu385  O391    1.983   .     S
Cu385  N387    2.029   .     S
Cu385  O395    1.930   .     S
Cu385  O389    1.983   .     S
Cu385  Cu386   2.700   .     S
Cu385  O393    1.930   .     S
Cu386  O392    1.983   .     S
Cu386  N388    2.029   .     S
Cu386  O396    1.930   .     S
Cu386  O390    1.983   .     S
Cu386  O394    1.930   .     S
Br397  C405    1.929   .     S
Br398  C406    1.929   .     S
Br399  C407    1.929   .     S
Br400  C408    1.929   .     S
C401   C404    1.473   .     S
C401   O428    1.304   .     A
C401   O425    1.304   .     A
C402   Cl420   1.777   .     S
C402   C404    1.415   .     A
C403   C409    1.473   .     S
C403   C416    1.415   .     A
C403   C415    1.415   .     A
C404   C414    1.415   .     A
C405   N424    1.376   .     A
C405   C624    1.422   1_545 S
C406   N423    1.376   .     A
C406   C515    1.422   .     S
C407   N424    1.376   .     A
C407   C622    1.422   1_545 S
C408   N423    1.376   .     A
C408   C513    1.422   .     S
C409   O427    1.304   .     A
C409   O426    1.304   .     A
C410   O429    1.294   .     A
C410   O432    1.294   .     A
C410   C412    1.408   .     S
C411   O430    1.294   .     A
C411   O431    1.294   .     A
C411   C413    1.408   .     S
C413   C736    1.190   .     S
C414   Cl417   1.777   .     S
C415   Cl418   1.777   .     S
C415   C330    1.391   1_655 S
C416   Cl419   1.777   .     S
C416   C342    1.391   1_655 S
Cu421  O427    1.983   .     S
Cu421  N423    2.029   .     S
Cu421  O431    1.930   .     S
Cu421  O425    1.983   .     S
Cu421  Cu422   2.700   .     S
Cu421  O429    1.930   .     S
Cu422  O428    1.983   .     S
Cu422  N424    2.029   .     S
Cu422  O432    1.930   .     S
Cu422  O426    1.983   .     S
Cu422  O430    1.930   .     S
Br433  C441    1.929   .     S
Br434  C442    1.929   .     S
Br435  C443    1.929   .     S
Br436  C444    1.929   .     S
C437   C440    1.473   .     S
C437   O464    1.304   .     A
C437   O461    1.304   .     A
C438   Cl456   1.777   .     S
C438   C440    1.415   .     A
C438   C523    1.391   1_455 S
C439   C445    1.473   .     S
C439   C452    1.415   .     A
C439   C451    1.415   .     A
C440   C450    1.415   .     A
C441   N460    1.376   .     A
C442   N459    1.376   .     A
C442   C551    1.422   .     S
C443   N460    1.376   .     A
C444   N459    1.376   .     A
C444   C549    1.422   .     S
C445   O463    1.304   .     A
C445   O462    1.304   .     A
C446   O465    1.294   .     A
C446   O468    1.294   .     A
C446   C448    1.408   .     S
C447   O466    1.294   .     A
C447   O467    1.294   .     A
C447   C449    1.408   .     S
C449   C772    1.190   .     S
C450   Cl453   1.777   .     S
C450   C524    1.391   1_455 S
C451   Cl454   1.777   .     S
C451   C474    1.391   .     S
C452   Cl455   1.777   .     S
C452   C486    1.391   .     S
Cu457  O463    1.983   .     S
Cu457  N459    2.029   .     S
Cu457  O467    1.930   .     S
Cu457  O461    1.983   .     S
Cu457  Cu458   2.700   .     S
Cu457  O465    1.930   .     S
Cu458  O464    1.983   .     S
Cu458  N460    2.029   .     S
Cu458  O468    1.930   .     S
Cu458  O462    1.983   .     S
Cu458  O466    1.930   .     S
Br469  C477    1.929   .     S
Br470  C478    1.929   .     S
Br471  C479    1.929   .     S
Br472  C480    1.929   .     S
C473   C476    1.473   .     S
C473   O500    1.304   .     A
C473   O497    1.304   .     A
C474   Cl492   1.777   .     S
C474   C476    1.415   .     A
C475   C481    1.473   .     S
C475   C488    1.415   .     A
C475   C487    1.415   .     A
C476   C486    1.415   .     A
C477   N496    1.376   .     A
C478   N495    1.376   .     A
C478   C587    1.422   .     S
C479   N496    1.376   .     A
C480   N495    1.376   .     A
C480   C585    1.422   .     S
C481   O499    1.304   .     A
C481   O498    1.304   .     A
C482   O501    1.294   .     A
C482   O504    1.294   .     A
C482   C484    1.408   .     S
C483   O502    1.294   .     A
C483   O503    1.294   .     A
C483   C485    1.408   .     S
C485   C808    1.190   .     S
C486   Cl489   1.777   .     S
C487   Cl490   1.777   .     S
C487   C510    1.391   .     S
C488   Cl491   1.777   .     S
C488   C522    1.391   .     S
Cu493  O499    1.983   .     S
Cu493  N495    2.029   .     S
Cu493  O503    1.930   .     S
Cu493  O497    1.983   .     S
Cu493  Cu494   2.700   .     S
Cu493  O501    1.930   .     S
Cu494  O500    1.983   .     S
Cu494  N496    2.029   .     S
Cu494  O504    1.930   .     S
Cu494  O498    1.983   .     S
Cu494  O502    1.930   .     S
Br505  C513    1.929   .     S
Br506  C514    1.929   .     S
Br507  C515    1.929   .     S
Br508  C516    1.929   .     S
C509   C512    1.473   .     S
C509   O536    1.304   .     A
C509   O533    1.304   .     A
C510   Cl528   1.777   .     S
C510   C512    1.415   .     A
C511   C517    1.473   .     S
C511   C524    1.415   .     A
C511   C523    1.415   .     A
C512   C522    1.415   .     A
C513   N532    1.376   .     A
C514   N531    1.376   .     A
C514   C623    1.422   .     S
C515   N532    1.376   .     A
C516   N531    1.376   .     A
C516   C621    1.422   .     S
C517   O535    1.304   .     A
C517   O534    1.304   .     A
C518   O537    1.294   .     A
C518   O540    1.294   .     A
C518   C520    1.408   .     S
C519   O538    1.294   .     A
C519   O539    1.294   .     A
C519   C521    1.408   .     S
C521   C844    1.190   .     S
C522   Cl525   1.777   .     S
C523   Cl526   1.777   .     S
C523   C438    1.391   1_655 S
C524   Cl527   1.777   .     S
C524   C450    1.391   1_655 S
Cu529  O535    1.983   .     S
Cu529  N531    2.029   .     S
Cu529  O539    1.930   .     S
Cu529  O533    1.983   .     S
Cu529  Cu530   2.700   .     S
Cu529  O537    1.930   .     S
Cu530  O536    1.983   .     S
Cu530  N532    2.029   .     S
Cu530  O540    1.930   .     S
Cu530  O534    1.983   .     S
Cu530  O538    1.930   .     S
Br541  C549    1.929   .     S
Br542  C550    1.929   .     S
Br543  C551    1.929   .     S
Br544  C552    1.929   .     S
C545   C548    1.473   .     S
C545   O572    1.304   .     A
C545   O569    1.304   .     A
C546   Cl564   1.777   .     S
C546   C548    1.415   .     A
C546   C631    1.391   1_455 S
C547   C553    1.473   .     S
C547   C560    1.415   .     A
C547   C559    1.415   .     A
C548   C558    1.415   .     A
C549   N568    1.376   .     A
C550   N567    1.376   .     A
C550   C335    1.422   1_565 S
C551   N568    1.376   .     A
C552   N567    1.376   .     A
C552   C333    1.422   1_565 S
C553   O571    1.304   .     A
C553   O570    1.304   .     A
C554   O573    1.294   .     A
C554   O576    1.294   .     A
C554   C556    1.408   .     S
C555   O574    1.294   .     A
C555   O575    1.294   .     A
C555   C557    1.408   .     S
C557   C880    1.190   .     S
C558   Cl561   1.777   .     S
C558   C632    1.391   1_455 S
C559   Cl562   1.777   .     S
C559   C582    1.391   .     S
C560   Cl563   1.777   .     S
C560   C594    1.391   .     S
Cu565  O571    1.983   .     S
Cu565  N567    2.029   .     S
Cu565  O575    1.930   .     S
Cu565  O569    1.983   .     S
Cu565  Cu566   2.700   .     S
Cu565  O573    1.930   .     S
Cu566  O572    1.983   .     S
Cu566  N568    2.029   .     S
Cu566  O576    1.930   .     S
Cu566  O570    1.983   .     S
Cu566  O574    1.930   .     S
Br577  C585    1.929   .     S
Br578  C586    1.929   .     S
Br579  C587    1.929   .     S
Br580  C588    1.929   .     S
C581   C584    1.473   .     S
C581   O608    1.304   .     A
C581   O605    1.304   .     A
C582   Cl600   1.777   .     S
C582   C584    1.415   .     A
C583   C589    1.473   .     S
C583   C596    1.415   .     A
C583   C595    1.415   .     A
C584   C594    1.415   .     A
C585   N604    1.376   .     A
C586   N603    1.376   .     A
C586   C371    1.422   1_565 S
C587   N604    1.376   .     A
C588   N603    1.376   .     A
C588   C369    1.422   1_565 S
C589   O607    1.304   .     A
C589   O606    1.304   .     A
C590   O609    1.294   .     A
C590   O612    1.294   .     A
C590   C592    1.408   .     S
C591   O610    1.294   .     A
C591   O611    1.294   .     A
C591   C593    1.408   .     S
C593   C916    1.190   .     S
C594   Cl597   1.777   .     S
C595   Cl598   1.777   .     S
C595   C618    1.391   .     S
C596   Cl599   1.777   .     S
C596   C630    1.391   .     S
Cu601  O607    1.983   .     S
Cu601  N603    2.029   .     S
Cu601  O611    1.930   .     S
Cu601  O605    1.983   .     S
Cu601  Cu602   2.700   .     S
Cu601  O609    1.930   .     S
Cu602  O608    1.983   .     S
Cu602  N604    2.029   .     S
Cu602  O612    1.930   .     S
Cu602  O606    1.983   .     S
Cu602  O610    1.930   .     S
Br613  C621    1.929   .     S
Br614  C622    1.929   .     S
Br615  C623    1.929   .     S
Br616  C624    1.929   .     S
C617   C620    1.473   .     S
C617   O644    1.304   .     A
C617   O641    1.304   .     A
C618   Cl636   1.777   .     S
C618   C620    1.415   .     A
C619   C625    1.473   .     S
C619   C632    1.415   .     A
C619   C631    1.415   .     A
C620   C630    1.415   .     A
C621   N640    1.376   .     A
C622   N639    1.376   .     A
C622   C407    1.422   1_565 S
C623   N640    1.376   .     A
C624   N639    1.376   .     A
C624   C405    1.422   1_565 S
C625   O643    1.304   .     A
C625   O642    1.304   .     A
C626   O645    1.294   .     A
C626   O648    1.294   .     A
C626   C628    1.408   .     S
C627   O646    1.294   .     A
C627   O647    1.294   .     A
C627   C629    1.408   .     S
C629   C952    1.190   .     S
C630   Cl633   1.777   .     S
C631   Cl634   1.777   .     S
C631   C546    1.391   1_655 S
C632   Cl635   1.777   .     S
C632   C558    1.391   1_655 S
Cu637  O643    1.983   .     S
Cu637  N639    2.029   .     S
Cu637  O647    1.930   .     S
Cu637  O641    1.983   .     S
Cu637  Cu638   2.700   .     S
Cu637  O645    1.930   .     S
Cu638  O644    1.983   .     S
Cu638  N640    2.029   .     S
Cu638  O648    1.930   .     S
Cu638  O642    1.983   .     S
Cu638  O646    1.930   .     S
Br649  C657    1.929   .     S
Br650  C658    1.929   .     S
Br651  C659    1.929   .     S
Br652  C660    1.929   .     S
C653   C656    1.473   .     S
C653   O680    1.304   .     A
C653   O677    1.304   .     A
C654   Cl672   1.777   .     S
C654   C656    1.415   .     A
C654   C739    1.391   1_455 S
C655   C661    1.473   .     S
C655   C668    1.415   .     A
C655   C667    1.415   .     A
C656   C666    1.415   .     A
C657   N676    1.376   .     A
C657   C876    1.422   1_545 S
C658   N675    1.376   .     A
C658   C767    1.422   .     S
C659   N676    1.376   .     A
C659   C874    1.422   1_545 S
C660   N675    1.376   .     A
C660   C765    1.422   .     S
C661   O679    1.304   .     A
C661   O678    1.304   .     A
C662   O681    1.294   .     A
C662   O684    1.294   .     A
C662   C664    1.408   .     S
C663   O682    1.294   .     A
C663   O683    1.294   .     A
C663   C665    1.408   .     S
C665   C16     1.190   1_556 S
C666   Cl669   1.777   .     S
C666   C740    1.391   1_455 S
C667   Cl670   1.777   .     S
C667   C690    1.391   .     S
C668   Cl671   1.777   .     S
C668   C702    1.391   .     S
Cu673  O679    1.983   .     S
Cu673  N675    2.029   .     S
Cu673  O683    1.930   .     S
Cu673  O677    1.983   .     S
Cu673  Cu674   2.700   .     S
Cu673  O681    1.930   .     S
Cu674  O680    1.983   .     S
Cu674  N676    2.029   .     S
Cu674  O684    1.930   .     S
Cu674  O678    1.983   .     S
Cu674  O682    1.930   .     S
Br685  C693    1.929   .     S
Br686  C694    1.929   .     S
Br687  C695    1.929   .     S
Br688  C696    1.929   .     S
C689   C692    1.473   .     S
C689   O716    1.304   .     A
C689   O713    1.304   .     A
C690   Cl708   1.777   .     S
C690   C692    1.415   .     A
C691   C697    1.473   .     S
C691   C704    1.415   .     A
C691   C703    1.415   .     A
C692   C702    1.415   .     A
C693   N712    1.376   .     A
C693   C912    1.422   1_545 S
C694   N711    1.376   .     A
C694   C803    1.422   .     S
C695   N712    1.376   .     A
C695   C910    1.422   1_545 S
C696   N711    1.376   .     A
C696   C801    1.422   .     S
C697   O715    1.304   .     A
C697   O714    1.304   .     A
C698   O717    1.294   .     A
C698   O720    1.294   .     A
C698   C700    1.408   .     S
C699   O718    1.294   .     A
C699   O719    1.294   .     A
C699   C701    1.408   .     S
C701   C52     1.190   1_556 S
C702   Cl705   1.777   .     S
C703   Cl706   1.777   .     S
C703   C726    1.391   .     S
C704   Cl707   1.777   .     S
C704   C738    1.391   .     S
Cu709  O715    1.983   .     S
Cu709  N711    2.029   .     S
Cu709  O719    1.930   .     S
Cu709  O713    1.983   .     S
Cu709  Cu710   2.700   .     S
Cu709  O717    1.930   .     S
Cu710  O716    1.983   .     S
Cu710  N712    2.029   .     S
Cu710  O720    1.930   .     S
Cu710  O714    1.983   .     S
Cu710  O718    1.930   .     S
Br721  C729    1.929   .     S
Br722  C730    1.929   .     S
Br723  C731    1.929   .     S
Br724  C732    1.929   .     S
C725   C728    1.473   .     S
C725   O752    1.304   .     A
C725   O749    1.304   .     A
C726   Cl744   1.777   .     S
C726   C728    1.415   .     A
C727   C733    1.473   .     S
C727   C740    1.415   .     A
C727   C739    1.415   .     A
C728   C738    1.415   .     A
C729   N748    1.376   .     A
C729   C948    1.422   1_545 S
C730   N747    1.376   .     A
C730   C839    1.422   .     S
C731   N748    1.376   .     A
C731   C946    1.422   1_545 S
C732   N747    1.376   .     A
C732   C837    1.422   .     S
C733   O751    1.304   .     A
C733   O750    1.304   .     A
C734   O753    1.294   .     A
C734   O756    1.294   .     A
C734   C736    1.408   .     S
C735   O754    1.294   .     A
C735   O755    1.294   .     A
C735   C737    1.408   .     S
C737   C88     1.190   1_556 S
C738   Cl741   1.777   .     S
C739   Cl742   1.777   .     S
C739   C654    1.391   1_655 S
C740   Cl743   1.777   .     S
C740   C666    1.391   1_655 S
Cu745  O751    1.983   .     S
Cu745  N747    2.029   .     S
Cu745  O755    1.930   .     S
Cu745  O749    1.983   .     S
Cu745  Cu746   2.700   .     S
Cu745  O753    1.930   .     S
Cu746  O752    1.983   .     S
Cu746  N748    2.029   .     S
Cu746  O756    1.930   .     S
Cu746  O750    1.983   .     S
Cu746  O754    1.930   .     S
Br757  C765    1.929   .     S
Br758  C766    1.929   .     S
Br759  C767    1.929   .     S
Br760  C768    1.929   .     S
C761   C764    1.473   .     S
C761   O788    1.304   .     A
C761   O785    1.304   .     A
C762   Cl780   1.777   .     S
C762   C764    1.415   .     A
C762   C847    1.391   1_455 S
C763   C769    1.473   .     S
C763   C776    1.415   .     A
C763   C775    1.415   .     A
C764   C774    1.415   .     A
C765   N784    1.376   .     A
C766   N783    1.376   .     A
C766   C875    1.422   .     S
C767   N784    1.376   .     A
C768   N783    1.376   .     A
C768   C873    1.422   .     S
C769   O787    1.304   .     A
C769   O786    1.304   .     A
C770   O789    1.294   .     A
C770   O792    1.294   .     A
C770   C772    1.408   .     S
C771   O790    1.294   .     A
C771   O791    1.294   .     A
C771   C773    1.408   .     S
C773   C124    1.190   1_556 S
C774   Cl777   1.777   .     S
C774   C848    1.391   1_455 S
C775   Cl778   1.777   .     S
C775   C798    1.391   .     S
C776   Cl779   1.777   .     S
C776   C810    1.391   .     S
Cu781  O787    1.983   .     S
Cu781  N783    2.029   .     S
Cu781  O791    1.930   .     S
Cu781  O785    1.983   .     S
Cu781  Cu782   2.700   .     S
Cu781  O789    1.930   .     S
Cu782  O788    1.983   .     S
Cu782  N784    2.029   .     S
Cu782  O792    1.930   .     S
Cu782  O786    1.983   .     S
Cu782  O790    1.930   .     S
Br793  C801    1.929   .     S
Br794  C802    1.929   .     S
Br795  C803    1.929   .     S
Br796  C804    1.929   .     S
C797   C800    1.473   .     S
C797   O824    1.304   .     A
C797   O821    1.304   .     A
C798   Cl816   1.777   .     S
C798   C800    1.415   .     A
C799   C805    1.473   .     S
C799   C812    1.415   .     A
C799   C811    1.415   .     A
C800   C810    1.415   .     A
C801   N820    1.376   .     A
C802   N819    1.376   .     A
C802   C911    1.422   .     S
C803   N820    1.376   .     A
C804   N819    1.376   .     A
C804   C909    1.422   .     S
C805   O823    1.304   .     A
C805   O822    1.304   .     A
C806   O825    1.294   .     A
C806   O828    1.294   .     A
C806   C808    1.408   .     S
C807   O826    1.294   .     A
C807   O827    1.294   .     A
C807   C809    1.408   .     S
C809   C160    1.190   1_556 S
C810   Cl813   1.777   .     S
C811   Cl814   1.777   .     S
C811   C834    1.391   .     S
C812   Cl815   1.777   .     S
C812   C846    1.391   .     S
Cu817  O823    1.983   .     S
Cu817  N819    2.029   .     S
Cu817  O827    1.930   .     S
Cu817  O821    1.983   .     S
Cu817  Cu818   2.700   .     S
Cu817  O825    1.930   .     S
Cu818  O824    1.983   .     S
Cu818  N820    2.029   .     S
Cu818  O828    1.930   .     S
Cu818  O822    1.983   .     S
Cu818  O826    1.930   .     S
Br829  C837    1.929   .     S
Br830  C838    1.929   .     S
Br831  C839    1.929   .     S
Br832  C840    1.929   .     S
C833   C836    1.473   .     S
C833   O860    1.304   .     A
C833   O857    1.304   .     A
C834   Cl852   1.777   .     S
C834   C836    1.415   .     A
C835   C841    1.473   .     S
C835   C848    1.415   .     A
C835   C847    1.415   .     A
C836   C846    1.415   .     A
C837   N856    1.376   .     A
C838   N855    1.376   .     A
C838   C947    1.422   .     S
C839   N856    1.376   .     A
C840   N855    1.376   .     A
C840   C945    1.422   .     S
C841   O859    1.304   .     A
C841   O858    1.304   .     A
C842   O861    1.294   .     A
C842   O864    1.294   .     A
C842   C844    1.408   .     S
C843   O862    1.294   .     A
C843   O863    1.294   .     A
C843   C845    1.408   .     S
C845   C196    1.190   1_556 S
C846   Cl849   1.777   .     S
C847   Cl850   1.777   .     S
C847   C762    1.391   1_655 S
C848   Cl851   1.777   .     S
C848   C774    1.391   1_655 S
Cu853  O859    1.983   .     S
Cu853  N855    2.029   .     S
Cu853  O863    1.930   .     S
Cu853  O857    1.983   .     S
Cu853  Cu854   2.700   .     S
Cu853  O861    1.930   .     S
Cu854  O860    1.983   .     S
Cu854  N856    2.029   .     S
Cu854  O864    1.930   .     S
Cu854  O858    1.983   .     S
Cu854  O862    1.930   .     S
Br865  C873    1.929   .     S
Br866  C874    1.929   .     S
Br867  C875    1.929   .     S
Br868  C876    1.929   .     S
C869   C872    1.473   .     S
C869   O896    1.304   .     A
C869   O893    1.304   .     A
C870   Cl888   1.777   .     S
C870   C872    1.415   .     A
C870   C955    1.391   1_455 S
C871   C877    1.473   .     S
C871   C884    1.415   .     A
C871   C883    1.415   .     A
C872   C882    1.415   .     A
C873   N892    1.376   .     A
C874   N891    1.376   .     A
C874   C659    1.422   1_565 S
C875   N892    1.376   .     A
C876   N891    1.376   .     A
C876   C657    1.422   1_565 S
C877   O895    1.304   .     A
C877   O894    1.304   .     A
C878   O897    1.294   .     A
C878   O900    1.294   .     A
C878   C880    1.408   .     S
C879   O898    1.294   .     A
C879   O899    1.294   .     A
C879   C881    1.408   .     S
C881   C232    1.190   1_556 S
C882   Cl885   1.777   .     S
C882   C956    1.391   1_455 S
C883   Cl886   1.777   .     S
C883   C906    1.391   .     S
C884   Cl887   1.777   .     S
C884   C918    1.391   .     S
Cu889  O895    1.983   .     S
Cu889  N891    2.029   .     S
Cu889  O899    1.930   .     S
Cu889  O893    1.983   .     S
Cu889  Cu890   2.700   .     S
Cu889  O897    1.930   .     S
Cu890  O896    1.983   .     S
Cu890  N892    2.029   .     S
Cu890  O900    1.930   .     S
Cu890  O894    1.983   .     S
Cu890  O898    1.930   .     S
Br901  C909    1.929   .     S
Br902  C910    1.929   .     S
Br903  C911    1.929   .     S
Br904  C912    1.929   .     S
C905   C908    1.473   .     S
C905   O932    1.304   .     A
C905   O929    1.304   .     A
C906   Cl924   1.777   .     S
C906   C908    1.415   .     A
C907   C913    1.473   .     S
C907   C920    1.415   .     A
C907   C919    1.415   .     A
C908   C918    1.415   .     A
C909   N928    1.376   .     A
C910   N927    1.376   .     A
C910   C695    1.422   1_565 S
C911   N928    1.376   .     A
C912   N927    1.376   .     A
C912   C693    1.422   1_565 S
C913   O931    1.304   .     A
C913   O930    1.304   .     A
C914   O933    1.294   .     A
C914   O936    1.294   .     A
C914   C916    1.408   .     S
C915   O934    1.294   .     A
C915   O935    1.294   .     A
C915   C917    1.408   .     S
C917   C268    1.190   1_556 S
C918   Cl921   1.777   .     S
C919   Cl922   1.777   .     S
C919   C942    1.391   .     S
C920   Cl923   1.777   .     S
C920   C954    1.391   .     S
Cu925  O931    1.983   .     S
Cu925  N927    2.029   .     S
Cu925  O935    1.930   .     S
Cu925  O929    1.983   .     S
Cu925  Cu926   2.700   .     S
Cu925  O933    1.930   .     S
Cu926  O932    1.983   .     S
Cu926  N928    2.029   .     S
Cu926  O936    1.930   .     S
Cu926  O930    1.983   .     S
Cu926  O934    1.930   .     S
Br937  C945    1.929   .     S
Br938  C946    1.929   .     S
Br939  C947    1.929   .     S
Br940  C948    1.929   .     S
C941   C944    1.473   .     S
C941   O968    1.304   .     A
C941   O965    1.304   .     A
C942   Cl960   1.777   .     S
C942   C944    1.415   .     A
C943   C949    1.473   .     S
C943   C956    1.415   .     A
C943   C955    1.415   .     A
C944   C954    1.415   .     A
C945   N964    1.376   .     A
C946   N963    1.376   .     A
C946   C731    1.422   1_565 S
C947   N964    1.376   .     A
C948   N963    1.376   .     A
C948   C729    1.422   1_565 S
C949   O967    1.304   .     A
C949   O966    1.304   .     A
C950   O969    1.294   .     A
C950   O972    1.294   .     A
C950   C952    1.408   .     S
C951   O970    1.294   .     A
C951   O971    1.294   .     A
C951   C953    1.408   .     S
C953   C304    1.190   1_556 S
C954   Cl957   1.777   .     S
C955   Cl958   1.777   .     S
C955   C870    1.391   1_655 S
C956   Cl959   1.777   .     S
C956   C882    1.391   1_655 S
Cu961  O967    1.983   .     S
Cu961  N963    2.029   .     S
Cu961  O971    1.930   .     S
Cu961  O965    1.983   .     S
Cu961  Cu962   2.700   .     S
Cu961  O969    1.930   .     S
Cu962  O968    1.983   .     S
Cu962  N964    2.029   .     S
Cu962  O972    1.930   .     S
Cu962  O966    1.983   .     S
Cu962  O970    1.930   .     S
