data_str_m1_o1_o2_pcu_sym.85
_audit_creation_date              2020-01-03
_audit_creation_method            'Materials Studio'
_symmetry_space_group_name_H-M    'P1'
_symmetry_Int_Tables_number       1
_symmetry_cell_setting            triclinic
loop_
_symmetry_equiv_pos_as_xyz
  x,y,z
_cell_length_a                    36.6978
_cell_length_b                    36.6977
_cell_length_c                    34.4679
_cell_angle_alpha                 90.0000
_cell_angle_beta                  90.0000
_cell_angle_gamma                 90.0019
loop_
_atom_site_label
_atom_site_type_symbol
_atom_site_fract_x
_atom_site_fract_y
_atom_site_fract_z
_atom_site_U_iso_or_equiv
_atom_site_adp_type
_atom_site_occupancy
C1     C     0.23048   0.02671   0.04130   0.00000  Uiso   1.00
C2     C     0.49290   0.28232   0.45824   0.00000  Uiso   1.00
C3     C     0.34813   0.40184   0.75003   0.00000  Uiso   1.00
C4     C     0.40185   0.15186   0.25000   0.00000  Uiso   1.00
C5     C     0.09812   0.34816   0.74997   0.00000  Uiso   1.00
C6     C     0.34810   0.40182   0.24993   0.00000  Uiso   1.00
C7     C     0.15187   0.09816   0.75003   0.00000  Uiso   1.00
C8     C     0.09818   0.15190   0.75007   0.00000  Uiso   1.00
C9     C     0.40184   0.34813   0.24997   0.00000  Uiso   1.00
C10    C     0.15186   0.40185   0.75000   0.00000  Uiso   1.00
C11    C     0.34816   0.09812   0.25003   0.00000  Uiso   1.00
C12    C     0.40182   0.34810   0.75007   0.00000  Uiso   1.00
C13    C     0.21768   0.00710   0.54177   0.00000  Uiso   1.00
C14    C     0.09816   0.15187   0.24997   0.00000  Uiso   1.00
C15    C     0.34814   0.09815   0.75000   0.00000  Uiso   1.00
C16    C     0.15184   0.40188   0.25003   0.00000  Uiso   1.00
C17    C     0.25000  -0.00000   0.10241   0.00000  Uiso   1.00
C18    C     0.25000  -0.00000   0.89759   0.00000  Uiso   1.00
C19    C     0.00000   0.25000   0.10241   0.00000  Uiso   1.00
C20    C     0.00000   0.25000   0.89759   0.00000  Uiso   1.00
C21    C     0.00000   0.25000   0.60225   0.00000  Uiso   1.00
C22    C     0.00000   0.25000   0.39725   0.00000  Uiso   1.00
C23    C     0.25000  -0.00000   0.60275   0.00000  Uiso   1.00
C24    C     0.27257   0.02420   0.45888   0.00000  Uiso   1.00
C25    C     0.25000  -0.00000   0.39775   0.00000  Uiso   1.00
C26    C     0.21094   0.05735   0.10227   0.00000  Uiso   1.00
C27    C     0.28788   0.05828   0.89799   0.00000  Uiso   1.00
C28    C     0.44172   0.21212   0.10201   0.00000  Uiso   1.00
C29    C     0.44265   0.28906   0.89773   0.00000  Uiso   1.00
C30    C     0.28906   0.44265   0.10227   0.00000  Uiso   1.00
C31    C     0.21212   0.44172   0.89799   0.00000  Uiso   1.00
C32    C     0.05828   0.28788   0.10201   0.00000  Uiso   1.00
C33    C     0.05735   0.21094   0.89773   0.00000  Uiso   1.00
C34    C     0.45246   0.19929   0.60153   0.00000  Uiso   1.00
C35    C     0.02420   0.27257   0.54112   0.00000  Uiso   1.00
C36    C     0.48708   0.31849   0.39760   0.00000  Uiso   1.00
C37    C     0.18151   0.01292   0.60240   0.00000  Uiso   1.00
C38    C     0.30071   0.04754   0.39847   0.00000  Uiso   1.00
C39    C     0.04754   0.30071   0.60153   0.00000  Uiso   1.00
C40    C     0.01292   0.18151   0.39760   0.00000  Uiso   1.00
C41    C     0.31849   0.48708   0.60240   0.00000  Uiso   1.00
C42    C     0.19929   0.45246   0.39847   0.00000  Uiso   1.00
C43    C     0.00710   0.21768   0.45824   0.00000  Uiso   1.00
C44    C     0.28232   0.49290   0.54177   0.00000  Uiso   1.00
C45    C     0.22743   0.47580   0.45888   0.00000  Uiso   1.00
C46    C     0.23046   0.02729   0.08195   0.00000  Uiso   1.00
C47    C     0.26891   0.02775   0.91808   0.00000  Uiso   1.00
C48    C     0.47225   0.23109   0.08192   0.00000  Uiso   1.00
C49    C     0.26891   0.02715   0.95870   0.00000  Uiso   1.00
C50    C     0.47271   0.26954   0.91805   0.00000  Uiso   1.00
C51    C     0.26954   0.47271   0.08195   0.00000  Uiso   1.00
C52    C     0.23109   0.47225   0.91808   0.00000  Uiso   1.00
C53    C     0.02775   0.26891   0.08192   0.00000  Uiso   1.00
C54    C     0.02729   0.23046   0.91805   0.00000  Uiso   1.00
C55    C     0.47617   0.22639   0.58168   0.00000  Uiso   1.00
C56    C     0.49322   0.28294   0.41763   0.00000  Uiso   1.00
C57    C     0.21706   0.00678   0.58237   0.00000  Uiso   1.00
C58    C     0.27361   0.02383   0.41832   0.00000  Uiso   1.00
C59    C     0.02383   0.27361   0.58168   0.00000  Uiso   1.00
C60    C     0.47285   0.23109   0.04130   0.00000  Uiso   1.00
C61    C     0.00678   0.21706   0.41763   0.00000  Uiso   1.00
C62    C     0.28294   0.49322   0.58237   0.00000  Uiso   1.00
C63    C     0.22639   0.47617   0.41832   0.00000  Uiso   1.00
C64    C     0.25000  -0.00000   0.02123   0.00000  Uiso   1.00
C65    C     0.25000  -0.00000   0.97876   0.00000  Uiso   1.00
C66    C     0.00000   0.25000   0.02124   0.00000  Uiso   1.00
C67    C     0.00000   0.25000   0.97877   0.00000  Uiso   1.00
C68    C     0.00000   0.25000   0.52095   0.00000  Uiso   1.00
C69    C     0.00000   0.25000   0.47838   0.00000  Uiso   1.00
C70    C     0.25000  -0.00000   0.52163   0.00000  Uiso   1.00
C71    C     0.47329   0.26952   0.95870   0.00000  Uiso   1.00
C72    C     0.25000  -0.00000   0.47905   0.00000  Uiso   1.00
C73    C     0.25000  -0.00000   0.35518   0.00000  Uiso   1.00
C74    C     0.25000  -0.00000   0.64500   0.00000  Uiso   1.00
C75    C     0.00000   0.25000   0.35500   0.00000  Uiso   1.00
C76    C     0.00000   0.25000   0.64482   0.00000  Uiso   1.00
C77    C     0.00000   0.25000   0.85512   0.00000  Uiso   1.00
C78    C     0.00000   0.25000   0.14488   0.00000  Uiso   1.00
C79    C     0.25000  -0.00000   0.85512   0.00000  Uiso   1.00
C80    C     0.25000  -0.00000   0.14488   0.00000  Uiso   1.00
C81    C     0.17994   0.07010   0.24997   0.00000  Uiso   1.00
C82    C     0.26952   0.47329   0.04130   0.00000  Uiso   1.00
C83    C     0.32008   0.42992   0.75000   0.00000  Uiso   1.00
C84    C     0.42991   0.17992   0.24999   0.00000  Uiso   1.00
C85    C     0.07007   0.32009   0.74999   0.00000  Uiso   1.00
C86    C     0.32006   0.42990   0.24997   0.00000  Uiso   1.00
C87    C     0.17992   0.07008   0.75000   0.00000  Uiso   1.00
C88    C     0.07009   0.32008   0.24999   0.00000  Uiso   1.00
C89    C     0.42993   0.17991   0.74999   0.00000  Uiso   1.00
C90    C     0.17992   0.42991   0.75001   0.00000  Uiso   1.00
C91    C     0.32009   0.07007   0.25001   0.00000  Uiso   1.00
C92    C     0.42990   0.32006   0.75003   0.00000  Uiso   1.00
C93    C     0.23109   0.47285   0.95870   0.00000  Uiso   1.00
C94    C     0.07008   0.17992   0.25000   0.00000  Uiso   1.00
C95    C     0.32008   0.07009   0.75001   0.00000  Uiso   1.00
C96    C     0.17991   0.42993   0.25001   0.00000  Uiso   1.00
C97    C     0.07010   0.17994   0.75003   0.00000  Uiso   1.00
C98    C     0.42992   0.32008   0.25000   0.00000  Uiso   1.00
C99    C     0.12243   0.40429   0.22421   0.00000  Uiso   1.00
C100   C     0.37756   0.09572   0.77582   0.00000  Uiso   1.00
C101   C     0.09551   0.12222   0.22449   0.00000  Uiso   1.00
C102   C     0.40448   0.37776   0.77554   0.00000  Uiso   1.00
C103   C     0.37757   0.09571   0.22421   0.00000  Uiso   1.00
C104   C     0.02715   0.26891   0.04130   0.00000  Uiso   1.00
C105   C     0.12244   0.40427   0.77582   0.00000  Uiso   1.00
C106   C     0.40449   0.37778   0.22449   0.00000  Uiso   1.00
C107   C     0.09552   0.12224   0.77554   0.00000  Uiso   1.00
C108   C     0.12222   0.09551   0.77551   0.00000  Uiso   1.00
C109   C     0.37776   0.40448   0.22446   0.00000  Uiso   1.00
C110   C     0.09571   0.37757   0.77580   0.00000  Uiso   1.00
C111   C     0.40428   0.12244   0.22418   0.00000  Uiso   1.00
C112   C     0.37778   0.40449   0.77551   0.00000  Uiso   1.00
C113   C     0.12224   0.09552   0.22446   0.00000  Uiso   1.00
C114   C     0.40429   0.12243   0.77580   0.00000  Uiso   1.00
C115   C     0.02671   0.23048   0.95870   0.00000  Uiso   1.00
C116   C     0.09573   0.37756   0.22418   0.00000  Uiso   1.00
C117   C     0.37247   0.15426   0.72415   0.00000  Uiso   1.00
C118   C     0.12755   0.34573   0.27583   0.00000  Uiso   1.00
C119   C     0.34544   0.37216   0.72459   0.00000  Uiso   1.00
C120   C     0.15457   0.12785   0.27539   0.00000  Uiso   1.00
C121   C     0.12754   0.34574   0.72415   0.00000  Uiso   1.00
C122   C     0.37245   0.15427   0.27583   0.00000  Uiso   1.00
C123   C     0.15456   0.12784   0.72459   0.00000  Uiso   1.00
C124   C     0.34543   0.37215   0.27539   0.00000  Uiso   1.00
C125   C     0.37216   0.34544   0.27541   0.00000  Uiso   1.00
C126   C     0.47580   0.22743   0.54112   0.00000  Uiso   1.00
C127   C     0.12785   0.15457   0.72461   0.00000  Uiso   1.00
C128   C     0.34574   0.12753   0.27585   0.00000  Uiso   1.00
C129   C     0.15427   0.37245   0.72417   0.00000  Uiso   1.00
C130   C     0.12784   0.15456   0.27541   0.00000  Uiso   1.00
C131   C     0.37215   0.34543   0.72461   0.00000  Uiso   1.00
C132   C     0.15426   0.37246   0.27585   0.00000  Uiso   1.00
C133   C     0.34573   0.12755   0.72417   0.00000  Uiso   1.00
C134   C     0.09815   0.34814   0.25000   0.00000  Uiso   1.00
C135   C     0.40188   0.15184   0.74997   0.00000  Uiso   1.00
C136   C     0.15190   0.09818   0.24993   0.00000  Uiso   1.00
F137   F     0.21216   0.05265   0.02096   0.00000  Uiso   1.00
F138   F     0.48448   0.31300   0.47849   0.00000  Uiso   1.00
F139   F     0.18700   0.01552   0.52151   0.00000  Uiso   1.00
F140   F     0.29428   0.04753   0.47903   0.00000  Uiso   1.00
F141   F     0.04753   0.29428   0.52097   0.00000  Uiso   1.00
F142   F     0.01553   0.18700   0.47849   0.00000  Uiso   1.00
F143   F     0.31300   0.48447   0.52151   0.00000  Uiso   1.00
F144   F     0.20572   0.45247   0.47903   0.00000  Uiso   1.00
F145   F     0.28661   0.05352   0.97905   0.00000  Uiso   1.00
F146   F     0.44648   0.21339   0.02096   0.00000  Uiso   1.00
F147   F     0.44735   0.28784   0.97904   0.00000  Uiso   1.00
F148   F     0.28784   0.44735   0.02096   0.00000  Uiso   1.00
F149   F     0.21340   0.44648   0.97905   0.00000  Uiso   1.00
F150   F     0.05352   0.28660   0.02095   0.00000  Uiso   1.00
F151   F     0.05265   0.21216   0.97904   0.00000  Uiso   1.00
F152   F     0.45247   0.20572   0.52097   0.00000  Uiso   1.00
H153   H     0.12004   0.42676   0.20399   0.00000  Uiso   1.00
H154   H     0.38033   0.42714   0.20451   0.00000  Uiso   1.00
H155   H     0.07324   0.37996   0.79601   0.00000  Uiso   1.00
H156   H     0.42673   0.12007   0.20395   0.00000  Uiso   1.00
H157   H     0.38038   0.42717   0.79544   0.00000  Uiso   1.00
H158   H     0.11967   0.07286   0.20451   0.00000  Uiso   1.00
H159   H     0.42676   0.12004   0.79601   0.00000  Uiso   1.00
H160   H     0.07327   0.37993   0.20395   0.00000  Uiso   1.00
H161   H     0.37010   0.17671   0.70390   0.00000  Uiso   1.00
H162   H     0.12994   0.32326   0.29605   0.00000  Uiso   1.00
H163   H     0.32278   0.36957   0.70465   0.00000  Uiso   1.00
H164   H     0.37993   0.07327   0.79605   0.00000  Uiso   1.00
H165   H     0.17725   0.13045   0.29531   0.00000  Uiso   1.00
H166   H     0.12990   0.32329   0.70390   0.00000  Uiso   1.00
H167   H     0.37006   0.17674   0.29605   0.00000  Uiso   1.00
H168   H     0.17722   0.13043   0.70465   0.00000  Uiso   1.00
H169   H     0.32275   0.36955   0.29531   0.00000  Uiso   1.00
H170   H     0.36957   0.32278   0.29535   0.00000  Uiso   1.00
H171   H     0.13045   0.17725   0.70469   0.00000  Uiso   1.00
H172   H     0.32329   0.12990   0.29610   0.00000  Uiso   1.00
H173   H     0.17674   0.37006   0.70395   0.00000  Uiso   1.00
H174   H     0.13043   0.17722   0.29535   0.00000  Uiso   1.00
H175   H     0.07283   0.11962   0.20456   0.00000  Uiso   1.00
H176   H     0.36955   0.32275   0.70469   0.00000  Uiso   1.00
H177   H     0.17671   0.37010   0.29610   0.00000  Uiso   1.00
H178   H     0.32326   0.12994   0.70395   0.00000  Uiso   1.00
H179   H     0.20979   0.09296   0.14691   0.00000  Uiso   1.00
H180   H     0.33051   0.09301   0.89720   0.00000  Uiso   1.00
H181   H     0.40699   0.16949   0.10280   0.00000  Uiso   1.00
H182   H     0.40704   0.29021   0.85309   0.00000  Uiso   1.00
H183   H     0.29021   0.40704   0.14691   0.00000  Uiso   1.00
H184   H     0.16949   0.40699   0.89720   0.00000  Uiso   1.00
H185   H     0.09301   0.33051   0.10280   0.00000  Uiso   1.00
H186   H     0.42714   0.38033   0.79549   0.00000  Uiso   1.00
H187   H     0.09296   0.20979   0.85309   0.00000  Uiso   1.00
H188   H     0.40371   0.17395   0.60371   0.00000  Uiso   1.00
H189   H     0.49290   0.37320   0.39896   0.00000  Uiso   1.00
H190   H     0.12680   0.00710   0.60104   0.00000  Uiso   1.00
H191   H     0.32605   0.09629   0.39629   0.00000  Uiso   1.00
H192   H     0.09629   0.32605   0.60371   0.00000  Uiso   1.00
H193   H     0.00710   0.12680   0.39896   0.00000  Uiso   1.00
H194   H     0.37320   0.49290   0.60104   0.00000  Uiso   1.00
H195   H     0.17395   0.40371   0.39629   0.00000  Uiso   1.00
H196   H     0.37996   0.07324   0.20399   0.00000  Uiso   1.00
H197   H     0.12007   0.42673   0.79605   0.00000  Uiso   1.00
H198   H     0.42717   0.38038   0.20456   0.00000  Uiso   1.00
H199   H     0.07286   0.11967   0.79549   0.00000  Uiso   1.00
H200   H     0.11962   0.07283   0.79544   0.00000  Uiso   1.00
O201   O     0.25000  -0.00000   0.25000   0.00000  Uiso   1.00
O202   O     0.25000   0.46964   0.66317   0.00000  Uiso   1.00
O203   O     0.46964   0.25000   0.33683   0.00000  Uiso   1.00
O204   O     0.03036   0.25000   0.66317   0.00000  Uiso   1.00
O205   O     0.00000   0.21964   0.83683   0.00000  Uiso   1.00
O206   O     0.00000   0.28036   0.16317   0.00000  Uiso   1.00
O207   O     0.28036  -0.00000   0.83683   0.00000  Uiso   1.00
O208   O     0.21964  -0.00000   0.16317   0.00000  Uiso   1.00
O209   O     0.00000   0.28036   0.83683   0.00000  Uiso   1.00
O210   O     0.00000   0.21964   0.16317   0.00000  Uiso   1.00
O211   O     0.21964  -0.00000   0.83683   0.00000  Uiso   1.00
O212   O     0.25000  -0.00000   0.75000   0.00000  Uiso   1.00
O213   O     0.28036  -0.00000   0.16317   0.00000  Uiso   1.00
O214   O     0.20726   0.07307   0.27282   0.00000  Uiso   1.00
O215   O     0.29275   0.42693   0.72718   0.00000  Uiso   1.00
O216   O     0.42693   0.20725   0.27282   0.00000  Uiso   1.00
O217   O     0.07307   0.29274   0.72718   0.00000  Uiso   1.00
O218   O     0.29275   0.42693   0.27282   0.00000  Uiso   1.00
O219   O     0.20726   0.07307   0.72718   0.00000  Uiso   1.00
O220   O     0.07307   0.29274   0.27282   0.00000  Uiso   1.00
O221   O     0.42693   0.20725   0.72718   0.00000  Uiso   1.00
O222   O     0.20726   0.42693   0.72718   0.00000  Uiso   1.00
O223   O     0.00000   0.25000   0.25000   0.00000  Uiso   1.00
O224   O     0.29275   0.07307   0.27282   0.00000  Uiso   1.00
O225   O     0.42693   0.29274   0.72718   0.00000  Uiso   1.00
O226   O     0.07307   0.20725   0.27282   0.00000  Uiso   1.00
O227   O     0.29275   0.07307   0.72718   0.00000  Uiso   1.00
O228   O     0.20726   0.42693   0.27282   0.00000  Uiso   1.00
O229   O     0.07307   0.20725   0.72718   0.00000  Uiso   1.00
O230   O     0.42693   0.29274   0.27282   0.00000  Uiso   1.00
O231   O     0.45726   0.32307   0.77282   0.00000  Uiso   1.00
O232   O     0.04275   0.17693   0.22718   0.00000  Uiso   1.00
O233   O     0.17693   0.45725   0.77282   0.00000  Uiso   1.00
O234   O     0.00000   0.25000   0.75000   0.00000  Uiso   1.00
O235   O     0.32307   0.04274   0.22718   0.00000  Uiso   1.00
O236   O     0.04275   0.17693   0.77282   0.00000  Uiso   1.00
O237   O     0.45726   0.32307   0.22718   0.00000  Uiso   1.00
O238   O     0.32307   0.04274   0.77282   0.00000  Uiso   1.00
O239   O     0.17693   0.45725   0.22718   0.00000  Uiso   1.00
O240   O     0.45726   0.17693   0.22718   0.00000  Uiso   1.00
O241   O     0.04275   0.32307   0.77282   0.00000  Uiso   1.00
O242   O     0.17693   0.04274   0.22718   0.00000  Uiso   1.00
O243   O     0.32307   0.45725   0.77282   0.00000  Uiso   1.00
O244   O     0.04275   0.32307   0.22718   0.00000  Uiso   1.00
O245   O     0.25000   0.46964   0.33683   0.00000  Uiso   1.00
O246   O     0.45726   0.17693   0.77282   0.00000  Uiso   1.00
O247   O     0.32307   0.45725   0.22718   0.00000  Uiso   1.00
O248   O     0.17693   0.04274   0.77282   0.00000  Uiso   1.00
O249   O     0.18215   0.06892   0.08930   0.00000  Uiso   1.00
O250   O     0.22572   0.07295   0.13580   0.00000  Uiso   1.00
O251   O     0.27496   0.07166   0.86854   0.00000  Uiso   1.00
O252   O     0.32029   0.07226   0.91329   0.00000  Uiso   1.00
O253   O     0.42834   0.22504   0.13146   0.00000  Uiso   1.00
O254   O     0.42774   0.17971   0.08671   0.00000  Uiso   1.00
O255   O     0.43108   0.31785   0.91070   0.00000  Uiso   1.00
O256   O     0.25000   0.03036   0.66317   0.00000  Uiso   1.00
O257   O     0.42705   0.27428   0.86420   0.00000  Uiso   1.00
O258   O     0.31785   0.43108   0.08930   0.00000  Uiso   1.00
O259   O     0.27428   0.42705   0.13580   0.00000  Uiso   1.00
O260   O     0.22504   0.42834   0.86854   0.00000  Uiso   1.00
O261   O     0.17971   0.42774   0.91329   0.00000  Uiso   1.00
O262   O     0.07166   0.27496   0.13146   0.00000  Uiso   1.00
O263   O     0.07226   0.32029   0.08671   0.00000  Uiso   1.00
O264   O     0.06892   0.18215   0.91070   0.00000  Uiso   1.00
O265   O     0.07295   0.22572   0.86420   0.00000  Uiso   1.00
O266   O     0.46406   0.18178   0.62908   0.00000  Uiso   1.00
O267   O     0.03036   0.25000   0.33683   0.00000  Uiso   1.00
O268   O     0.41707   0.19312   0.58801   0.00000  Uiso   1.00
O269   O     0.47173   0.31977   0.36615   0.00000  Uiso   1.00
O270   O     0.49864   0.35086   0.41516   0.00000  Uiso   1.00
O271   O     0.18023   0.02827   0.63385   0.00000  Uiso   1.00
O272   O     0.14914   0.00136   0.58484   0.00000  Uiso   1.00
O273   O     0.31822   0.03594   0.37092   0.00000  Uiso   1.00
O274   O     0.30688   0.08293   0.41199   0.00000  Uiso   1.00
O275   O     0.03594   0.31822   0.62908   0.00000  Uiso   1.00
O276   O     0.08293   0.30688   0.58801   0.00000  Uiso   1.00
O277   O     0.02827   0.18023   0.36615   0.00000  Uiso   1.00
O278   O     0.46964   0.25000   0.66317   0.00000  Uiso   1.00
O279   O     0.00136   0.14914   0.41516   0.00000  Uiso   1.00
O280   O     0.31977   0.47173   0.63385   0.00000  Uiso   1.00
O281   O     0.35086   0.49864   0.58484   0.00000  Uiso   1.00
O282   O     0.18178   0.46406   0.37092   0.00000  Uiso   1.00
O283   O     0.19312   0.41707   0.41199   0.00000  Uiso   1.00
O284   O     0.25000   0.03036   0.33683   0.00000  Uiso   1.00
Zn285  Zn    0.20660  -0.00000   0.21760   0.00000  Uiso   1.00
Zn286  Zn    0.04340   0.25000   0.28240   0.00000  Uiso   1.00
Zn287  Zn    0.25000   0.45660   0.71760   0.00000  Uiso   1.00
Zn288  Zn    0.25000   0.04340   0.28240   0.00000  Uiso   1.00
Zn289  Zn    0.04340   0.25000   0.71760   0.00000  Uiso   1.00
Zn290  Zn    0.45660   0.25000   0.28240   0.00000  Uiso   1.00
Zn291  Zn    0.25000   0.04340   0.71760   0.00000  Uiso   1.00
Zn292  Zn    0.25000   0.45660   0.28240   0.00000  Uiso   1.00
Zn293  Zn    0.29340  -0.00000   0.78240   0.00000  Uiso   1.00
Zn294  Zn    0.00000   0.20660   0.21760   0.00000  Uiso   1.00
Zn295  Zn    0.00000   0.29340   0.78240   0.00000  Uiso   1.00
Zn296  Zn    0.29340  -0.00000   0.21760   0.00000  Uiso   1.00
Zn297  Zn    0.20660  -0.00000   0.78240   0.00000  Uiso   1.00
Zn298  Zn    0.00000   0.29340   0.21760   0.00000  Uiso   1.00
Zn299  Zn    0.00000   0.20660   0.78240   0.00000  Uiso   1.00
Zn300  Zn    0.45660   0.25000   0.71760   0.00000  Uiso   1.00
C301   C     0.73048   0.02671   0.04130   0.00000  Uiso   1.00
C302   C     0.99290   0.28232   0.45824   0.00000  Uiso   1.00
C303   C     0.84813   0.40184   0.75003   0.00000  Uiso   1.00
C304   C     0.90185   0.15186   0.25000   0.00000  Uiso   1.00
C305   C     0.59812   0.34816   0.74997   0.00000  Uiso   1.00
C306   C     0.84810   0.40182   0.24993   0.00000  Uiso   1.00
C307   C     0.65187   0.09816   0.75003   0.00000  Uiso   1.00
C308   C     0.59818   0.15190   0.75007   0.00000  Uiso   1.00
C309   C     0.90184   0.34813   0.24997   0.00000  Uiso   1.00
C310   C     0.65186   0.40185   0.75000   0.00000  Uiso   1.00
C311   C     0.84816   0.09812   0.25003   0.00000  Uiso   1.00
C312   C     0.90182   0.34810   0.75007   0.00000  Uiso   1.00
C313   C     0.71768   0.00710   0.54177   0.00000  Uiso   1.00
C314   C     0.59816   0.15187   0.24997   0.00000  Uiso   1.00
C315   C     0.84814   0.09815   0.75000   0.00000  Uiso   1.00
C316   C     0.65184   0.40188   0.25003   0.00000  Uiso   1.00
C317   C     0.75000  -0.00000   0.10241   0.00000  Uiso   1.00
C318   C     0.75000  -0.00000   0.89759   0.00000  Uiso   1.00
C319   C     0.50000   0.25000   0.10241   0.00000  Uiso   1.00
C320   C     0.50000   0.25000   0.89759   0.00000  Uiso   1.00
C321   C     0.50000   0.25000   0.60225   0.00000  Uiso   1.00
C322   C     0.50000   0.25000   0.39725   0.00000  Uiso   1.00
C323   C     0.75000  -0.00000   0.60275   0.00000  Uiso   1.00
C324   C     0.77257   0.02420   0.45888   0.00000  Uiso   1.00
C325   C     0.75000  -0.00000   0.39775   0.00000  Uiso   1.00
C326   C     0.71094   0.05735   0.10227   0.00000  Uiso   1.00
C327   C     0.78788   0.05828   0.89799   0.00000  Uiso   1.00
C328   C     0.94172   0.21212   0.10201   0.00000  Uiso   1.00
C329   C     0.94265   0.28906   0.89773   0.00000  Uiso   1.00
C330   C     0.78906   0.44265   0.10227   0.00000  Uiso   1.00
C331   C     0.71212   0.44172   0.89799   0.00000  Uiso   1.00
C332   C     0.55828   0.28788   0.10201   0.00000  Uiso   1.00
C333   C     0.55735   0.21094   0.89773   0.00000  Uiso   1.00
C334   C     0.95246   0.19929   0.60153   0.00000  Uiso   1.00
C335   C     0.52420   0.27257   0.54112   0.00000  Uiso   1.00
C336   C     0.98708   0.31849   0.39760   0.00000  Uiso   1.00
C337   C     0.68151   0.01292   0.60240   0.00000  Uiso   1.00
C338   C     0.80071   0.04754   0.39847   0.00000  Uiso   1.00
C339   C     0.54754   0.30071   0.60153   0.00000  Uiso   1.00
C340   C     0.51292   0.18151   0.39760   0.00000  Uiso   1.00
C341   C     0.81849   0.48708   0.60240   0.00000  Uiso   1.00
C342   C     0.69929   0.45246   0.39847   0.00000  Uiso   1.00
C343   C     0.50710   0.21768   0.45824   0.00000  Uiso   1.00
C344   C     0.78232   0.49290   0.54177   0.00000  Uiso   1.00
C345   C     0.72743   0.47580   0.45888   0.00000  Uiso   1.00
C346   C     0.73046   0.02729   0.08195   0.00000  Uiso   1.00
C347   C     0.76891   0.02775   0.91808   0.00000  Uiso   1.00
C348   C     0.97225   0.23109   0.08192   0.00000  Uiso   1.00
C349   C     0.76891   0.02715   0.95870   0.00000  Uiso   1.00
C350   C     0.97271   0.26954   0.91805   0.00000  Uiso   1.00
C351   C     0.76954   0.47271   0.08195   0.00000  Uiso   1.00
C352   C     0.73109   0.47225   0.91808   0.00000  Uiso   1.00
C353   C     0.52775   0.26891   0.08192   0.00000  Uiso   1.00
C354   C     0.52729   0.23046   0.91805   0.00000  Uiso   1.00
C355   C     0.97617   0.22639   0.58168   0.00000  Uiso   1.00
C356   C     0.99322   0.28294   0.41763   0.00000  Uiso   1.00
C357   C     0.71706   0.00678   0.58237   0.00000  Uiso   1.00
C358   C     0.77361   0.02383   0.41832   0.00000  Uiso   1.00
C359   C     0.52383   0.27361   0.58168   0.00000  Uiso   1.00
C360   C     0.97285   0.23109   0.04130   0.00000  Uiso   1.00
C361   C     0.50678   0.21706   0.41763   0.00000  Uiso   1.00
C362   C     0.78294   0.49322   0.58237   0.00000  Uiso   1.00
C363   C     0.72639   0.47617   0.41832   0.00000  Uiso   1.00
C364   C     0.75000  -0.00000   0.02123   0.00000  Uiso   1.00
C365   C     0.75000  -0.00000   0.97876   0.00000  Uiso   1.00
C366   C     0.50000   0.25000   0.02124   0.00000  Uiso   1.00
C367   C     0.50000   0.25000   0.97877   0.00000  Uiso   1.00
C368   C     0.50000   0.25000   0.52095   0.00000  Uiso   1.00
C369   C     0.50000   0.25000   0.47838   0.00000  Uiso   1.00
C370   C     0.75000  -0.00000   0.52163   0.00000  Uiso   1.00
C371   C     0.97329   0.26952   0.95870   0.00000  Uiso   1.00
C372   C     0.75000  -0.00000   0.47905   0.00000  Uiso   1.00
C373   C     0.75000  -0.00000   0.35518   0.00000  Uiso   1.00
C374   C     0.75000  -0.00000   0.64500   0.00000  Uiso   1.00
C375   C     0.50000   0.25000   0.35500   0.00000  Uiso   1.00
C376   C     0.50000   0.25000   0.64482   0.00000  Uiso   1.00
C377   C     0.50000   0.25000   0.85512   0.00000  Uiso   1.00
C378   C     0.50000   0.25000   0.14488   0.00000  Uiso   1.00
C379   C     0.75000  -0.00000   0.85512   0.00000  Uiso   1.00
C380   C     0.75000  -0.00000   0.14488   0.00000  Uiso   1.00
C381   C     0.67994   0.07010   0.24997   0.00000  Uiso   1.00
C382   C     0.76952   0.47329   0.04130   0.00000  Uiso   1.00
C383   C     0.82008   0.42992   0.75000   0.00000  Uiso   1.00
C384   C     0.92991   0.17992   0.24999   0.00000  Uiso   1.00
C385   C     0.57007   0.32009   0.74999   0.00000  Uiso   1.00
C386   C     0.82006   0.42990   0.24997   0.00000  Uiso   1.00
C387   C     0.67992   0.07008   0.75000   0.00000  Uiso   1.00
C388   C     0.57009   0.32008   0.24999   0.00000  Uiso   1.00
C389   C     0.92993   0.17991   0.74999   0.00000  Uiso   1.00
C390   C     0.67992   0.42991   0.75001   0.00000  Uiso   1.00
C391   C     0.82009   0.07007   0.25001   0.00000  Uiso   1.00
C392   C     0.92990   0.32006   0.75003   0.00000  Uiso   1.00
C393   C     0.73109   0.47285   0.95870   0.00000  Uiso   1.00
C394   C     0.57008   0.17992   0.25000   0.00000  Uiso   1.00
C395   C     0.82008   0.07009   0.75001   0.00000  Uiso   1.00
C396   C     0.67991   0.42993   0.25001   0.00000  Uiso   1.00
C397   C     0.57010   0.17994   0.75003   0.00000  Uiso   1.00
C398   C     0.92992   0.32008   0.25000   0.00000  Uiso   1.00
C399   C     0.62243   0.40429   0.22421   0.00000  Uiso   1.00
C400   C     0.87756   0.09572   0.77582   0.00000  Uiso   1.00
C401   C     0.59551   0.12222   0.22449   0.00000  Uiso   1.00
C402   C     0.90448   0.37776   0.77554   0.00000  Uiso   1.00
C403   C     0.87757   0.09571   0.22421   0.00000  Uiso   1.00
C404   C     0.52715   0.26891   0.04130   0.00000  Uiso   1.00
C405   C     0.62244   0.40427   0.77582   0.00000  Uiso   1.00
C406   C     0.90449   0.37778   0.22449   0.00000  Uiso   1.00
C407   C     0.59552   0.12224   0.77554   0.00000  Uiso   1.00
C408   C     0.62222   0.09551   0.77551   0.00000  Uiso   1.00
C409   C     0.87776   0.40448   0.22446   0.00000  Uiso   1.00
C410   C     0.59571   0.37757   0.77580   0.00000  Uiso   1.00
C411   C     0.90428   0.12244   0.22418   0.00000  Uiso   1.00
C412   C     0.87778   0.40449   0.77551   0.00000  Uiso   1.00
C413   C     0.62224   0.09552   0.22446   0.00000  Uiso   1.00
C414   C     0.90429   0.12243   0.77580   0.00000  Uiso   1.00
C415   C     0.52671   0.23048   0.95870   0.00000  Uiso   1.00
C416   C     0.59573   0.37756   0.22418   0.00000  Uiso   1.00
C417   C     0.87247   0.15426   0.72415   0.00000  Uiso   1.00
C418   C     0.62755   0.34573   0.27583   0.00000  Uiso   1.00
C419   C     0.84544   0.37216   0.72459   0.00000  Uiso   1.00
C420   C     0.65457   0.12785   0.27539   0.00000  Uiso   1.00
C421   C     0.62754   0.34574   0.72415   0.00000  Uiso   1.00
C422   C     0.87245   0.15427   0.27583   0.00000  Uiso   1.00
C423   C     0.65456   0.12784   0.72459   0.00000  Uiso   1.00
C424   C     0.84543   0.37215   0.27539   0.00000  Uiso   1.00
C425   C     0.87216   0.34544   0.27541   0.00000  Uiso   1.00
C426   C     0.97580   0.22743   0.54112   0.00000  Uiso   1.00
C427   C     0.62785   0.15457   0.72461   0.00000  Uiso   1.00
C428   C     0.84574   0.12753   0.27585   0.00000  Uiso   1.00
C429   C     0.65427   0.37245   0.72417   0.00000  Uiso   1.00
C430   C     0.62784   0.15456   0.27541   0.00000  Uiso   1.00
C431   C     0.87215   0.34543   0.72461   0.00000  Uiso   1.00
C432   C     0.65426   0.37246   0.27585   0.00000  Uiso   1.00
C433   C     0.84573   0.12755   0.72417   0.00000  Uiso   1.00
C434   C     0.59815   0.34814   0.25000   0.00000  Uiso   1.00
C435   C     0.90188   0.15184   0.74997   0.00000  Uiso   1.00
C436   C     0.65190   0.09818   0.24993   0.00000  Uiso   1.00
F437   F     0.71216   0.05265   0.02096   0.00000  Uiso   1.00
F438   F     0.98448   0.31300   0.47849   0.00000  Uiso   1.00
F439   F     0.68700   0.01552   0.52151   0.00000  Uiso   1.00
F440   F     0.79428   0.04753   0.47903   0.00000  Uiso   1.00
F441   F     0.54753   0.29428   0.52097   0.00000  Uiso   1.00
F442   F     0.51553   0.18700   0.47849   0.00000  Uiso   1.00
F443   F     0.81300   0.48447   0.52151   0.00000  Uiso   1.00
F444   F     0.70572   0.45247   0.47903   0.00000  Uiso   1.00
F445   F     0.78661   0.05352   0.97905   0.00000  Uiso   1.00
F446   F     0.94648   0.21339   0.02096   0.00000  Uiso   1.00
F447   F     0.94735   0.28784   0.97904   0.00000  Uiso   1.00
F448   F     0.78784   0.44735   0.02096   0.00000  Uiso   1.00
F449   F     0.71340   0.44648   0.97905   0.00000  Uiso   1.00
F450   F     0.55352   0.28660   0.02095   0.00000  Uiso   1.00
F451   F     0.55265   0.21216   0.97904   0.00000  Uiso   1.00
F452   F     0.95247   0.20572   0.52097   0.00000  Uiso   1.00
H453   H     0.62004   0.42676   0.20399   0.00000  Uiso   1.00
H454   H     0.88033   0.42714   0.20451   0.00000  Uiso   1.00
H455   H     0.57324   0.37996   0.79601   0.00000  Uiso   1.00
H456   H     0.92673   0.12007   0.20395   0.00000  Uiso   1.00
H457   H     0.88038   0.42717   0.79544   0.00000  Uiso   1.00
H458   H     0.61967   0.07286   0.20451   0.00000  Uiso   1.00
H459   H     0.92676   0.12004   0.79601   0.00000  Uiso   1.00
H460   H     0.57327   0.37993   0.20395   0.00000  Uiso   1.00
H461   H     0.87010   0.17671   0.70390   0.00000  Uiso   1.00
H462   H     0.62994   0.32326   0.29605   0.00000  Uiso   1.00
H463   H     0.82278   0.36957   0.70465   0.00000  Uiso   1.00
H464   H     0.87993   0.07327   0.79605   0.00000  Uiso   1.00
H465   H     0.67725   0.13045   0.29531   0.00000  Uiso   1.00
H466   H     0.62990   0.32329   0.70390   0.00000  Uiso   1.00
H467   H     0.87006   0.17674   0.29605   0.00000  Uiso   1.00
H468   H     0.67722   0.13043   0.70465   0.00000  Uiso   1.00
H469   H     0.82275   0.36955   0.29531   0.00000  Uiso   1.00
H470   H     0.86957   0.32278   0.29535   0.00000  Uiso   1.00
H471   H     0.63045   0.17725   0.70469   0.00000  Uiso   1.00
H472   H     0.82329   0.12990   0.29610   0.00000  Uiso   1.00
H473   H     0.67674   0.37006   0.70395   0.00000  Uiso   1.00
H474   H     0.63043   0.17722   0.29535   0.00000  Uiso   1.00
H475   H     0.57283   0.11962   0.20456   0.00000  Uiso   1.00
H476   H     0.86955   0.32275   0.70469   0.00000  Uiso   1.00
H477   H     0.67671   0.37010   0.29610   0.00000  Uiso   1.00
H478   H     0.82326   0.12994   0.70395   0.00000  Uiso   1.00
H479   H     0.70979   0.09296   0.14691   0.00000  Uiso   1.00
H480   H     0.83051   0.09301   0.89720   0.00000  Uiso   1.00
H481   H     0.90699   0.16949   0.10280   0.00000  Uiso   1.00
H482   H     0.90704   0.29021   0.85309   0.00000  Uiso   1.00
H483   H     0.79021   0.40704   0.14691   0.00000  Uiso   1.00
H484   H     0.66949   0.40699   0.89720   0.00000  Uiso   1.00
H485   H     0.59301   0.33051   0.10280   0.00000  Uiso   1.00
H486   H     0.92714   0.38033   0.79549   0.00000  Uiso   1.00
H487   H     0.59296   0.20979   0.85309   0.00000  Uiso   1.00
H488   H     0.90371   0.17395   0.60371   0.00000  Uiso   1.00
H489   H     0.99290   0.37320   0.39896   0.00000  Uiso   1.00
H490   H     0.62680   0.00710   0.60104   0.00000  Uiso   1.00
H491   H     0.82605   0.09629   0.39629   0.00000  Uiso   1.00
H492   H     0.59629   0.32605   0.60371   0.00000  Uiso   1.00
H493   H     0.50710   0.12680   0.39896   0.00000  Uiso   1.00
H494   H     0.87320   0.49290   0.60104   0.00000  Uiso   1.00
H495   H     0.67395   0.40371   0.39629   0.00000  Uiso   1.00
H496   H     0.87996   0.07324   0.20399   0.00000  Uiso   1.00
H497   H     0.62007   0.42673   0.79605   0.00000  Uiso   1.00
H498   H     0.92717   0.38038   0.20456   0.00000  Uiso   1.00
H499   H     0.57286   0.11967   0.79549   0.00000  Uiso   1.00
H500   H     0.61962   0.07283   0.79544   0.00000  Uiso   1.00
O501   O     0.75000  -0.00000   0.25000   0.00000  Uiso   1.00
O502   O     0.75000   0.46964   0.66317   0.00000  Uiso   1.00
O503   O     0.96964   0.25000   0.33683   0.00000  Uiso   1.00
O504   O     0.53036   0.25000   0.66317   0.00000  Uiso   1.00
O505   O     0.50000   0.21964   0.83683   0.00000  Uiso   1.00
O506   O     0.50000   0.28036   0.16317   0.00000  Uiso   1.00
O507   O     0.78036  -0.00000   0.83683   0.00000  Uiso   1.00
O508   O     0.71964  -0.00000   0.16317   0.00000  Uiso   1.00
O509   O     0.50000   0.28036   0.83683   0.00000  Uiso   1.00
O510   O     0.50000   0.21964   0.16317   0.00000  Uiso   1.00
O511   O     0.71964  -0.00000   0.83683   0.00000  Uiso   1.00
O512   O     0.75000  -0.00000   0.75000   0.00000  Uiso   1.00
O513   O     0.78036  -0.00000   0.16317   0.00000  Uiso   1.00
O514   O     0.70726   0.07307   0.27282   0.00000  Uiso   1.00
O515   O     0.79275   0.42693   0.72718   0.00000  Uiso   1.00
O516   O     0.92693   0.20725   0.27282   0.00000  Uiso   1.00
O517   O     0.57307   0.29274   0.72718   0.00000  Uiso   1.00
O518   O     0.79275   0.42693   0.27282   0.00000  Uiso   1.00
O519   O     0.70726   0.07307   0.72718   0.00000  Uiso   1.00
O520   O     0.57307   0.29274   0.27282   0.00000  Uiso   1.00
O521   O     0.92693   0.20725   0.72718   0.00000  Uiso   1.00
O522   O     0.70726   0.42693   0.72718   0.00000  Uiso   1.00
O523   O     0.50000   0.25000   0.25000   0.00000  Uiso   1.00
O524   O     0.79275   0.07307   0.27282   0.00000  Uiso   1.00
O525   O     0.92693   0.29274   0.72718   0.00000  Uiso   1.00
O526   O     0.57307   0.20725   0.27282   0.00000  Uiso   1.00
O527   O     0.79275   0.07307   0.72718   0.00000  Uiso   1.00
O528   O     0.70726   0.42693   0.27282   0.00000  Uiso   1.00
O529   O     0.57307   0.20725   0.72718   0.00000  Uiso   1.00
O530   O     0.92693   0.29274   0.27282   0.00000  Uiso   1.00
O531   O     0.95726   0.32307   0.77282   0.00000  Uiso   1.00
O532   O     0.54275   0.17693   0.22718   0.00000  Uiso   1.00
O533   O     0.67693   0.45725   0.77282   0.00000  Uiso   1.00
O534   O     0.50000   0.25000   0.75000   0.00000  Uiso   1.00
O535   O     0.82307   0.04274   0.22718   0.00000  Uiso   1.00
O536   O     0.54275   0.17693   0.77282   0.00000  Uiso   1.00
O537   O     0.95726   0.32307   0.22718   0.00000  Uiso   1.00
O538   O     0.82307   0.04274   0.77282   0.00000  Uiso   1.00
O539   O     0.67693   0.45725   0.22718   0.00000  Uiso   1.00
O540   O     0.95726   0.17693   0.22718   0.00000  Uiso   1.00
O541   O     0.54275   0.32307   0.77282   0.00000  Uiso   1.00
O542   O     0.67693   0.04274   0.22718   0.00000  Uiso   1.00
O543   O     0.82307   0.45725   0.77282   0.00000  Uiso   1.00
O544   O     0.54275   0.32307   0.22718   0.00000  Uiso   1.00
O545   O     0.75000   0.46964   0.33683   0.00000  Uiso   1.00
O546   O     0.95726   0.17693   0.77282   0.00000  Uiso   1.00
O547   O     0.82307   0.45725   0.22718   0.00000  Uiso   1.00
O548   O     0.67693   0.04274   0.77282   0.00000  Uiso   1.00
O549   O     0.68215   0.06892   0.08930   0.00000  Uiso   1.00
O550   O     0.72572   0.07295   0.13580   0.00000  Uiso   1.00
O551   O     0.77496   0.07166   0.86854   0.00000  Uiso   1.00
O552   O     0.82029   0.07226   0.91329   0.00000  Uiso   1.00
O553   O     0.92834   0.22504   0.13146   0.00000  Uiso   1.00
O554   O     0.92774   0.17971   0.08671   0.00000  Uiso   1.00
O555   O     0.93108   0.31785   0.91070   0.00000  Uiso   1.00
O556   O     0.75000   0.03036   0.66317   0.00000  Uiso   1.00
O557   O     0.92705   0.27428   0.86420   0.00000  Uiso   1.00
O558   O     0.81785   0.43108   0.08930   0.00000  Uiso   1.00
O559   O     0.77428   0.42705   0.13580   0.00000  Uiso   1.00
O560   O     0.72504   0.42834   0.86854   0.00000  Uiso   1.00
O561   O     0.67971   0.42774   0.91329   0.00000  Uiso   1.00
O562   O     0.57166   0.27496   0.13146   0.00000  Uiso   1.00
O563   O     0.57226   0.32029   0.08671   0.00000  Uiso   1.00
O564   O     0.56892   0.18215   0.91070   0.00000  Uiso   1.00
O565   O     0.57295   0.22572   0.86420   0.00000  Uiso   1.00
O566   O     0.96406   0.18178   0.62908   0.00000  Uiso   1.00
O567   O     0.53036   0.25000   0.33683   0.00000  Uiso   1.00
O568   O     0.91707   0.19312   0.58801   0.00000  Uiso   1.00
O569   O     0.97173   0.31977   0.36615   0.00000  Uiso   1.00
O570   O     0.99864   0.35086   0.41516   0.00000  Uiso   1.00
O571   O     0.68023   0.02827   0.63385   0.00000  Uiso   1.00
O572   O     0.64914   0.00136   0.58484   0.00000  Uiso   1.00
O573   O     0.81822   0.03594   0.37092   0.00000  Uiso   1.00
O574   O     0.80688   0.08293   0.41199   0.00000  Uiso   1.00
O575   O     0.53594   0.31822   0.62908   0.00000  Uiso   1.00
O576   O     0.58293   0.30688   0.58801   0.00000  Uiso   1.00
O577   O     0.52827   0.18023   0.36615   0.00000  Uiso   1.00
O578   O     0.96964   0.25000   0.66317   0.00000  Uiso   1.00
O579   O     0.50136   0.14914   0.41516   0.00000  Uiso   1.00
O580   O     0.81977   0.47173   0.63385   0.00000  Uiso   1.00
O581   O     0.85086   0.49864   0.58484   0.00000  Uiso   1.00
O582   O     0.68178   0.46406   0.37092   0.00000  Uiso   1.00
O583   O     0.69312   0.41707   0.41199   0.00000  Uiso   1.00
O584   O     0.75000   0.03036   0.33683   0.00000  Uiso   1.00
Zn585  Zn    0.70660  -0.00000   0.21760   0.00000  Uiso   1.00
Zn586  Zn    0.54340   0.25000   0.28240   0.00000  Uiso   1.00
Zn587  Zn    0.75000   0.45660   0.71760   0.00000  Uiso   1.00
Zn588  Zn    0.75000   0.04340   0.28240   0.00000  Uiso   1.00
Zn589  Zn    0.54340   0.25000   0.71760   0.00000  Uiso   1.00
Zn590  Zn    0.95660   0.25000   0.28240   0.00000  Uiso   1.00
Zn591  Zn    0.75000   0.04340   0.71760   0.00000  Uiso   1.00
Zn592  Zn    0.75000   0.45660   0.28240   0.00000  Uiso   1.00
Zn593  Zn    0.79340  -0.00000   0.78240   0.00000  Uiso   1.00
Zn594  Zn    0.50000   0.20660   0.21760   0.00000  Uiso   1.00
Zn595  Zn    0.50000   0.29340   0.78240   0.00000  Uiso   1.00
Zn596  Zn    0.79340  -0.00000   0.21760   0.00000  Uiso   1.00
Zn597  Zn    0.70660  -0.00000   0.78240   0.00000  Uiso   1.00
Zn598  Zn    0.50000   0.29340   0.21760   0.00000  Uiso   1.00
Zn599  Zn    0.50000   0.20660   0.78240   0.00000  Uiso   1.00
Zn600  Zn    0.95660   0.25000   0.71760   0.00000  Uiso   1.00
C601   C     0.23048   0.52671   0.04130   0.00000  Uiso   1.00
C602   C     0.49290   0.78232   0.45824   0.00000  Uiso   1.00
C603   C     0.34813   0.90184   0.75003   0.00000  Uiso   1.00
C604   C     0.40185   0.65186   0.25000   0.00000  Uiso   1.00
C605   C     0.09812   0.84816   0.74997   0.00000  Uiso   1.00
C606   C     0.34810   0.90182   0.24993   0.00000  Uiso   1.00
C607   C     0.15187   0.59816   0.75003   0.00000  Uiso   1.00
C608   C     0.09818   0.65190   0.75007   0.00000  Uiso   1.00
C609   C     0.40184   0.84813   0.24997   0.00000  Uiso   1.00
C610   C     0.15186   0.90185   0.75000   0.00000  Uiso   1.00
C611   C     0.34816   0.59812   0.25003   0.00000  Uiso   1.00
C612   C     0.40182   0.84810   0.75007   0.00000  Uiso   1.00
C613   C     0.21768   0.50710   0.54177   0.00000  Uiso   1.00
C614   C     0.09816   0.65187   0.24997   0.00000  Uiso   1.00
C615   C     0.34814   0.59815   0.75000   0.00000  Uiso   1.00
C616   C     0.15184   0.90188   0.25003   0.00000  Uiso   1.00
C617   C     0.25000   0.50000   0.10241   0.00000  Uiso   1.00
C618   C     0.25000   0.50000   0.89759   0.00000  Uiso   1.00
C619   C     0.00000   0.75000   0.10241   0.00000  Uiso   1.00
C620   C     0.00000   0.75000   0.89759   0.00000  Uiso   1.00
C621   C     0.00000   0.75000   0.60225   0.00000  Uiso   1.00
C622   C     0.00000   0.75000   0.39725   0.00000  Uiso   1.00
C623   C     0.25000   0.50000   0.60275   0.00000  Uiso   1.00
C624   C     0.27257   0.52420   0.45888   0.00000  Uiso   1.00
C625   C     0.25000   0.50000   0.39775   0.00000  Uiso   1.00
C626   C     0.21094   0.55735   0.10227   0.00000  Uiso   1.00
C627   C     0.28788   0.55828   0.89799   0.00000  Uiso   1.00
C628   C     0.44172   0.71212   0.10201   0.00000  Uiso   1.00
C629   C     0.44265   0.78906   0.89773   0.00000  Uiso   1.00
C630   C     0.28906   0.94265   0.10227   0.00000  Uiso   1.00
C631   C     0.21212   0.94172   0.89799   0.00000  Uiso   1.00
C632   C     0.05828   0.78788   0.10201   0.00000  Uiso   1.00
C633   C     0.05735   0.71094   0.89773   0.00000  Uiso   1.00
C634   C     0.45246   0.69929   0.60153   0.00000  Uiso   1.00
C635   C     0.02420   0.77257   0.54112   0.00000  Uiso   1.00
C636   C     0.48708   0.81849   0.39760   0.00000  Uiso   1.00
C637   C     0.18151   0.51292   0.60240   0.00000  Uiso   1.00
C638   C     0.30071   0.54754   0.39847   0.00000  Uiso   1.00
C639   C     0.04754   0.80071   0.60153   0.00000  Uiso   1.00
C640   C     0.01292   0.68151   0.39760   0.00000  Uiso   1.00
C641   C     0.31849   0.98708   0.60240   0.00000  Uiso   1.00
C642   C     0.19929   0.95246   0.39847   0.00000  Uiso   1.00
C643   C     0.00710   0.71768   0.45824   0.00000  Uiso   1.00
C644   C     0.28232   0.99290   0.54177   0.00000  Uiso   1.00
C645   C     0.22743   0.97580   0.45888   0.00000  Uiso   1.00
C646   C     0.23046   0.52729   0.08195   0.00000  Uiso   1.00
C647   C     0.26891   0.52775   0.91808   0.00000  Uiso   1.00
C648   C     0.47225   0.73109   0.08192   0.00000  Uiso   1.00
C649   C     0.26891   0.52715   0.95870   0.00000  Uiso   1.00
C650   C     0.47271   0.76954   0.91805   0.00000  Uiso   1.00
C651   C     0.26954   0.97271   0.08195   0.00000  Uiso   1.00
C652   C     0.23109   0.97225   0.91808   0.00000  Uiso   1.00
C653   C     0.02775   0.76891   0.08192   0.00000  Uiso   1.00
C654   C     0.02729   0.73046   0.91805   0.00000  Uiso   1.00
C655   C     0.47617   0.72639   0.58168   0.00000  Uiso   1.00
C656   C     0.49322   0.78294   0.41763   0.00000  Uiso   1.00
C657   C     0.21706   0.50678   0.58237   0.00000  Uiso   1.00
C658   C     0.27361   0.52383   0.41832   0.00000  Uiso   1.00
C659   C     0.02383   0.77361   0.58168   0.00000  Uiso   1.00
C660   C     0.47285   0.73109   0.04130   0.00000  Uiso   1.00
C661   C     0.00678   0.71706   0.41763   0.00000  Uiso   1.00
C662   C     0.28294   0.99322   0.58237   0.00000  Uiso   1.00
C663   C     0.22639   0.97617   0.41832   0.00000  Uiso   1.00
C664   C     0.25000   0.50000   0.02123   0.00000  Uiso   1.00
C665   C     0.25000   0.50000   0.97876   0.00000  Uiso   1.00
C666   C     0.00000   0.75000   0.02124   0.00000  Uiso   1.00
C667   C     0.00000   0.75000   0.97877   0.00000  Uiso   1.00
C668   C     0.00000   0.75000   0.52095   0.00000  Uiso   1.00
C669   C     0.00000   0.75000   0.47838   0.00000  Uiso   1.00
C670   C     0.25000   0.50000   0.52163   0.00000  Uiso   1.00
C671   C     0.47329   0.76952   0.95870   0.00000  Uiso   1.00
C672   C     0.25000   0.50000   0.47905   0.00000  Uiso   1.00
C673   C     0.25000   0.50000   0.35518   0.00000  Uiso   1.00
C674   C     0.25000   0.50000   0.64500   0.00000  Uiso   1.00
C675   C     0.00000   0.75000   0.35500   0.00000  Uiso   1.00
C676   C     0.00000   0.75000   0.64482   0.00000  Uiso   1.00
C677   C     0.00000   0.75000   0.85512   0.00000  Uiso   1.00
C678   C     0.00000   0.75000   0.14488   0.00000  Uiso   1.00
C679   C     0.25000   0.50000   0.85512   0.00000  Uiso   1.00
C680   C     0.25000   0.50000   0.14488   0.00000  Uiso   1.00
C681   C     0.17994   0.57010   0.24997   0.00000  Uiso   1.00
C682   C     0.26952   0.97329   0.04130   0.00000  Uiso   1.00
C683   C     0.32008   0.92992   0.75000   0.00000  Uiso   1.00
C684   C     0.42991   0.67992   0.24999   0.00000  Uiso   1.00
C685   C     0.07007   0.82009   0.74999   0.00000  Uiso   1.00
C686   C     0.32006   0.92990   0.24997   0.00000  Uiso   1.00
C687   C     0.17992   0.57008   0.75000   0.00000  Uiso   1.00
C688   C     0.07009   0.82008   0.24999   0.00000  Uiso   1.00
C689   C     0.42993   0.67991   0.74999   0.00000  Uiso   1.00
C690   C     0.17992   0.92991   0.75001   0.00000  Uiso   1.00
C691   C     0.32009   0.57007   0.25001   0.00000  Uiso   1.00
C692   C     0.42990   0.82006   0.75003   0.00000  Uiso   1.00
C693   C     0.23109   0.97285   0.95870   0.00000  Uiso   1.00
C694   C     0.07008   0.67992   0.25000   0.00000  Uiso   1.00
C695   C     0.32008   0.57009   0.75001   0.00000  Uiso   1.00
C696   C     0.17991   0.92993   0.25001   0.00000  Uiso   1.00
C697   C     0.07010   0.67994   0.75003   0.00000  Uiso   1.00
C698   C     0.42992   0.82008   0.25000   0.00000  Uiso   1.00
C699   C     0.12243   0.90429   0.22421   0.00000  Uiso   1.00
C700   C     0.37756   0.59572   0.77582   0.00000  Uiso   1.00
C701   C     0.09551   0.62222   0.22449   0.00000  Uiso   1.00
C702   C     0.40448   0.87776   0.77554   0.00000  Uiso   1.00
C703   C     0.37757   0.59571   0.22421   0.00000  Uiso   1.00
C704   C     0.02715   0.76891   0.04130   0.00000  Uiso   1.00
C705   C     0.12244   0.90427   0.77582   0.00000  Uiso   1.00
C706   C     0.40449   0.87778   0.22449   0.00000  Uiso   1.00
C707   C     0.09552   0.62224   0.77554   0.00000  Uiso   1.00
C708   C     0.12222   0.59551   0.77551   0.00000  Uiso   1.00
C709   C     0.37776   0.90448   0.22446   0.00000  Uiso   1.00
C710   C     0.09571   0.87757   0.77580   0.00000  Uiso   1.00
C711   C     0.40428   0.62244   0.22418   0.00000  Uiso   1.00
C712   C     0.37778   0.90449   0.77551   0.00000  Uiso   1.00
C713   C     0.12224   0.59552   0.22446   0.00000  Uiso   1.00
C714   C     0.40429   0.62243   0.77580   0.00000  Uiso   1.00
C715   C     0.02671   0.73048   0.95870   0.00000  Uiso   1.00
C716   C     0.09573   0.87756   0.22418   0.00000  Uiso   1.00
C717   C     0.37247   0.65426   0.72415   0.00000  Uiso   1.00
C718   C     0.12755   0.84573   0.27583   0.00000  Uiso   1.00
C719   C     0.34544   0.87216   0.72459   0.00000  Uiso   1.00
C720   C     0.15457   0.62785   0.27539   0.00000  Uiso   1.00
C721   C     0.12754   0.84574   0.72415   0.00000  Uiso   1.00
C722   C     0.37245   0.65427   0.27583   0.00000  Uiso   1.00
C723   C     0.15456   0.62784   0.72459   0.00000  Uiso   1.00
C724   C     0.34543   0.87215   0.27539   0.00000  Uiso   1.00
C725   C     0.37216   0.84544   0.27541   0.00000  Uiso   1.00
C726   C     0.47580   0.72743   0.54112   0.00000  Uiso   1.00
C727   C     0.12785   0.65457   0.72461   0.00000  Uiso   1.00
C728   C     0.34574   0.62753   0.27585   0.00000  Uiso   1.00
C729   C     0.15427   0.87245   0.72417   0.00000  Uiso   1.00
C730   C     0.12784   0.65456   0.27541   0.00000  Uiso   1.00
C731   C     0.37215   0.84543   0.72461   0.00000  Uiso   1.00
C732   C     0.15426   0.87246   0.27585   0.00000  Uiso   1.00
C733   C     0.34573   0.62755   0.72417   0.00000  Uiso   1.00
C734   C     0.09815   0.84814   0.25000   0.00000  Uiso   1.00
C735   C     0.40188   0.65184   0.74997   0.00000  Uiso   1.00
C736   C     0.15190   0.59818   0.24993   0.00000  Uiso   1.00
F737   F     0.21216   0.55265   0.02096   0.00000  Uiso   1.00
F738   F     0.48448   0.81300   0.47849   0.00000  Uiso   1.00
F739   F     0.18700   0.51552   0.52151   0.00000  Uiso   1.00
F740   F     0.29428   0.54753   0.47903   0.00000  Uiso   1.00
F741   F     0.04753   0.79428   0.52097   0.00000  Uiso   1.00
F742   F     0.01553   0.68700   0.47849   0.00000  Uiso   1.00
F743   F     0.31300   0.98447   0.52151   0.00000  Uiso   1.00
F744   F     0.20572   0.95247   0.47903   0.00000  Uiso   1.00
F745   F     0.28661   0.55352   0.97905   0.00000  Uiso   1.00
F746   F     0.44648   0.71339   0.02096   0.00000  Uiso   1.00
F747   F     0.44735   0.78784   0.97904   0.00000  Uiso   1.00
F748   F     0.28784   0.94735   0.02096   0.00000  Uiso   1.00
F749   F     0.21340   0.94648   0.97905   0.00000  Uiso   1.00
F750   F     0.05352   0.78660   0.02095   0.00000  Uiso   1.00
F751   F     0.05265   0.71216   0.97904   0.00000  Uiso   1.00
F752   F     0.45247   0.70572   0.52097   0.00000  Uiso   1.00
H753   H     0.12004   0.92676   0.20399   0.00000  Uiso   1.00
H754   H     0.38033   0.92714   0.20451   0.00000  Uiso   1.00
H755   H     0.07324   0.87996   0.79601   0.00000  Uiso   1.00
H756   H     0.42673   0.62007   0.20395   0.00000  Uiso   1.00
H757   H     0.38038   0.92717   0.79544   0.00000  Uiso   1.00
H758   H     0.11967   0.57286   0.20451   0.00000  Uiso   1.00
H759   H     0.42676   0.62004   0.79601   0.00000  Uiso   1.00
H760   H     0.07327   0.87993   0.20395   0.00000  Uiso   1.00
H761   H     0.37010   0.67671   0.70390   0.00000  Uiso   1.00
H762   H     0.12994   0.82326   0.29605   0.00000  Uiso   1.00
H763   H     0.32278   0.86957   0.70465   0.00000  Uiso   1.00
H764   H     0.37993   0.57327   0.79605   0.00000  Uiso   1.00
H765   H     0.17725   0.63045   0.29531   0.00000  Uiso   1.00
H766   H     0.12990   0.82329   0.70390   0.00000  Uiso   1.00
H767   H     0.37006   0.67674   0.29605   0.00000  Uiso   1.00
H768   H     0.17722   0.63043   0.70465   0.00000  Uiso   1.00
H769   H     0.32275   0.86955   0.29531   0.00000  Uiso   1.00
H770   H     0.36957   0.82278   0.29535   0.00000  Uiso   1.00
H771   H     0.13045   0.67725   0.70469   0.00000  Uiso   1.00
H772   H     0.32329   0.62990   0.29610   0.00000  Uiso   1.00
H773   H     0.17674   0.87006   0.70395   0.00000  Uiso   1.00
H774   H     0.13043   0.67722   0.29535   0.00000  Uiso   1.00
H775   H     0.07283   0.61962   0.20456   0.00000  Uiso   1.00
H776   H     0.36955   0.82275   0.70469   0.00000  Uiso   1.00
H777   H     0.17671   0.87010   0.29610   0.00000  Uiso   1.00
H778   H     0.32326   0.62994   0.70395   0.00000  Uiso   1.00
H779   H     0.20979   0.59296   0.14691   0.00000  Uiso   1.00
H780   H     0.33051   0.59301   0.89720   0.00000  Uiso   1.00
H781   H     0.40699   0.66949   0.10280   0.00000  Uiso   1.00
H782   H     0.40704   0.79021   0.85309   0.00000  Uiso   1.00
H783   H     0.29021   0.90704   0.14691   0.00000  Uiso   1.00
H784   H     0.16949   0.90699   0.89720   0.00000  Uiso   1.00
H785   H     0.09301   0.83051   0.10280   0.00000  Uiso   1.00
H786   H     0.42714   0.88033   0.79549   0.00000  Uiso   1.00
H787   H     0.09296   0.70979   0.85309   0.00000  Uiso   1.00
H788   H     0.40371   0.67395   0.60371   0.00000  Uiso   1.00
H789   H     0.49290   0.87320   0.39896   0.00000  Uiso   1.00
H790   H     0.12680   0.50710   0.60104   0.00000  Uiso   1.00
H791   H     0.32605   0.59629   0.39629   0.00000  Uiso   1.00
H792   H     0.09629   0.82605   0.60371   0.00000  Uiso   1.00
H793   H     0.00710   0.62680   0.39896   0.00000  Uiso   1.00
H794   H     0.37320   0.99290   0.60104   0.00000  Uiso   1.00
H795   H     0.17395   0.90371   0.39629   0.00000  Uiso   1.00
H796   H     0.37996   0.57324   0.20399   0.00000  Uiso   1.00
H797   H     0.12007   0.92673   0.79605   0.00000  Uiso   1.00
H798   H     0.42717   0.88038   0.20456   0.00000  Uiso   1.00
H799   H     0.07286   0.61967   0.79549   0.00000  Uiso   1.00
H800   H     0.11962   0.57283   0.79544   0.00000  Uiso   1.00
O801   O     0.25000   0.50000   0.25000   0.00000  Uiso   1.00
O802   O     0.25000   0.96964   0.66317   0.00000  Uiso   1.00
O803   O     0.46964   0.75000   0.33683   0.00000  Uiso   1.00
O804   O     0.03036   0.75000   0.66317   0.00000  Uiso   1.00
O805   O     0.00000   0.71964   0.83683   0.00000  Uiso   1.00
O806   O     0.00000   0.78036   0.16317   0.00000  Uiso   1.00
O807   O     0.28036   0.50000   0.83683   0.00000  Uiso   1.00
O808   O     0.21964   0.50000   0.16317   0.00000  Uiso   1.00
O809   O     0.00000   0.78036   0.83683   0.00000  Uiso   1.00
O810   O     0.00000   0.71964   0.16317   0.00000  Uiso   1.00
O811   O     0.21964   0.50000   0.83683   0.00000  Uiso   1.00
O812   O     0.25000   0.50000   0.75000   0.00000  Uiso   1.00
O813   O     0.28036   0.50000   0.16317   0.00000  Uiso   1.00
O814   O     0.20726   0.57307   0.27282   0.00000  Uiso   1.00
O815   O     0.29275   0.92693   0.72718   0.00000  Uiso   1.00
O816   O     0.42693   0.70725   0.27282   0.00000  Uiso   1.00
O817   O     0.07307   0.79274   0.72718   0.00000  Uiso   1.00
O818   O     0.29275   0.92693   0.27282   0.00000  Uiso   1.00
O819   O     0.20726   0.57307   0.72718   0.00000  Uiso   1.00
O820   O     0.07307   0.79274   0.27282   0.00000  Uiso   1.00
O821   O     0.42693   0.70725   0.72718   0.00000  Uiso   1.00
O822   O     0.20726   0.92693   0.72718   0.00000  Uiso   1.00
O823   O     0.00000   0.75000   0.25000   0.00000  Uiso   1.00
O824   O     0.29275   0.57307   0.27282   0.00000  Uiso   1.00
O825   O     0.42693   0.79274   0.72718   0.00000  Uiso   1.00
O826   O     0.07307   0.70725   0.27282   0.00000  Uiso   1.00
O827   O     0.29275   0.57307   0.72718   0.00000  Uiso   1.00
O828   O     0.20726   0.92693   0.27282   0.00000  Uiso   1.00
O829   O     0.07307   0.70725   0.72718   0.00000  Uiso   1.00
O830   O     0.42693   0.79274   0.27282   0.00000  Uiso   1.00
O831   O     0.45726   0.82307   0.77282   0.00000  Uiso   1.00
O832   O     0.04275   0.67693   0.22718   0.00000  Uiso   1.00
O833   O     0.17693   0.95725   0.77282   0.00000  Uiso   1.00
O834   O     0.00000   0.75000   0.75000   0.00000  Uiso   1.00
O835   O     0.32307   0.54274   0.22718   0.00000  Uiso   1.00
O836   O     0.04275   0.67693   0.77282   0.00000  Uiso   1.00
O837   O     0.45726   0.82307   0.22718   0.00000  Uiso   1.00
O838   O     0.32307   0.54274   0.77282   0.00000  Uiso   1.00
O839   O     0.17693   0.95725   0.22718   0.00000  Uiso   1.00
O840   O     0.45726   0.67693   0.22718   0.00000  Uiso   1.00
O841   O     0.04275   0.82307   0.77282   0.00000  Uiso   1.00
O842   O     0.17693   0.54274   0.22718   0.00000  Uiso   1.00
O843   O     0.32307   0.95725   0.77282   0.00000  Uiso   1.00
O844   O     0.04275   0.82307   0.22718   0.00000  Uiso   1.00
O845   O     0.25000   0.96964   0.33683   0.00000  Uiso   1.00
O846   O     0.45726   0.67693   0.77282   0.00000  Uiso   1.00
O847   O     0.32307   0.95725   0.22718   0.00000  Uiso   1.00
O848   O     0.17693   0.54274   0.77282   0.00000  Uiso   1.00
O849   O     0.18215   0.56892   0.08930   0.00000  Uiso   1.00
O850   O     0.22572   0.57295   0.13580   0.00000  Uiso   1.00
O851   O     0.27496   0.57166   0.86854   0.00000  Uiso   1.00
O852   O     0.32029   0.57226   0.91329   0.00000  Uiso   1.00
O853   O     0.42834   0.72504   0.13146   0.00000  Uiso   1.00
O854   O     0.42774   0.67971   0.08671   0.00000  Uiso   1.00
O855   O     0.43108   0.81785   0.91070   0.00000  Uiso   1.00
O856   O     0.25000   0.53036   0.66317   0.00000  Uiso   1.00
O857   O     0.42705   0.77428   0.86420   0.00000  Uiso   1.00
O858   O     0.31785   0.93108   0.08930   0.00000  Uiso   1.00
O859   O     0.27428   0.92705   0.13580   0.00000  Uiso   1.00
O860   O     0.22504   0.92834   0.86854   0.00000  Uiso   1.00
O861   O     0.17971   0.92774   0.91329   0.00000  Uiso   1.00
O862   O     0.07166   0.77496   0.13146   0.00000  Uiso   1.00
O863   O     0.07226   0.82029   0.08671   0.00000  Uiso   1.00
O864   O     0.06892   0.68215   0.91070   0.00000  Uiso   1.00
O865   O     0.07295   0.72572   0.86420   0.00000  Uiso   1.00
O866   O     0.46406   0.68178   0.62908   0.00000  Uiso   1.00
O867   O     0.03036   0.75000   0.33683   0.00000  Uiso   1.00
O868   O     0.41707   0.69312   0.58801   0.00000  Uiso   1.00
O869   O     0.47173   0.81977   0.36615   0.00000  Uiso   1.00
O870   O     0.49864   0.85086   0.41516   0.00000  Uiso   1.00
O871   O     0.18023   0.52827   0.63385   0.00000  Uiso   1.00
O872   O     0.14914   0.50136   0.58484   0.00000  Uiso   1.00
O873   O     0.31822   0.53594   0.37092   0.00000  Uiso   1.00
O874   O     0.30688   0.58293   0.41199   0.00000  Uiso   1.00
O875   O     0.03594   0.81822   0.62908   0.00000  Uiso   1.00
O876   O     0.08293   0.80688   0.58801   0.00000  Uiso   1.00
O877   O     0.02827   0.68023   0.36615   0.00000  Uiso   1.00
O878   O     0.46964   0.75000   0.66317   0.00000  Uiso   1.00
O879   O     0.00136   0.64914   0.41516   0.00000  Uiso   1.00
O880   O     0.31977   0.97173   0.63385   0.00000  Uiso   1.00
O881   O     0.35086   0.99864   0.58484   0.00000  Uiso   1.00
O882   O     0.18178   0.96406   0.37092   0.00000  Uiso   1.00
O883   O     0.19312   0.91707   0.41199   0.00000  Uiso   1.00
O884   O     0.25000   0.53036   0.33683   0.00000  Uiso   1.00
Zn885  Zn    0.20660   0.50000   0.21760   0.00000  Uiso   1.00
Zn886  Zn    0.04340   0.75000   0.28240   0.00000  Uiso   1.00
Zn887  Zn    0.25000   0.95660   0.71760   0.00000  Uiso   1.00
Zn888  Zn    0.25000   0.54340   0.28240   0.00000  Uiso   1.00
Zn889  Zn    0.04340   0.75000   0.71760   0.00000  Uiso   1.00
Zn890  Zn    0.45660   0.75000   0.28240   0.00000  Uiso   1.00
Zn891  Zn    0.25000   0.54340   0.71760   0.00000  Uiso   1.00
Zn892  Zn    0.25000   0.95660   0.28240   0.00000  Uiso   1.00
Zn893  Zn    0.29340   0.50000   0.78240   0.00000  Uiso   1.00
Zn894  Zn    0.00000   0.70660   0.21760   0.00000  Uiso   1.00
Zn895  Zn    0.00000   0.79340   0.78240   0.00000  Uiso   1.00
Zn896  Zn    0.29340   0.50000   0.21760   0.00000  Uiso   1.00
Zn897  Zn    0.20660   0.50000   0.78240   0.00000  Uiso   1.00
Zn898  Zn    0.00000   0.79340   0.21760   0.00000  Uiso   1.00
Zn899  Zn    0.00000   0.70660   0.78240   0.00000  Uiso   1.00
Zn900  Zn    0.45660   0.75000   0.71760   0.00000  Uiso   1.00
C901   C     0.73048   0.52671   0.04130   0.00000  Uiso   1.00
C902   C     0.99290   0.78232   0.45824   0.00000  Uiso   1.00
C903   C     0.84813   0.90184   0.75003   0.00000  Uiso   1.00
C904   C     0.90185   0.65186   0.25000   0.00000  Uiso   1.00
C905   C     0.59812   0.84816   0.74997   0.00000  Uiso   1.00
C906   C     0.84810   0.90182   0.24993   0.00000  Uiso   1.00
C907   C     0.65187   0.59816   0.75003   0.00000  Uiso   1.00
C908   C     0.59818   0.65190   0.75007   0.00000  Uiso   1.00
C909   C     0.90184   0.84813   0.24997   0.00000  Uiso   1.00
C910   C     0.65186   0.90185   0.75000   0.00000  Uiso   1.00
C911   C     0.84816   0.59812   0.25003   0.00000  Uiso   1.00
C912   C     0.90182   0.84810   0.75007   0.00000  Uiso   1.00
C913   C     0.71768   0.50710   0.54177   0.00000  Uiso   1.00
C914   C     0.59816   0.65187   0.24997   0.00000  Uiso   1.00
C915   C     0.84814   0.59815   0.75000   0.00000  Uiso   1.00
C916   C     0.65184   0.90188   0.25003   0.00000  Uiso   1.00
C917   C     0.75000   0.50000   0.10241   0.00000  Uiso   1.00
C918   C     0.75000   0.50000   0.89759   0.00000  Uiso   1.00
C919   C     0.50000   0.75000   0.10241   0.00000  Uiso   1.00
C920   C     0.50000   0.75000   0.89759   0.00000  Uiso   1.00
C921   C     0.50000   0.75000   0.60225   0.00000  Uiso   1.00
C922   C     0.50000   0.75000   0.39725   0.00000  Uiso   1.00
C923   C     0.75000   0.50000   0.60275   0.00000  Uiso   1.00
C924   C     0.77257   0.52420   0.45888   0.00000  Uiso   1.00
C925   C     0.75000   0.50000   0.39775   0.00000  Uiso   1.00
C926   C     0.71094   0.55735   0.10227   0.00000  Uiso   1.00
C927   C     0.78788   0.55828   0.89799   0.00000  Uiso   1.00
C928   C     0.94172   0.71212   0.10201   0.00000  Uiso   1.00
C929   C     0.94265   0.78906   0.89773   0.00000  Uiso   1.00
C930   C     0.78906   0.94265   0.10227   0.00000  Uiso   1.00
C931   C     0.71212   0.94172   0.89799   0.00000  Uiso   1.00
C932   C     0.55828   0.78788   0.10201   0.00000  Uiso   1.00
C933   C     0.55735   0.71094   0.89773   0.00000  Uiso   1.00
C934   C     0.95246   0.69929   0.60153   0.00000  Uiso   1.00
C935   C     0.52420   0.77257   0.54112   0.00000  Uiso   1.00
C936   C     0.98708   0.81849   0.39760   0.00000  Uiso   1.00
C937   C     0.68151   0.51292   0.60240   0.00000  Uiso   1.00
C938   C     0.80071   0.54754   0.39847   0.00000  Uiso   1.00
C939   C     0.54754   0.80071   0.60153   0.00000  Uiso   1.00
C940   C     0.51292   0.68151   0.39760   0.00000  Uiso   1.00
C941   C     0.81849   0.98708   0.60240   0.00000  Uiso   1.00
C942   C     0.69929   0.95246   0.39847   0.00000  Uiso   1.00
C943   C     0.50710   0.71768   0.45824   0.00000  Uiso   1.00
C944   C     0.78232   0.99290   0.54177   0.00000  Uiso   1.00
C945   C     0.72743   0.97580   0.45888   0.00000  Uiso   1.00
C946   C     0.73046   0.52729   0.08195   0.00000  Uiso   1.00
C947   C     0.76891   0.52775   0.91808   0.00000  Uiso   1.00
C948   C     0.97225   0.73109   0.08192   0.00000  Uiso   1.00
C949   C     0.76891   0.52715   0.95870   0.00000  Uiso   1.00
C950   C     0.97271   0.76954   0.91805   0.00000  Uiso   1.00
C951   C     0.76954   0.97271   0.08195   0.00000  Uiso   1.00
C952   C     0.73109   0.97225   0.91808   0.00000  Uiso   1.00
C953   C     0.52775   0.76891   0.08192   0.00000  Uiso   1.00
C954   C     0.52729   0.73046   0.91805   0.00000  Uiso   1.00
C955   C     0.97617   0.72639   0.58168   0.00000  Uiso   1.00
C956   C     0.99322   0.78294   0.41763   0.00000  Uiso   1.00
C957   C     0.71706   0.50678   0.58237   0.00000  Uiso   1.00
C958   C     0.77361   0.52383   0.41832   0.00000  Uiso   1.00
C959   C     0.52383   0.77361   0.58168   0.00000  Uiso   1.00
C960   C     0.97285   0.73109   0.04130   0.00000  Uiso   1.00
C961   C     0.50678   0.71706   0.41763   0.00000  Uiso   1.00
C962   C     0.78294   0.99322   0.58237   0.00000  Uiso   1.00
C963   C     0.72639   0.97617   0.41832   0.00000  Uiso   1.00
C964   C     0.75000   0.50000   0.02123   0.00000  Uiso   1.00
C965   C     0.75000   0.50000   0.97876   0.00000  Uiso   1.00
C966   C     0.50000   0.75000   0.02124   0.00000  Uiso   1.00
C967   C     0.50000   0.75000   0.97877   0.00000  Uiso   1.00
C968   C     0.50000   0.75000   0.52095   0.00000  Uiso   1.00
C969   C     0.50000   0.75000   0.47838   0.00000  Uiso   1.00
C970   C     0.75000   0.50000   0.52163   0.00000  Uiso   1.00
C971   C     0.97329   0.76952   0.95870   0.00000  Uiso   1.00
C972   C     0.75000   0.50000   0.47905   0.00000  Uiso   1.00
C973   C     0.75000   0.50000   0.35518   0.00000  Uiso   1.00
C974   C     0.75000   0.50000   0.64500   0.00000  Uiso   1.00
C975   C     0.50000   0.75000   0.35500   0.00000  Uiso   1.00
C976   C     0.50000   0.75000   0.64482   0.00000  Uiso   1.00
C977   C     0.50000   0.75000   0.85512   0.00000  Uiso   1.00
C978   C     0.50000   0.75000   0.14488   0.00000  Uiso   1.00
C979   C     0.75000   0.50000   0.85512   0.00000  Uiso   1.00
C980   C     0.75000   0.50000   0.14488   0.00000  Uiso   1.00
C981   C     0.67994   0.57010   0.24997   0.00000  Uiso   1.00
C982   C     0.76952   0.97329   0.04130   0.00000  Uiso   1.00
C983   C     0.82008   0.92992   0.75000   0.00000  Uiso   1.00
C984   C     0.92991   0.67992   0.24999   0.00000  Uiso   1.00
C985   C     0.57007   0.82009   0.74999   0.00000  Uiso   1.00
C986   C     0.82006   0.92990   0.24997   0.00000  Uiso   1.00
C987   C     0.67992   0.57008   0.75000   0.00000  Uiso   1.00
C988   C     0.57009   0.82008   0.24999   0.00000  Uiso   1.00
C989   C     0.92993   0.67991   0.74999   0.00000  Uiso   1.00
C990   C     0.67992   0.92991   0.75001   0.00000  Uiso   1.00
C991   C     0.82009   0.57007   0.25001   0.00000  Uiso   1.00
C992   C     0.92990   0.82006   0.75003   0.00000  Uiso   1.00
C993   C     0.73109   0.97285   0.95870   0.00000  Uiso   1.00
C994   C     0.57008   0.67992   0.25000   0.00000  Uiso   1.00
C995   C     0.82008   0.57009   0.75001   0.00000  Uiso   1.00
C996   C     0.67991   0.92993   0.25001   0.00000  Uiso   1.00
C997   C     0.57010   0.67994   0.75003   0.00000  Uiso   1.00
C998   C     0.92992   0.82008   0.25000   0.00000  Uiso   1.00
C999   C     0.62243   0.90429   0.22421   0.00000  Uiso   1.00
C1000  C     0.87756   0.59572   0.77582   0.00000  Uiso   1.00
C1001  C     0.59551   0.62222   0.22449   0.00000  Uiso   1.00
C1002  C     0.90448   0.87776   0.77554   0.00000  Uiso   1.00
C1003  C     0.87757   0.59571   0.22421   0.00000  Uiso   1.00
C1004  C     0.52715   0.76891   0.04130   0.00000  Uiso   1.00
C1005  C     0.62244   0.90427   0.77582   0.00000  Uiso   1.00
C1006  C     0.90449   0.87778   0.22449   0.00000  Uiso   1.00
C1007  C     0.59552   0.62224   0.77554   0.00000  Uiso   1.00
C1008  C     0.62222   0.59551   0.77551   0.00000  Uiso   1.00
C1009  C     0.87776   0.90448   0.22446   0.00000  Uiso   1.00
C1010  C     0.59571   0.87757   0.77580   0.00000  Uiso   1.00
C1011  C     0.90428   0.62244   0.22418   0.00000  Uiso   1.00
C1012  C     0.87778   0.90449   0.77551   0.00000  Uiso   1.00
C1013  C     0.62224   0.59552   0.22446   0.00000  Uiso   1.00
C1014  C     0.90429   0.62243   0.77580   0.00000  Uiso   1.00
C1015  C     0.52671   0.73048   0.95870   0.00000  Uiso   1.00
C1016  C     0.59573   0.87756   0.22418   0.00000  Uiso   1.00
C1017  C     0.87247   0.65426   0.72415   0.00000  Uiso   1.00
C1018  C     0.62755   0.84573   0.27583   0.00000  Uiso   1.00
C1019  C     0.84544   0.87216   0.72459   0.00000  Uiso   1.00
C1020  C     0.65457   0.62785   0.27539   0.00000  Uiso   1.00
C1021  C     0.62754   0.84574   0.72415   0.00000  Uiso   1.00
C1022  C     0.87245   0.65427   0.27583   0.00000  Uiso   1.00
C1023  C     0.65456   0.62784   0.72459   0.00000  Uiso   1.00
C1024  C     0.84543   0.87215   0.27539   0.00000  Uiso   1.00
C1025  C     0.87216   0.84544   0.27541   0.00000  Uiso   1.00
C1026  C     0.97580   0.72743   0.54112   0.00000  Uiso   1.00
C1027  C     0.62785   0.65457   0.72461   0.00000  Uiso   1.00
C1028  C     0.84574   0.62753   0.27585   0.00000  Uiso   1.00
C1029  C     0.65427   0.87245   0.72417   0.00000  Uiso   1.00
C1030  C     0.62784   0.65456   0.27541   0.00000  Uiso   1.00
C1031  C     0.87215   0.84543   0.72461   0.00000  Uiso   1.00
C1032  C     0.65426   0.87246   0.27585   0.00000  Uiso   1.00
C1033  C     0.84573   0.62755   0.72417   0.00000  Uiso   1.00
C1034  C     0.59815   0.84814   0.25000   0.00000  Uiso   1.00
C1035  C     0.90188   0.65184   0.74997   0.00000  Uiso   1.00
C1036  C     0.65190   0.59818   0.24993   0.00000  Uiso   1.00
F1037  F     0.71216   0.55265   0.02096   0.00000  Uiso   1.00
F1038  F     0.98448   0.81300   0.47849   0.00000  Uiso   1.00
F1039  F     0.68700   0.51552   0.52151   0.00000  Uiso   1.00
F1040  F     0.79428   0.54753   0.47903   0.00000  Uiso   1.00
F1041  F     0.54753   0.79428   0.52097   0.00000  Uiso   1.00
F1042  F     0.51553   0.68700   0.47849   0.00000  Uiso   1.00
F1043  F     0.81300   0.98447   0.52151   0.00000  Uiso   1.00
F1044  F     0.70572   0.95247   0.47903   0.00000  Uiso   1.00
F1045  F     0.78661   0.55352   0.97905   0.00000  Uiso   1.00
F1046  F     0.94648   0.71339   0.02096   0.00000  Uiso   1.00
F1047  F     0.94735   0.78784   0.97904   0.00000  Uiso   1.00
F1048  F     0.78784   0.94735   0.02096   0.00000  Uiso   1.00
F1049  F     0.71340   0.94648   0.97905   0.00000  Uiso   1.00
F1050  F     0.55352   0.78660   0.02095   0.00000  Uiso   1.00
F1051  F     0.55265   0.71216   0.97904   0.00000  Uiso   1.00
F1052  F     0.95247   0.70572   0.52097   0.00000  Uiso   1.00
H1053  H     0.62004   0.92676   0.20399   0.00000  Uiso   1.00
H1054  H     0.88033   0.92714   0.20451   0.00000  Uiso   1.00
H1055  H     0.57324   0.87996   0.79601   0.00000  Uiso   1.00
H1056  H     0.92673   0.62007   0.20395   0.00000  Uiso   1.00
H1057  H     0.88038   0.92717   0.79544   0.00000  Uiso   1.00
H1058  H     0.61967   0.57286   0.20451   0.00000  Uiso   1.00
H1059  H     0.92676   0.62004   0.79601   0.00000  Uiso   1.00
H1060  H     0.57327   0.87993   0.20395   0.00000  Uiso   1.00
H1061  H     0.87010   0.67671   0.70390   0.00000  Uiso   1.00
H1062  H     0.62994   0.82326   0.29605   0.00000  Uiso   1.00
H1063  H     0.82278   0.86957   0.70465   0.00000  Uiso   1.00
H1064  H     0.87993   0.57327   0.79605   0.00000  Uiso   1.00
H1065  H     0.67725   0.63045   0.29531   0.00000  Uiso   1.00
H1066  H     0.62990   0.82329   0.70390   0.00000  Uiso   1.00
H1067  H     0.87006   0.67674   0.29605   0.00000  Uiso   1.00
H1068  H     0.67722   0.63043   0.70465   0.00000  Uiso   1.00
H1069  H     0.82275   0.86955   0.29531   0.00000  Uiso   1.00
H1070  H     0.86957   0.82278   0.29535   0.00000  Uiso   1.00
H1071  H     0.63045   0.67725   0.70469   0.00000  Uiso   1.00
H1072  H     0.82329   0.62990   0.29610   0.00000  Uiso   1.00
H1073  H     0.67674   0.87006   0.70395   0.00000  Uiso   1.00
H1074  H     0.63043   0.67722   0.29535   0.00000  Uiso   1.00
H1075  H     0.57283   0.61962   0.20456   0.00000  Uiso   1.00
H1076  H     0.86955   0.82275   0.70469   0.00000  Uiso   1.00
H1077  H     0.67671   0.87010   0.29610   0.00000  Uiso   1.00
H1078  H     0.82326   0.62994   0.70395   0.00000  Uiso   1.00
H1079  H     0.70979   0.59296   0.14691   0.00000  Uiso   1.00
H1080  H     0.83051   0.59301   0.89720   0.00000  Uiso   1.00
H1081  H     0.90699   0.66949   0.10280   0.00000  Uiso   1.00
H1082  H     0.90704   0.79021   0.85309   0.00000  Uiso   1.00
H1083  H     0.79021   0.90704   0.14691   0.00000  Uiso   1.00
H1084  H     0.66949   0.90699   0.89720   0.00000  Uiso   1.00
H1085  H     0.59301   0.83051   0.10280   0.00000  Uiso   1.00
H1086  H     0.92714   0.88033   0.79549   0.00000  Uiso   1.00
H1087  H     0.59296   0.70979   0.85309   0.00000  Uiso   1.00
H1088  H     0.90371   0.67395   0.60371   0.00000  Uiso   1.00
H1089  H     0.99290   0.87320   0.39896   0.00000  Uiso   1.00
H1090  H     0.62680   0.50710   0.60104   0.00000  Uiso   1.00
H1091  H     0.82605   0.59629   0.39629   0.00000  Uiso   1.00
H1092  H     0.59629   0.82605   0.60371   0.00000  Uiso   1.00
H1093  H     0.50710   0.62680   0.39896   0.00000  Uiso   1.00
H1094  H     0.87320   0.99290   0.60104   0.00000  Uiso   1.00
H1095  H     0.67395   0.90371   0.39629   0.00000  Uiso   1.00
H1096  H     0.87996   0.57324   0.20399   0.00000  Uiso   1.00
H1097  H     0.62007   0.92673   0.79605   0.00000  Uiso   1.00
H1098  H     0.92717   0.88038   0.20456   0.00000  Uiso   1.00
H1099  H     0.57286   0.61967   0.79549   0.00000  Uiso   1.00
H1100  H     0.61962   0.57283   0.79544   0.00000  Uiso   1.00
O1101  O     0.75000   0.50000   0.25000   0.00000  Uiso   1.00
O1102  O     0.75000   0.96964   0.66317   0.00000  Uiso   1.00
O1103  O     0.96964   0.75000   0.33683   0.00000  Uiso   1.00
O1104  O     0.53036   0.75000   0.66317   0.00000  Uiso   1.00
O1105  O     0.50000   0.71964   0.83683   0.00000  Uiso   1.00
O1106  O     0.50000   0.78036   0.16317   0.00000  Uiso   1.00
O1107  O     0.78036   0.50000   0.83683   0.00000  Uiso   1.00
O1108  O     0.71964   0.50000   0.16317   0.00000  Uiso   1.00
O1109  O     0.50000   0.78036   0.83683   0.00000  Uiso   1.00
O1110  O     0.50000   0.71964   0.16317   0.00000  Uiso   1.00
O1111  O     0.71964   0.50000   0.83683   0.00000  Uiso   1.00
O1112  O     0.75000   0.50000   0.75000   0.00000  Uiso   1.00
O1113  O     0.78036   0.50000   0.16317   0.00000  Uiso   1.00
O1114  O     0.70726   0.57307   0.27282   0.00000  Uiso   1.00
O1115  O     0.79275   0.92693   0.72718   0.00000  Uiso   1.00
O1116  O     0.92693   0.70725   0.27282   0.00000  Uiso   1.00
O1117  O     0.57307   0.79274   0.72718   0.00000  Uiso   1.00
O1118  O     0.79275   0.92693   0.27282   0.00000  Uiso   1.00
O1119  O     0.70726   0.57307   0.72718   0.00000  Uiso   1.00
O1120  O     0.57307   0.79274   0.27282   0.00000  Uiso   1.00
O1121  O     0.92693   0.70725   0.72718   0.00000  Uiso   1.00
O1122  O     0.70726   0.92693   0.72718   0.00000  Uiso   1.00
O1123  O     0.50000   0.75000   0.25000   0.00000  Uiso   1.00
O1124  O     0.79275   0.57307   0.27282   0.00000  Uiso   1.00
O1125  O     0.92693   0.79274   0.72718   0.00000  Uiso   1.00
O1126  O     0.57307   0.70725   0.27282   0.00000  Uiso   1.00
O1127  O     0.79275   0.57307   0.72718   0.00000  Uiso   1.00
O1128  O     0.70726   0.92693   0.27282   0.00000  Uiso   1.00
O1129  O     0.57307   0.70725   0.72718   0.00000  Uiso   1.00
O1130  O     0.92693   0.79274   0.27282   0.00000  Uiso   1.00
O1131  O     0.95726   0.82307   0.77282   0.00000  Uiso   1.00
O1132  O     0.54275   0.67693   0.22718   0.00000  Uiso   1.00
O1133  O     0.67693   0.95725   0.77282   0.00000  Uiso   1.00
O1134  O     0.50000   0.75000   0.75000   0.00000  Uiso   1.00
O1135  O     0.82307   0.54274   0.22718   0.00000  Uiso   1.00
O1136  O     0.54275   0.67693   0.77282   0.00000  Uiso   1.00
O1137  O     0.95726   0.82307   0.22718   0.00000  Uiso   1.00
O1138  O     0.82307   0.54274   0.77282   0.00000  Uiso   1.00
O1139  O     0.67693   0.95725   0.22718   0.00000  Uiso   1.00
O1140  O     0.95726   0.67693   0.22718   0.00000  Uiso   1.00
O1141  O     0.54275   0.82307   0.77282   0.00000  Uiso   1.00
O1142  O     0.67693   0.54274   0.22718   0.00000  Uiso   1.00
O1143  O     0.82307   0.95725   0.77282   0.00000  Uiso   1.00
O1144  O     0.54275   0.82307   0.22718   0.00000  Uiso   1.00
O1145  O     0.75000   0.96964   0.33683   0.00000  Uiso   1.00
O1146  O     0.95726   0.67693   0.77282   0.00000  Uiso   1.00
O1147  O     0.82307   0.95725   0.22718   0.00000  Uiso   1.00
O1148  O     0.67693   0.54274   0.77282   0.00000  Uiso   1.00
O1149  O     0.68215   0.56892   0.08930   0.00000  Uiso   1.00
O1150  O     0.72572   0.57295   0.13580   0.00000  Uiso   1.00
O1151  O     0.77496   0.57166   0.86854   0.00000  Uiso   1.00
O1152  O     0.82029   0.57226   0.91329   0.00000  Uiso   1.00
O1153  O     0.92834   0.72504   0.13146   0.00000  Uiso   1.00
O1154  O     0.92774   0.67971   0.08671   0.00000  Uiso   1.00
O1155  O     0.93108   0.81785   0.91070   0.00000  Uiso   1.00
O1156  O     0.75000   0.53036   0.66317   0.00000  Uiso   1.00
O1157  O     0.92705   0.77428   0.86420   0.00000  Uiso   1.00
O1158  O     0.81785   0.93108   0.08930   0.00000  Uiso   1.00
O1159  O     0.77428   0.92705   0.13580   0.00000  Uiso   1.00
O1160  O     0.72504   0.92834   0.86854   0.00000  Uiso   1.00
O1161  O     0.67971   0.92774   0.91329   0.00000  Uiso   1.00
O1162  O     0.57166   0.77496   0.13146   0.00000  Uiso   1.00
O1163  O     0.57226   0.82029   0.08671   0.00000  Uiso   1.00
O1164  O     0.56892   0.68215   0.91070   0.00000  Uiso   1.00
O1165  O     0.57295   0.72572   0.86420   0.00000  Uiso   1.00
O1166  O     0.96406   0.68178   0.62908   0.00000  Uiso   1.00
O1167  O     0.53036   0.75000   0.33683   0.00000  Uiso   1.00
O1168  O     0.91707   0.69312   0.58801   0.00000  Uiso   1.00
O1169  O     0.97173   0.81977   0.36615   0.00000  Uiso   1.00
O1170  O     0.99864   0.85086   0.41516   0.00000  Uiso   1.00
O1171  O     0.68023   0.52827   0.63385   0.00000  Uiso   1.00
O1172  O     0.64914   0.50136   0.58484   0.00000  Uiso   1.00
O1173  O     0.81822   0.53594   0.37092   0.00000  Uiso   1.00
O1174  O     0.80688   0.58293   0.41199   0.00000  Uiso   1.00
O1175  O     0.53594   0.81822   0.62908   0.00000  Uiso   1.00
O1176  O     0.58293   0.80688   0.58801   0.00000  Uiso   1.00
O1177  O     0.52827   0.68023   0.36615   0.00000  Uiso   1.00
O1178  O     0.96964   0.75000   0.66317   0.00000  Uiso   1.00
O1179  O     0.50136   0.64914   0.41516   0.00000  Uiso   1.00
O1180  O     0.81977   0.97173   0.63385   0.00000  Uiso   1.00
O1181  O     0.85086   0.99864   0.58484   0.00000  Uiso   1.00
O1182  O     0.68178   0.96406   0.37092   0.00000  Uiso   1.00
O1183  O     0.69312   0.91707   0.41199   0.00000  Uiso   1.00
O1184  O     0.75000   0.53036   0.33683   0.00000  Uiso   1.00
Zn1185 Zn    0.70660   0.50000   0.21760   0.00000  Uiso   1.00
Zn1186 Zn    0.54340   0.75000   0.28240   0.00000  Uiso   1.00
Zn1187 Zn    0.75000   0.95660   0.71760   0.00000  Uiso   1.00
Zn1188 Zn    0.75000   0.54340   0.28240   0.00000  Uiso   1.00
Zn1189 Zn    0.54340   0.75000   0.71760   0.00000  Uiso   1.00
Zn1190 Zn    0.95660   0.75000   0.28240   0.00000  Uiso   1.00
Zn1191 Zn    0.75000   0.54340   0.71760   0.00000  Uiso   1.00
Zn1192 Zn    0.75000   0.95660   0.28240   0.00000  Uiso   1.00
Zn1193 Zn    0.79340   0.50000   0.78240   0.00000  Uiso   1.00
Zn1194 Zn    0.50000   0.70660   0.21760   0.00000  Uiso   1.00
Zn1195 Zn    0.50000   0.79340   0.78240   0.00000  Uiso   1.00
Zn1196 Zn    0.79340   0.50000   0.21760   0.00000  Uiso   1.00
Zn1197 Zn    0.70660   0.50000   0.78240   0.00000  Uiso   1.00
Zn1198 Zn    0.50000   0.79340   0.21760   0.00000  Uiso   1.00
Zn1199 Zn    0.50000   0.70660   0.78240   0.00000  Uiso   1.00
Zn1200 Zn    0.95660   0.75000   0.71760   0.00000  Uiso   1.00
loop_
_geom_bond_atom_site_label_1
_geom_bond_atom_site_label_2
_geom_bond_distance
_geom_bond_site_symmetry_2
_ccdc_geom_bond_type
C1     C46     1.401   .     A
C1     C64     1.397   .     A
C1     F137    1.360   .     S
C2     F138    1.360   .     S
C2     C369    1.399   .     A
C2     C56     1.400   .     A
C3     C112    1.402   .     A
C3     C83     1.456   .     S
C3     C119    1.402   .     A
C4     C84     1.456   .     S
C4     C122    1.402   .     A
C4     C111    1.402   .     A
C5     C110    1.402   .     A
C5     C85     1.456   .     S
C5     C121    1.402   .     A
C6     C109    1.402   .     A
C6     C86     1.456   .     S
C6     C124    1.402   .     A
C7     C123    1.402   .     A
C7     C87     1.456   .     S
C7     C108    1.402   .     A
C8     C107    1.402   .     A
C8     C97     1.456   .     S
C8     C127    1.402   .     A
C9     C125    1.402   .     A
C9     C98     1.456   .     S
C9     C106    1.402   .     A
C10    C129    1.402   .     A
C10    C90     1.456   .     S
C10    C105    1.402   .     A
C11    C91     1.456   .     S
C11    C128    1.402   .     A
C11    C103    1.402   .     A
C12    C92     1.456   .     S
C12    C131    1.402   .     A
C12    C102    1.402   .     A
C13    F139    1.360   .     S
C13    C70     1.399   .     A
C13    C57     1.400   .     A
C14    C130    1.402   .     A
C14    C101    1.402   .     A
C14    C94     1.456   .     S
C15    C100    1.402   .     A
C15    C95     1.456   .     S
C15    C133    1.402   .     A
C16    C96     1.456   .     S
C16    C132    1.402   .     A
C16    C99     1.402   .     A
C17    C651    1.420   1_545 A
C17    C46     1.420   .     S
C17    C80     1.464   .     S
C18    C47     1.420   .     A
C18    C652    1.420   1_545 S
C18    C79     1.464   .     S
C19    C78     1.464   .     S
C19    C53     1.420   .     A
C19    C348    1.420   1_455 S
C20    C350    1.420   1_455 A
C20    C54     1.420   .     S
C20    C77     1.464   .     S
C21    C76     1.467   .     S
C21    C355    1.421   1_455 A
C21    C59     1.421   .     S
C22    C61     1.420   .     A
C22    C356    1.420   1_455 S
C22    C75     1.456   .     S
C23    C662    1.420   1_545 A
C23    C57     1.420   .     S
C23    C74     1.456   .     S
C24    C58     1.399   .     A
C24    F140    1.360   .     S
C24    C72     1.399   .     S
C25    C73     1.467   .     S
C25    C663    1.421   1_545 A
C25    C58     1.421   .     S
C26    O249    1.223   .     D
C26    O250    1.399   .     S
C26    C46     1.490   .     S
C27    O251    1.223   .     D
C27    C47     1.490   .     S
C27    O252    1.399   .     S
C28    O253    1.223   .     D
C28    C48     1.490   .     S
C28    O254    1.399   .     S
C29    O257    1.399   .     S
C29    O255    1.223   .     D
C29    C50     1.490   .     S
C30    C51     1.490   .     S
C30    O258    1.223   .     D
C30    O259    1.399   .     S
C31    C52     1.490   .     S
C31    O261    1.399   .     S
C31    O260    1.223   .     D
C32    C53     1.490   .     S
C32    O263    1.399   .     S
C32    O262    1.223   .     D
C33    O264    1.223   .     D
C33    C54     1.490   .     S
C33    O265    1.399   .     S
C34    C55     1.488   .     S
C34    O268    1.398   .     S
C34    O266    1.223   .     D
C35    C59     1.399   .     A
C35    F141    1.360   .     S
C35    C68     1.399   .     S
C36    O270    1.399   .     S
C36    C56     1.493   .     S
C36    O269    1.222   .     D
C37    O272    1.399   .     S
C37    C57     1.493   .     S
C37    O271    1.222   .     D
C38    O274    1.398   .     S
C38    C58     1.488   .     S
C38    O273    1.223   .     D
C39    O276    1.398   .     S
C39    O275    1.223   .     D
C39    C59     1.488   .     S
C40    O277    1.222   .     D
C40    O279    1.399   .     S
C40    C61     1.493   .     S
C41    O280    1.222   .     D
C41    C62     1.493   .     S
C41    O281    1.399   .     S
C42    O283    1.398   .     S
C42    C63     1.488   .     S
C42    O282    1.223   .     D
C43    C61     1.400   .     A
C43    F142    1.360   .     S
C43    C69     1.399   .     S
C44    C62     1.400   .     A
C44    F143    1.360   .     S
C44    C670    1.399   .     S
C45    F144    1.360   .     S
C45    C672    1.399   .     A
C45    C63     1.399   .     A
C47    C49     1.400   .     A
C48    C60     1.400   .     A
C48    C319    1.420   .     S
C49    F145    1.360   .     S
C49    C65     1.397   .     A
C50    C71     1.401   .     A
C50    C320    1.420   .     A
C51    C617    1.420   .     A
C51    C82     1.401   .     A
C52    C93     1.400   .     A
C52    C618    1.420   .     S
C53    C104    1.400   .     A
C54    C115    1.401   .     A
C55    C321    1.421   .     A
C55    C126    1.399   .     A
C56    C322    1.420   .     S
C60    F146    1.360   .     S
C60    C366    1.397   .     A
C62    C623    1.420   .     A
C63    C625    1.421   .     A
C64    C65     1.464   1_554 S
C64    C682    1.397   1_545 S
C65    C64     1.464   1_556 S
C65    C693    1.397   1_545 S
C66    C360    1.397   1_455 A
C66    C67     1.464   1_554 S
C66    C104    1.397   .     S
C67    C115    1.397   .     A
C67    C66     1.464   1_556 S
C67    C371    1.397   1_455 S
C68    C69     1.468   .     S
C68    C426    1.399   1_455 A
C69    C302    1.399   1_455 A
C70    C644    1.399   1_545 S
C70    C72     1.468   .     S
C71    F147    1.360   .     S
C71    C367    1.397   .     S
C72    C645    1.399   1_545 A
C73    O845    1.281   1_545 A
C73    O284    1.281   .     S
C74    O256    1.278   .     A
C74    O802    1.278   1_545 S
C75    O503    1.278   1_455 A
C75    O267    1.278   .     S
C76    O578    1.281   1_455 A
C76    O204    1.281   .     S
C77    O205    1.280   .     A
C77    O209    1.280   .     A
C78    O210    1.280   .     A
C78    O206    1.280   .     S
C79    O207    1.280   .     A
C79    O211    1.280   .     A
C80    O208    1.280   .     S
C80    O213    1.280   .     S
C81    O242    1.279   .     A
C81    C136    1.456   .     S
C81    O214    1.280   .     A
C82    F148    1.360   .     S
C82    C664    1.397   .     S
C83    O243    1.279   .     A
C83    O215    1.280   .     A
C84    O240    1.279   .     A
C84    O216    1.279   .     A
C85    O241    1.280   .     A
C85    O217    1.279   .     A
C86    O247    1.279   .     A
C86    O218    1.280   .     A
C87    O248    1.279   .     A
C87    O219    1.280   .     A
C88    C134    1.456   .     S
C88    O220    1.279   .     A
C88    O244    1.279   .     A
C89    O221    1.279   .     A
C89    C135    1.456   .     S
C89    O246    1.280   .     A
C90    O233    1.279   .     A
C90    O222    1.279   .     A
C91    O224    1.279   .     A
C91    O235    1.280   .     A
C92    O231    1.279   .     A
C92    O225    1.279   .     A
C93    F149    1.360   .     S
C93    C665    1.397   .     S
C94    O232    1.279   .     A
C94    O226    1.279   .     A
C95    O227    1.279   .     A
C95    O238    1.279   .     A
C96    O239    1.280   .     A
C96    O228    1.279   .     A
C97    O236    1.279   .     A
C97    O229    1.279   .     A
C98    O237    1.279   .     A
C98    O230    1.280   .     A
C99    C116    1.387   .     A
C99    H153    1.083   .     S
C100   C114    1.387   .     A
C100   H164    1.083   .     S
C101   C113    1.387   .     A
C101   H175    1.083   .     S
C102   H186    1.083   .     S
C102   C112    1.387   .     A
C103   H196    1.083   .     S
C103   C111    1.387   .     A
C104   F150    1.360   .     S
C105   C110    1.387   .     A
C105   H197    1.083   .     S
C106   C109    1.387   .     A
C106   H198    1.083   .     S
C107   C108    1.387   .     A
C107   H199    1.083   .     S
C108   H200    1.083   .     S
C109   H154    1.083   .     S
C110   H155    1.083   .     S
C111   H156    1.083   .     S
C112   H157    1.083   .     S
C113   C136    1.402   .     A
C113   H158    1.083   .     S
C114   C135    1.402   .     A
C114   H159    1.083   .     S
C115   F151    1.360   .     S
C116   H160    1.083   .     S
C116   C134    1.402   .     A
C117   C133    1.387   .     A
C117   C135    1.402   .     A
C117   H161    1.083   .     S
C118   H162    1.083   .     S
C118   C134    1.402   .     A
C118   C132    1.387   .     A
C119   C131    1.387   .     A
C119   H163    1.083   .     S
C120   H165    1.083   .     S
C120   C136    1.402   .     A
C120   C130    1.387   .     A
C121   H166    1.083   .     S
C121   C129    1.387   .     A
C122   H167    1.083   .     S
C122   C128    1.387   .     A
C123   C127    1.387   .     A
C123   H168    1.083   .     S
C124   H169    1.083   .     S
C124   C125    1.387   .     A
C125   H170    1.083   .     S
C126   F152    1.360   .     S
C126   C368    1.399   .     A
C127   H171    1.083   .     S
C128   H172    1.083   .     S
C129   H173    1.083   .     S
C130   H174    1.083   .     S
C131   H176    1.083   .     S
C132   H177    1.083   .     S
C133   H178    1.083   .     S
H179   O250    1.014   .     S
H180   O252    1.014   .     S
H181   O254    1.014   .     S
H182   O257    1.014   .     S
H183   O259    1.014   .     S
H184   O261    1.014   .     S
H185   O263    1.014   .     S
H187   O265    1.014   .     S
H188   O268    1.014   .     S
H189   O270    1.014   .     S
H190   O272    1.014   .     S
H191   O274    1.014   .     S
H192   O276    1.014   .     S
H193   O279    1.014   .     S
H194   O281    1.014   .     S
H195   O283    1.014   .     S
O201   Zn285   1.945   .     S
O201   Zn892   1.945   1_545 S
O201   Zn296   1.945   .     S
O201   Zn288   1.945   .     S
O202   Zn287   1.936   .     S
O202   C674    1.278   .     S
O203   Zn290   1.936   .     S
O203   C375    1.278   .     A
O204   Zn289   1.936   .     S
O205   Zn299   1.936   .     S
O206   Zn298   1.936   .     S
O207   Zn293   1.936   .     S
O208   Zn285   1.936   .     S
O209   Zn295   1.936   .     S
O210   Zn294   1.936   .     S
O211   Zn297   1.936   .     S
O212   Zn297   1.945   .     S
O212   Zn887   1.945   1_545 S
O212   Zn293   1.945   .     S
O212   Zn291   1.945   .     S
O213   Zn296   1.936   .     S
O214   Zn288   1.938   .     S
O215   Zn287   1.938   .     S
O216   Zn290   1.938   .     S
O217   Zn289   1.938   .     S
O218   Zn292   1.938   .     S
O219   Zn291   1.938   .     S
O220   Zn286   1.938   .     S
O221   Zn300   1.938   .     S
O222   Zn287   1.938   .     S
O223   Zn298   1.945   .     S
O223   Zn286   1.945   .     S
O223   Zn294   1.945   .     S
O223   Zn590   1.945   1_455 S
O224   Zn288   1.938   .     S
O225   Zn300   1.938   .     S
O226   Zn286   1.938   .     S
O227   Zn291   1.938   .     S
O228   Zn292   1.938   .     S
O229   Zn289   1.938   .     S
O230   Zn290   1.938   .     S
O231   Zn595   1.938   .     S
O232   Zn294   1.938   .     S
O233   Zn897   1.938   .     S
O234   Zn289   1.945   .     S
O234   Zn295   1.945   .     S
O234   Zn299   1.945   .     S
O234   Zn600   1.945   1_455 S
O235   Zn296   1.938   .     S
O236   Zn299   1.938   .     S
O237   Zn598   1.938   .     S
O238   Zn293   1.938   .     S
O239   Zn885   1.938   .     S
O240   Zn594   1.938   .     S
O241   Zn295   1.938   .     S
O242   Zn285   1.938   .     S
O243   Zn893   1.938   .     S
O244   Zn298   1.938   .     S
O245   C673    1.281   .     A
O245   Zn292   1.936   .     S
O246   Zn599   1.938   .     S
O247   Zn896   1.938   .     S
O248   Zn297   1.938   .     S
O256   Zn291   1.936   .     S
O267   Zn286   1.936   .     S
O278   Zn300   1.936   .     S
O278   C376    1.281   .     A
O284   Zn288   1.936   .     S
Zn285  O839    1.938   1_545 S
Zn287  O812    1.945   .     S
Zn290  O523    1.945   .     S
Zn292  O801    1.945   .     S
Zn293  O843    1.938   1_545 S
Zn294  O540    1.938   1_455 S
Zn295  O531    1.938   1_455 S
Zn296  O847    1.938   1_545 S
Zn297  O833    1.938   1_545 S
Zn298  O537    1.938   1_455 S
Zn299  O546    1.938   1_455 S
Zn300  O534    1.945   .     S
C301   C346    1.401   .     A
C301   C364    1.397   .     A
C301   F437    1.360   .     S
C302   F438    1.360   .     S
C302   C69     1.399   1_655 A
C302   C356    1.400   .     A
C303   C412    1.402   .     A
C303   C383    1.456   .     S
C303   C419    1.402   .     A
C304   C384    1.456   .     S
C304   C422    1.402   .     A
C304   C411    1.402   .     A
C305   C410    1.402   .     A
C305   C385    1.456   .     S
C305   C421    1.402   .     A
C306   C409    1.402   .     A
C306   C386    1.456   .     S
C306   C424    1.402   .     A
C307   C423    1.402   .     A
C307   C387    1.456   .     S
C307   C408    1.402   .     A
C308   C407    1.402   .     A
C308   C397    1.456   .     S
C308   C427    1.402   .     A
C309   C425    1.402   .     A
C309   C398    1.456   .     S
C309   C406    1.402   .     A
C310   C429    1.402   .     A
C310   C390    1.456   .     S
C310   C405    1.402   .     A
C311   C391    1.456   .     S
C311   C428    1.402   .     A
C311   C403    1.402   .     A
C312   C392    1.456   .     S
C312   C431    1.402   .     A
C312   C402    1.402   .     A
C313   F439    1.360   .     S
C313   C370    1.399   .     A
C313   C357    1.400   .     A
C314   C430    1.402   .     A
C314   C401    1.402   .     A
C314   C394    1.456   .     S
C315   C400    1.402   .     A
C315   C395    1.456   .     S
C315   C433    1.402   .     A
C316   C396    1.456   .     S
C316   C432    1.402   .     A
C316   C399    1.402   .     A
C317   C951    1.420   1_545 A
C317   C346    1.420   .     S
C317   C380    1.464   .     S
C318   C347    1.420   .     A
C318   C952    1.420   1_545 S
C318   C379    1.464   .     S
C319   C378    1.464   .     S
C319   C353    1.420   .     A
C320   C354    1.420   .     S
C320   C377    1.464   .     S
C321   C376    1.467   .     S
C321   C359    1.421   .     S
C322   C361    1.420   .     A
C322   C375    1.456   .     S
C323   C962    1.420   1_545 A
C323   C357    1.420   .     S
C323   C374    1.456   .     S
C324   C358    1.399   .     A
C324   F440    1.360   .     S
C324   C372    1.399   .     S
C325   C373    1.467   .     S
C325   C963    1.421   1_545 A
C325   C358    1.421   .     S
C326   O549    1.223   .     D
C326   O550    1.399   .     S
C326   C346    1.490   .     S
C327   O551    1.223   .     D
C327   C347    1.490   .     S
C327   O552    1.399   .     S
C328   O553    1.223   .     D
C328   C348    1.490   .     S
C328   O554    1.399   .     S
C329   O557    1.399   .     S
C329   O555    1.223   .     D
C329   C350    1.490   .     S
C330   C351    1.490   .     S
C330   O558    1.223   .     D
C330   O559    1.399   .     S
C331   C352    1.490   .     S
C331   O561    1.399   .     S
C331   O560    1.223   .     D
C332   C353    1.490   .     S
C332   O563    1.399   .     S
C332   O562    1.223   .     D
C333   O564    1.223   .     D
C333   C354    1.490   .     S
C333   O565    1.399   .     S
C334   C355    1.488   .     S
C334   O568    1.398   .     S
C334   O566    1.223   .     D
C335   C359    1.399   .     A
C335   F441    1.360   .     S
C335   C368    1.399   .     S
C336   O570    1.399   .     S
C336   C356    1.493   .     S
C336   O569    1.222   .     D
C337   O572    1.399   .     S
C337   C357    1.493   .     S
C337   O571    1.222   .     D
C338   O574    1.398   .     S
C338   C358    1.488   .     S
C338   O573    1.223   .     D
C339   O576    1.398   .     S
C339   O575    1.223   .     D
C339   C359    1.488   .     S
C340   O577    1.222   .     D
C340   O579    1.399   .     S
C340   C361    1.493   .     S
C341   O580    1.222   .     D
C341   C362    1.493   .     S
C341   O581    1.399   .     S
C342   O583    1.398   .     S
C342   C363    1.488   .     S
C342   O582    1.223   .     D
C343   C361    1.400   .     A
C343   F442    1.360   .     S
C343   C369    1.399   .     S
C344   C362    1.400   .     A
C344   F443    1.360   .     S
C344   C970    1.399   .     S
C345   F444    1.360   .     S
C345   C972    1.399   .     A
C345   C363    1.399   .     A
C347   C349    1.400   .     A
C348   C360    1.400   .     A
C348   C19     1.420   1_655 S
C349   F445    1.360   .     S
C349   C365    1.397   .     A
C350   C371    1.401   .     A
C350   C20     1.420   1_655 A
C351   C917    1.420   .     A
C351   C382    1.401   .     A
C352   C393    1.400   .     A
C352   C918    1.420   .     S
C353   C404    1.400   .     A
C354   C415    1.401   .     A
C355   C21     1.421   1_655 A
C355   C426    1.399   .     A
C356   C22     1.420   1_655 S
C360   F446    1.360   .     S
C360   C66     1.397   1_655 A
C362   C923    1.420   .     A
C363   C925    1.421   .     A
C364   C365    1.464   1_554 S
C364   C982    1.397   1_545 S
C365   C364    1.464   1_556 S
C365   C993    1.397   1_545 S
C366   C367    1.464   1_554 S
C366   C404    1.397   .     S
C367   C415    1.397   .     A
C367   C366    1.464   1_556 S
C368   C369    1.468   .     S
C370   C944    1.399   1_545 S
C370   C372    1.468   .     S
C371   F447    1.360   .     S
C371   C67     1.397   1_655 S
C372   C945    1.399   1_545 A
C373   O1145   1.281   1_545 A
C373   O584    1.281   .     S
C374   O556    1.278   .     A
C374   O1102   1.278   1_545 S
C375   O567    1.278   .     S
C376   O504    1.281   .     S
C377   O505    1.280   .     A
C377   O509    1.280   .     A
C378   O510    1.280   .     A
C378   O506    1.280   .     S
C379   O507    1.280   .     A
C379   O511    1.280   .     A
C380   O508    1.280   .     S
C380   O513    1.280   .     S
C381   O542    1.279   .     A
C381   C436    1.456   .     S
C381   O514    1.280   .     A
C382   F448    1.360   .     S
C382   C964    1.397   .     S
C383   O543    1.279   .     A
C383   O515    1.280   .     A
C384   O540    1.279   .     A
C384   O516    1.279   .     A
C385   O541    1.280   .     A
C385   O517    1.279   .     A
C386   O547    1.279   .     A
C386   O518    1.280   .     A
C387   O548    1.279   .     A
C387   O519    1.280   .     A
C388   C434    1.456   .     S
C388   O520    1.279   .     A
C388   O544    1.279   .     A
C389   O521    1.279   .     A
C389   C435    1.456   .     S
C389   O546    1.280   .     A
C390   O533    1.279   .     A
C390   O522    1.279   .     A
C391   O524    1.279   .     A
C391   O535    1.280   .     A
C392   O531    1.279   .     A
C392   O525    1.279   .     A
C393   F449    1.360   .     S
C393   C965    1.397   .     S
C394   O532    1.279   .     A
C394   O526    1.279   .     A
C395   O527    1.279   .     A
C395   O538    1.279   .     A
C396   O539    1.280   .     A
C396   O528    1.279   .     A
C397   O536    1.279   .     A
C397   O529    1.279   .     A
C398   O537    1.279   .     A
C398   O530    1.280   .     A
C399   C416    1.387   .     A
C399   H453    1.083   .     S
C400   C414    1.387   .     A
C400   H464    1.083   .     S
C401   C413    1.387   .     A
C401   H475    1.083   .     S
C402   H486    1.083   .     S
C402   C412    1.387   .     A
C403   H496    1.083   .     S
C403   C411    1.387   .     A
C404   F450    1.360   .     S
C405   C410    1.387   .     A
C405   H497    1.083   .     S
C406   C409    1.387   .     A
C406   H498    1.083   .     S
C407   C408    1.387   .     A
C407   H499    1.083   .     S
C408   H500    1.083   .     S
C409   H454    1.083   .     S
C410   H455    1.083   .     S
C411   H456    1.083   .     S
C412   H457    1.083   .     S
C413   C436    1.402   .     A
C413   H458    1.083   .     S
C414   C435    1.402   .     A
C414   H459    1.083   .     S
C415   F451    1.360   .     S
C416   H460    1.083   .     S
C416   C434    1.402   .     A
C417   C433    1.387   .     A
C417   C435    1.402   .     A
C417   H461    1.083   .     S
C418   H462    1.083   .     S
C418   C434    1.402   .     A
C418   C432    1.387   .     A
C419   C431    1.387   .     A
C419   H463    1.083   .     S
C420   H465    1.083   .     S
C420   C436    1.402   .     A
C420   C430    1.387   .     A
C421   H466    1.083   .     S
C421   C429    1.387   .     A
C422   H467    1.083   .     S
C422   C428    1.387   .     A
C423   C427    1.387   .     A
C423   H468    1.083   .     S
C424   H469    1.083   .     S
C424   C425    1.387   .     A
C425   H470    1.083   .     S
C426   F452    1.360   .     S
C426   C68     1.399   1_655 A
C427   H471    1.083   .     S
C428   H472    1.083   .     S
C429   H473    1.083   .     S
C430   H474    1.083   .     S
C431   H476    1.083   .     S
C432   H477    1.083   .     S
C433   H478    1.083   .     S
H479   O550    1.014   .     S
H480   O552    1.014   .     S
H481   O554    1.014   .     S
H482   O557    1.014   .     S
H483   O559    1.014   .     S
H484   O561    1.014   .     S
H485   O563    1.014   .     S
H487   O565    1.014   .     S
H488   O568    1.014   .     S
H489   O570    1.014   .     S
H490   O572    1.014   .     S
H491   O574    1.014   .     S
H492   O576    1.014   .     S
H493   O579    1.014   .     S
H494   O581    1.014   .     S
H495   O583    1.014   .     S
O501   Zn585   1.945   .     S
O501   Zn1192  1.945   1_545 S
O501   Zn596   1.945   .     S
O501   Zn588   1.945   .     S
O502   Zn587   1.936   .     S
O502   C974    1.278   .     S
O503   Zn590   1.936   .     S
O503   C75     1.278   1_655 A
O504   Zn589   1.936   .     S
O505   Zn599   1.936   .     S
O506   Zn598   1.936   .     S
O507   Zn593   1.936   .     S
O508   Zn585   1.936   .     S
O509   Zn595   1.936   .     S
O510   Zn594   1.936   .     S
O511   Zn597   1.936   .     S
O512   Zn597   1.945   .     S
O512   Zn1187  1.945   1_545 S
O512   Zn593   1.945   .     S
O512   Zn591   1.945   .     S
O513   Zn596   1.936   .     S
O514   Zn588   1.938   .     S
O515   Zn587   1.938   .     S
O516   Zn590   1.938   .     S
O517   Zn589   1.938   .     S
O518   Zn592   1.938   .     S
O519   Zn591   1.938   .     S
O520   Zn586   1.938   .     S
O521   Zn600   1.938   .     S
O522   Zn587   1.938   .     S
O523   Zn598   1.945   .     S
O523   Zn586   1.945   .     S
O523   Zn594   1.945   .     S
O524   Zn588   1.938   .     S
O525   Zn600   1.938   .     S
O526   Zn586   1.938   .     S
O527   Zn591   1.938   .     S
O528   Zn592   1.938   .     S
O529   Zn589   1.938   .     S
O530   Zn590   1.938   .     S
O531   Zn295   1.938   1_655 S
O532   Zn594   1.938   .     S
O533   Zn1197  1.938   .     S
O534   Zn589   1.945   .     S
O534   Zn595   1.945   .     S
O534   Zn599   1.945   .     S
O535   Zn596   1.938   .     S
O536   Zn599   1.938   .     S
O537   Zn298   1.938   1_655 S
O538   Zn593   1.938   .     S
O539   Zn1185  1.938   .     S
O540   Zn294   1.938   1_655 S
O541   Zn595   1.938   .     S
O542   Zn585   1.938   .     S
O543   Zn1193  1.938   .     S
O544   Zn598   1.938   .     S
O545   C973    1.281   .     A
O545   Zn592   1.936   .     S
O546   Zn299   1.938   1_655 S
O547   Zn1196  1.938   .     S
O548   Zn597   1.938   .     S
O556   Zn591   1.936   .     S
O567   Zn586   1.936   .     S
O578   Zn600   1.936   .     S
O578   C76     1.281   1_655 A
O584   Zn588   1.936   .     S
Zn585  O1139   1.938   1_545 S
Zn587  O1112   1.945   .     S
Zn590  O223    1.945   1_655 S
Zn592  O1101   1.945   .     S
Zn593  O1143   1.938   1_545 S
Zn596  O1147   1.938   1_545 S
Zn597  O1133   1.938   1_545 S
Zn600  O234    1.945   1_655 S
C601   C646    1.401   .     A
C601   C664    1.397   .     A
C601   F737    1.360   .     S
C602   F738    1.360   .     S
C602   C969    1.399   .     A
C602   C656    1.400   .     A
C603   C712    1.402   .     A
C603   C683    1.456   .     S
C603   C719    1.402   .     A
C604   C684    1.456   .     S
C604   C722    1.402   .     A
C604   C711    1.402   .     A
C605   C710    1.402   .     A
C605   C685    1.456   .     S
C605   C721    1.402   .     A
C606   C709    1.402   .     A
C606   C686    1.456   .     S
C606   C724    1.402   .     A
C607   C723    1.402   .     A
C607   C687    1.456   .     S
C607   C708    1.402   .     A
C608   C707    1.402   .     A
C608   C697    1.456   .     S
C608   C727    1.402   .     A
C609   C725    1.402   .     A
C609   C698    1.456   .     S
C609   C706    1.402   .     A
C610   C729    1.402   .     A
C610   C690    1.456   .     S
C610   C705    1.402   .     A
C611   C691    1.456   .     S
C611   C728    1.402   .     A
C611   C703    1.402   .     A
C612   C692    1.456   .     S
C612   C731    1.402   .     A
C612   C702    1.402   .     A
C613   F739    1.360   .     S
C613   C670    1.399   .     A
C613   C657    1.400   .     A
C614   C730    1.402   .     A
C614   C701    1.402   .     A
C614   C694    1.456   .     S
C615   C700    1.402   .     A
C615   C695    1.456   .     S
C615   C733    1.402   .     A
C616   C696    1.456   .     S
C616   C732    1.402   .     A
C616   C699    1.402   .     A
C617   C646    1.420   .     S
C617   C680    1.464   .     S
C618   C647    1.420   .     A
C618   C679    1.464   .     S
C619   C678    1.464   .     S
C619   C653    1.420   .     A
C619   C948    1.420   1_455 S
C620   C950    1.420   1_455 A
C620   C654    1.420   .     S
C620   C677    1.464   .     S
C621   C676    1.467   .     S
C621   C955    1.421   1_455 A
C621   C659    1.421   .     S
C622   C661    1.420   .     A
C622   C956    1.420   1_455 S
C622   C675    1.456   .     S
C623   C657    1.420   .     S
C623   C674    1.456   .     S
C624   C658    1.399   .     A
C624   F740    1.360   .     S
C624   C672    1.399   .     S
C625   C673    1.467   .     S
C625   C658    1.421   .     S
C626   O849    1.223   .     D
C626   O850    1.399   .     S
C626   C646    1.490   .     S
C627   O851    1.223   .     D
C627   C647    1.490   .     S
C627   O852    1.399   .     S
C628   O853    1.223   .     D
C628   C648    1.490   .     S
C628   O854    1.399   .     S
C629   O857    1.399   .     S
C629   O855    1.223   .     D
C629   C650    1.490   .     S
C630   C651    1.490   .     S
C630   O858    1.223   .     D
C630   O859    1.399   .     S
C631   C652    1.490   .     S
C631   O861    1.399   .     S
C631   O860    1.223   .     D
C632   C653    1.490   .     S
C632   O863    1.399   .     S
C632   O862    1.223   .     D
C633   O864    1.223   .     D
C633   C654    1.490   .     S
C633   O865    1.399   .     S
C634   C655    1.488   .     S
C634   O868    1.398   .     S
C634   O866    1.223   .     D
C635   C659    1.399   .     A
C635   F741    1.360   .     S
C635   C668    1.399   .     S
C636   O870    1.399   .     S
C636   C656    1.493   .     S
C636   O869    1.222   .     D
C637   O872    1.399   .     S
C637   C657    1.493   .     S
C637   O871    1.222   .     D
C638   O874    1.398   .     S
C638   C658    1.488   .     S
C638   O873    1.223   .     D
C639   O876    1.398   .     S
C639   O875    1.223   .     D
C639   C659    1.488   .     S
C640   O877    1.222   .     D
C640   O879    1.399   .     S
C640   C661    1.493   .     S
C641   O880    1.222   .     D
C641   C662    1.493   .     S
C641   O881    1.399   .     S
C642   O883    1.398   .     S
C642   C663    1.488   .     S
C642   O882    1.223   .     D
C643   C661    1.400   .     A
C643   F742    1.360   .     S
C643   C669    1.399   .     S
C644   C662    1.400   .     A
C644   F743    1.360   .     S
C644   C70     1.399   1_565 S
C645   F744    1.360   .     S
C645   C72     1.399   1_565 A
C645   C663    1.399   .     A
C647   C649    1.400   .     A
C648   C660    1.400   .     A
C648   C919    1.420   .     S
C649   F745    1.360   .     S
C649   C665    1.397   .     A
C650   C671    1.401   .     A
C650   C920    1.420   .     A
C651   C17     1.420   1_565 A
C651   C682    1.401   .     A
C652   C693    1.400   .     A
C652   C18     1.420   1_565 S
C653   C704    1.400   .     A
C654   C715    1.401   .     A
C655   C921    1.421   .     A
C655   C726    1.399   .     A
C656   C922    1.420   .     S
C660   F746    1.360   .     S
C660   C966    1.397   .     A
C662   C23     1.420   1_565 A
C663   C25     1.421   1_565 A
C664   C665    1.464   1_554 S
C665   C664    1.464   1_556 S
C666   C960    1.397   1_455 A
C666   C667    1.464   1_554 S
C666   C704    1.397   .     S
C667   C715    1.397   .     A
C667   C666    1.464   1_556 S
C667   C971    1.397   1_455 S
C668   C669    1.468   .     S
C668   C1026   1.399   1_455 A
C669   C902    1.399   1_455 A
C670   C672    1.468   .     S
C671   F747    1.360   .     S
C671   C967    1.397   .     S
C673   O884    1.281   .     S
C674   O856    1.278   .     A
C675   O1103   1.278   1_455 A
C675   O867    1.278   .     S
C676   O1178   1.281   1_455 A
C676   O804    1.281   .     S
C677   O805    1.280   .     A
C677   O809    1.280   .     A
C678   O810    1.280   .     A
C678   O806    1.280   .     S
C679   O807    1.280   .     A
C679   O811    1.280   .     A
C680   O808    1.280   .     S
C680   O813    1.280   .     S
C681   O842    1.279   .     A
C681   C736    1.456   .     S
C681   O814    1.280   .     A
C682   F748    1.360   .     S
C682   C64     1.397   1_565 S
C683   O843    1.279   .     A
C683   O815    1.280   .     A
C684   O840    1.279   .     A
C684   O816    1.279   .     A
C685   O841    1.280   .     A
C685   O817    1.279   .     A
C686   O847    1.279   .     A
C686   O818    1.280   .     A
C687   O848    1.279   .     A
C687   O819    1.280   .     A
C688   C734    1.456   .     S
C688   O820    1.279   .     A
C688   O844    1.279   .     A
C689   O821    1.279   .     A
C689   C735    1.456   .     S
C689   O846    1.280   .     A
C690   O833    1.279   .     A
C690   O822    1.279   .     A
C691   O824    1.279   .     A
C691   O835    1.280   .     A
C692   O831    1.279   .     A
C692   O825    1.279   .     A
C693   F749    1.360   .     S
C693   C65     1.397   1_565 S
C694   O832    1.279   .     A
C694   O826    1.279   .     A
C695   O827    1.279   .     A
C695   O838    1.279   .     A
C696   O839    1.280   .     A
C696   O828    1.279   .     A
C697   O836    1.279   .     A
C697   O829    1.279   .     A
C698   O837    1.279   .     A
C698   O830    1.280   .     A
C699   C716    1.387   .     A
C699   H753    1.083   .     S
C700   C714    1.387   .     A
C700   H764    1.083   .     S
C701   C713    1.387   .     A
C701   H775    1.083   .     S
C702   H786    1.083   .     S
C702   C712    1.387   .     A
C703   H796    1.083   .     S
C703   C711    1.387   .     A
C704   F750    1.360   .     S
C705   C710    1.387   .     A
C705   H797    1.083   .     S
C706   C709    1.387   .     A
C706   H798    1.083   .     S
C707   C708    1.387   .     A
C707   H799    1.083   .     S
C708   H800    1.083   .     S
C709   H754    1.083   .     S
C710   H755    1.083   .     S
C711   H756    1.083   .     S
C712   H757    1.083   .     S
C713   C736    1.402   .     A
C713   H758    1.083   .     S
C714   C735    1.402   .     A
C714   H759    1.083   .     S
C715   F751    1.360   .     S
C716   H760    1.083   .     S
C716   C734    1.402   .     A
C717   C733    1.387   .     A
C717   C735    1.402   .     A
C717   H761    1.083   .     S
C718   H762    1.083   .     S
C718   C734    1.402   .     A
C718   C732    1.387   .     A
C719   C731    1.387   .     A
C719   H763    1.083   .     S
C720   H765    1.083   .     S
C720   C736    1.402   .     A
C720   C730    1.387   .     A
C721   H766    1.083   .     S
C721   C729    1.387   .     A
C722   H767    1.083   .     S
C722   C728    1.387   .     A
C723   C727    1.387   .     A
C723   H768    1.083   .     S
C724   H769    1.083   .     S
C724   C725    1.387   .     A
C725   H770    1.083   .     S
C726   F752    1.360   .     S
C726   C968    1.399   .     A
C727   H771    1.083   .     S
C728   H772    1.083   .     S
C729   H773    1.083   .     S
C730   H774    1.083   .     S
C731   H776    1.083   .     S
C732   H777    1.083   .     S
C733   H778    1.083   .     S
H779   O850    1.014   .     S
H780   O852    1.014   .     S
H781   O854    1.014   .     S
H782   O857    1.014   .     S
H783   O859    1.014   .     S
H784   O861    1.014   .     S
H785   O863    1.014   .     S
H787   O865    1.014   .     S
H788   O868    1.014   .     S
H789   O870    1.014   .     S
H790   O872    1.014   .     S
H791   O874    1.014   .     S
H792   O876    1.014   .     S
H793   O879    1.014   .     S
H794   O881    1.014   .     S
H795   O883    1.014   .     S
O801   Zn885   1.945   .     S
O801   Zn896   1.945   .     S
O801   Zn888   1.945   .     S
O802   Zn887   1.936   .     S
O802   C74     1.278   1_565 S
O803   Zn890   1.936   .     S
O803   C975    1.278   .     A
O804   Zn889   1.936   .     S
O805   Zn899   1.936   .     S
O806   Zn898   1.936   .     S
O807   Zn893   1.936   .     S
O808   Zn885   1.936   .     S
O809   Zn895   1.936   .     S
O810   Zn894   1.936   .     S
O811   Zn897   1.936   .     S
O812   Zn897   1.945   .     S
O812   Zn893   1.945   .     S
O812   Zn891   1.945   .     S
O813   Zn896   1.936   .     S
O814   Zn888   1.938   .     S
O815   Zn887   1.938   .     S
O816   Zn890   1.938   .     S
O817   Zn889   1.938   .     S
O818   Zn892   1.938   .     S
O819   Zn891   1.938   .     S
O820   Zn886   1.938   .     S
O821   Zn900   1.938   .     S
O822   Zn887   1.938   .     S
O823   Zn898   1.945   .     S
O823   Zn886   1.945   .     S
O823   Zn894   1.945   .     S
O823   Zn1190  1.945   1_455 S
O824   Zn888   1.938   .     S
O825   Zn900   1.938   .     S
O826   Zn886   1.938   .     S
O827   Zn891   1.938   .     S
O828   Zn892   1.938   .     S
O829   Zn889   1.938   .     S
O830   Zn890   1.938   .     S
O831   Zn1195  1.938   .     S
O832   Zn894   1.938   .     S
O833   Zn297   1.938   1_565 S
O834   Zn889   1.945   .     S
O834   Zn895   1.945   .     S
O834   Zn899   1.945   .     S
O834   Zn1200  1.945   1_455 S
O835   Zn896   1.938   .     S
O836   Zn899   1.938   .     S
O837   Zn1198  1.938   .     S
O838   Zn893   1.938   .     S
O839   Zn285   1.938   1_565 S
O840   Zn1194  1.938   .     S
O841   Zn895   1.938   .     S
O842   Zn885   1.938   .     S
O843   Zn293   1.938   1_565 S
O844   Zn898   1.938   .     S
O845   C73     1.281   1_565 A
O845   Zn892   1.936   .     S
O846   Zn1199  1.938   .     S
O847   Zn296   1.938   1_565 S
O848   Zn897   1.938   .     S
O856   Zn891   1.936   .     S
O867   Zn886   1.936   .     S
O878   Zn900   1.936   .     S
O878   C976    1.281   .     A
O884   Zn888   1.936   .     S
Zn887  O212    1.945   1_565 S
Zn890  O1123   1.945   .     S
Zn892  O201    1.945   1_565 S
Zn894  O1140   1.938   1_455 S
Zn895  O1131   1.938   1_455 S
Zn898  O1137   1.938   1_455 S
Zn899  O1146   1.938   1_455 S
Zn900  O1134   1.945   .     S
C901   C946    1.401   .     A
C901   C964    1.397   .     A
C901   F1037   1.360   .     S
C902   F1038   1.360   .     S
C902   C669    1.399   1_655 A
C902   C956    1.400   .     A
C903   C1012   1.402   .     A
C903   C983    1.456   .     S
C903   C1019   1.402   .     A
C904   C984    1.456   .     S
C904   C1022   1.402   .     A
C904   C1011   1.402   .     A
C905   C1010   1.402   .     A
C905   C985    1.456   .     S
C905   C1021   1.402   .     A
C906   C1009   1.402   .     A
C906   C986    1.456   .     S
C906   C1024   1.402   .     A
C907   C1023   1.402   .     A
C907   C987    1.456   .     S
C907   C1008   1.402   .     A
C908   C1007   1.402   .     A
C908   C997    1.456   .     S
C908   C1027   1.402   .     A
C909   C1025   1.402   .     A
C909   C998    1.456   .     S
C909   C1006   1.402   .     A
C910   C1029   1.402   .     A
C910   C990    1.456   .     S
C910   C1005   1.402   .     A
C911   C991    1.456   .     S
C911   C1028   1.402   .     A
C911   C1003   1.402   .     A
C912   C992    1.456   .     S
C912   C1031   1.402   .     A
C912   C1002   1.402   .     A
C913   F1039   1.360   .     S
C913   C970    1.399   .     A
C913   C957    1.400   .     A
C914   C1030   1.402   .     A
C914   C1001   1.402   .     A
C914   C994    1.456   .     S
C915   C1000   1.402   .     A
C915   C995    1.456   .     S
C915   C1033   1.402   .     A
C916   C996    1.456   .     S
C916   C1032   1.402   .     A
C916   C999    1.402   .     A
C917   C946    1.420   .     S
C917   C980    1.464   .     S
C918   C947    1.420   .     A
C918   C979    1.464   .     S
C919   C978    1.464   .     S
C919   C953    1.420   .     A
C920   C954    1.420   .     S
C920   C977    1.464   .     S
C921   C976    1.467   .     S
C921   C959    1.421   .     S
C922   C961    1.420   .     A
C922   C975    1.456   .     S
C923   C957    1.420   .     S
C923   C974    1.456   .     S
C924   C958    1.399   .     A
C924   F1040   1.360   .     S
C924   C972    1.399   .     S
C925   C973    1.467   .     S
C925   C958    1.421   .     S
C926   O1149   1.223   .     D
C926   O1150   1.399   .     S
C926   C946    1.490   .     S
C927   O1151   1.223   .     D
C927   C947    1.490   .     S
C927   O1152   1.399   .     S
C928   O1153   1.223   .     D
C928   C948    1.490   .     S
C928   O1154   1.399   .     S
C929   O1157   1.399   .     S
C929   O1155   1.223   .     D
C929   C950    1.490   .     S
C930   C951    1.490   .     S
C930   O1158   1.223   .     D
C930   O1159   1.399   .     S
C931   C952    1.490   .     S
C931   O1161   1.399   .     S
C931   O1160   1.223   .     D
C932   C953    1.490   .     S
C932   O1163   1.399   .     S
C932   O1162   1.223   .     D
C933   O1164   1.223   .     D
C933   C954    1.490   .     S
C933   O1165   1.399   .     S
C934   C955    1.488   .     S
C934   O1168   1.398   .     S
C934   O1166   1.223   .     D
C935   C959    1.399   .     A
C935   F1041   1.360   .     S
C935   C968    1.399   .     S
C936   O1170   1.399   .     S
C936   C956    1.493   .     S
C936   O1169   1.222   .     D
C937   O1172   1.399   .     S
C937   C957    1.493   .     S
C937   O1171   1.222   .     D
C938   O1174   1.398   .     S
C938   C958    1.488   .     S
C938   O1173   1.223   .     D
C939   O1176   1.398   .     S
C939   O1175   1.223   .     D
C939   C959    1.488   .     S
C940   O1177   1.222   .     D
C940   O1179   1.399   .     S
C940   C961    1.493   .     S
C941   O1180   1.222   .     D
C941   C962    1.493   .     S
C941   O1181   1.399   .     S
C942   O1183   1.398   .     S
C942   C963    1.488   .     S
C942   O1182   1.223   .     D
C943   C961    1.400   .     A
C943   F1042   1.360   .     S
C943   C969    1.399   .     S
C944   C962    1.400   .     A
C944   F1043   1.360   .     S
C944   C370    1.399   1_565 S
C945   F1044   1.360   .     S
C945   C372    1.399   1_565 A
C945   C963    1.399   .     A
C947   C949    1.400   .     A
C948   C960    1.400   .     A
C948   C619    1.420   1_655 S
C949   F1045   1.360   .     S
C949   C965    1.397   .     A
C950   C971    1.401   .     A
C950   C620    1.420   1_655 A
C951   C317    1.420   1_565 A
C951   C982    1.401   .     A
C952   C993    1.400   .     A
C952   C318    1.420   1_565 S
C953   C1004   1.400   .     A
C954   C1015   1.401   .     A
C955   C621    1.421   1_655 A
C955   C1026   1.399   .     A
C956   C622    1.420   1_655 S
C960   F1046   1.360   .     S
C960   C666    1.397   1_655 A
C962   C323    1.420   1_565 A
C963   C325    1.421   1_565 A
C964   C965    1.464   1_554 S
C965   C964    1.464   1_556 S
C966   C967    1.464   1_554 S
C966   C1004   1.397   .     S
C967   C1015   1.397   .     A
C967   C966    1.464   1_556 S
C968   C969    1.468   .     S
C970   C972    1.468   .     S
C971   F1047   1.360   .     S
C971   C667    1.397   1_655 S
C973   O1184   1.281   .     S
C974   O1156   1.278   .     A
C975   O1167   1.278   .     S
C976   O1104   1.281   .     S
C977   O1105   1.280   .     A
C977   O1109   1.280   .     A
C978   O1110   1.280   .     A
C978   O1106   1.280   .     S
C979   O1107   1.280   .     A
C979   O1111   1.280   .     A
C980   O1108   1.280   .     S
C980   O1113   1.280   .     S
C981   O1142   1.279   .     A
C981   C1036   1.456   .     S
C981   O1114   1.280   .     A
C982   F1048   1.360   .     S
C982   C364    1.397   1_565 S
C983   O1143   1.279   .     A
C983   O1115   1.280   .     A
C984   O1140   1.279   .     A
C984   O1116   1.279   .     A
C985   O1141   1.280   .     A
C985   O1117   1.279   .     A
C986   O1147   1.279   .     A
C986   O1118   1.280   .     A
C987   O1148   1.279   .     A
C987   O1119   1.280   .     A
C988   C1034   1.456   .     S
C988   O1120   1.279   .     A
C988   O1144   1.279   .     A
C989   O1121   1.279   .     A
C989   C1035   1.456   .     S
C989   O1146   1.280   .     A
C990   O1133   1.279   .     A
C990   O1122   1.279   .     A
C991   O1124   1.279   .     A
C991   O1135   1.280   .     A
C992   O1131   1.279   .     A
C992   O1125   1.279   .     A
C993   F1049   1.360   .     S
C993   C365    1.397   1_565 S
C994   O1132   1.279   .     A
C994   O1126   1.279   .     A
C995   O1127   1.279   .     A
C995   O1138   1.279   .     A
C996   O1139   1.280   .     A
C996   O1128   1.279   .     A
C997   O1136   1.279   .     A
C997   O1129   1.279   .     A
C998   O1137   1.279   .     A
C998   O1130   1.280   .     A
C999   C1016   1.387   .     A
C999   H1053   1.083   .     S
C1000  C1014   1.387   .     A
C1000  H1064   1.083   .     S
C1001  C1013   1.387   .     A
C1001  H1075   1.083   .     S
C1002  H1086   1.083   .     S
C1002  C1012   1.387   .     A
C1003  H1096   1.083   .     S
C1003  C1011   1.387   .     A
C1004  F1050   1.360   .     S
C1005  C1010   1.387   .     A
C1005  H1097   1.083   .     S
C1006  C1009   1.387   .     A
C1006  H1098   1.083   .     S
C1007  C1008   1.387   .     A
C1007  H1099   1.083   .     S
C1008  H1100   1.083   .     S
C1009  H1054   1.083   .     S
C1010  H1055   1.083   .     S
C1011  H1056   1.083   .     S
C1012  H1057   1.083   .     S
C1013  C1036   1.402   .     A
C1013  H1058   1.083   .     S
C1014  C1035   1.402   .     A
C1014  H1059   1.083   .     S
C1015  F1051   1.360   .     S
C1016  H1060   1.083   .     S
C1016  C1034   1.402   .     A
C1017  C1033   1.387   .     A
C1017  C1035   1.402   .     A
C1017  H1061   1.083   .     S
C1018  H1062   1.083   .     S
C1018  C1034   1.402   .     A
C1018  C1032   1.387   .     A
C1019  C1031   1.387   .     A
C1019  H1063   1.083   .     S
C1020  H1065   1.083   .     S
C1020  C1036   1.402   .     A
C1020  C1030   1.387   .     A
C1021  H1066   1.083   .     S
C1021  C1029   1.387   .     A
C1022  H1067   1.083   .     S
C1022  C1028   1.387   .     A
C1023  C1027   1.387   .     A
C1023  H1068   1.083   .     S
C1024  H1069   1.083   .     S
C1024  C1025   1.387   .     A
C1025  H1070   1.083   .     S
C1026  F1052   1.360   .     S
C1026  C668    1.399   1_655 A
C1027  H1071   1.083   .     S
C1028  H1072   1.083   .     S
C1029  H1073   1.083   .     S
C1030  H1074   1.083   .     S
C1031  H1076   1.083   .     S
C1032  H1077   1.083   .     S
C1033  H1078   1.083   .     S
H1079  O1150   1.014   .     S
H1080  O1152   1.014   .     S
H1081  O1154   1.014   .     S
H1082  O1157   1.014   .     S
H1083  O1159   1.014   .     S
H1084  O1161   1.014   .     S
H1085  O1163   1.014   .     S
H1087  O1165   1.014   .     S
H1088  O1168   1.014   .     S
H1089  O1170   1.014   .     S
H1090  O1172   1.014   .     S
H1091  O1174   1.014   .     S
H1092  O1176   1.014   .     S
H1093  O1179   1.014   .     S
H1094  O1181   1.014   .     S
H1095  O1183   1.014   .     S
O1101  Zn1185  1.945   .     S
O1101  Zn1196  1.945   .     S
O1101  Zn1188  1.945   .     S
O1102  Zn1187  1.936   .     S
O1102  C374    1.278   1_565 S
O1103  Zn1190  1.936   .     S
O1103  C675    1.278   1_655 A
O1104  Zn1189  1.936   .     S
O1105  Zn1199  1.936   .     S
O1106  Zn1198  1.936   .     S
O1107  Zn1193  1.936   .     S
O1108  Zn1185  1.936   .     S
O1109  Zn1195  1.936   .     S
O1110  Zn1194  1.936   .     S
O1111  Zn1197  1.936   .     S
O1112  Zn1197  1.945   .     S
O1112  Zn1193  1.945   .     S
O1112  Zn1191  1.945   .     S
O1113  Zn1196  1.936   .     S
O1114  Zn1188  1.938   .     S
O1115  Zn1187  1.938   .     S
O1116  Zn1190  1.938   .     S
O1117  Zn1189  1.938   .     S
O1118  Zn1192  1.938   .     S
O1119  Zn1191  1.938   .     S
O1120  Zn1186  1.938   .     S
O1121  Zn1200  1.938   .     S
O1122  Zn1187  1.938   .     S
O1123  Zn1198  1.945   .     S
O1123  Zn1186  1.945   .     S
O1123  Zn1194  1.945   .     S
O1124  Zn1188  1.938   .     S
O1125  Zn1200  1.938   .     S
O1126  Zn1186  1.938   .     S
O1127  Zn1191  1.938   .     S
O1128  Zn1192  1.938   .     S
O1129  Zn1189  1.938   .     S
O1130  Zn1190  1.938   .     S
O1131  Zn895   1.938   1_655 S
O1132  Zn1194  1.938   .     S
O1133  Zn597   1.938   1_565 S
O1134  Zn1189  1.945   .     S
O1134  Zn1195  1.945   .     S
O1134  Zn1199  1.945   .     S
O1135  Zn1196  1.938   .     S
O1136  Zn1199  1.938   .     S
O1137  Zn898   1.938   1_655 S
O1138  Zn1193  1.938   .     S
O1139  Zn585   1.938   1_565 S
O1140  Zn894   1.938   1_655 S
O1141  Zn1195  1.938   .     S
O1142  Zn1185  1.938   .     S
O1143  Zn593   1.938   1_565 S
O1144  Zn1198  1.938   .     S
O1145  C373    1.281   1_565 A
O1145  Zn1192  1.936   .     S
O1146  Zn899   1.938   1_655 S
O1147  Zn596   1.938   1_565 S
O1148  Zn1197  1.938   .     S
O1156  Zn1191  1.936   .     S
O1167  Zn1186  1.936   .     S
O1178  Zn1200  1.936   .     S
O1178  C676    1.281   1_655 A
O1184  Zn1188  1.936   .     S
Zn1187 O512    1.945   1_565 S
Zn1190 O823    1.945   1_655 S
Zn1192 O501    1.945   1_565 S
Zn1200 O834    1.945   1_655 S
