data_str_m3_o1_o2_pcu_sym.66
_audit_creation_date              2020-01-03
_audit_creation_method            'Materials Studio'
_symmetry_space_group_name_H-M    'P1'
_symmetry_Int_Tables_number       1
_symmetry_cell_setting            triclinic
loop_
_symmetry_equiv_pos_as_xyz
  x,y,z
_cell_length_a                    31.8696
_cell_length_b                    29.5651
_cell_length_c                    30.0047
_cell_angle_alpha                 89.9592
_cell_angle_beta                  90.4450
_cell_angle_gamma                 88.9809
loop_
_atom_site_label
_atom_site_type_symbol
_atom_site_fract_x
_atom_site_fract_y
_atom_site_fract_z
_atom_site_U_iso_or_equiv
_atom_site_adp_type
_atom_site_occupancy
O1     O     0.10559   0.20487   0.24999   0.00000  Uiso   1.00
O2     O     0.22774   0.12846   0.25000   0.00000  Uiso   1.00
O3     O     0.22774   0.20487   0.25000   0.00000  Uiso   1.00
O4     O     0.10559   0.12846   0.24999   0.00000  Uiso   1.00
N5     N     0.16667   0.28573   0.25000   0.00000  Uiso   1.00
N6     N     0.16667   0.04760   0.25000   0.00000  Uiso   1.00
C7     C     0.08681   0.16713   0.25001   0.00000  Uiso   1.00
C8     C     0.24652   0.16620   0.24983   0.00000  Uiso   1.00
O9     O     0.16666   0.20489   0.18453   0.00000  Uiso   1.00
O10    O     0.16667   0.12845   0.31547   0.00000  Uiso   1.00
O11    O     0.16667   0.20489   0.31547   0.00000  Uiso   1.00
O12    O     0.16666   0.12845   0.18453   0.00000  Uiso   1.00
C13    C     0.16683   0.16667   0.16397   0.00000  Uiso   1.00
C14    C     0.16653   0.16666   0.33611   0.00000  Uiso   1.00
Zn15   Zn    0.16667   0.21771   0.25000   0.00000  Uiso   1.00
Zn16   Zn    0.16667   0.11563   0.25000   0.00000  Uiso   1.00
C17    C     0.19269   0.02346   0.27797   0.00000  Uiso   1.00
C18    C     0.14064   0.30987   0.22204   0.00000  Uiso   1.00
C19    C     0.14065   0.02448   0.22202   0.00000  Uiso   1.00
C20    C     0.19267   0.30885   0.27799   0.00000  Uiso   1.00
C21    C     0.02157   0.16215   0.20908   0.00000  Uiso   1.00
C22    C     0.31178   0.17123   0.29064   0.00000  Uiso   1.00
C23    C     0.31148   0.16010   0.20924   0.00000  Uiso   1.00
C24    C     0.02183   0.17340   0.29045   0.00000  Uiso   1.00
C25    C     0.18443   0.20293   0.04735   0.00000  Uiso   1.00
C26    C     0.17877   0.12733   0.45319   0.00000  Uiso   1.00
C27    C     0.15490   0.20597   0.45302   0.00000  Uiso   1.00
C28    C     0.14959   0.13032   0.04710   0.00000  Uiso   1.00
H29    H     0.19850   0.23083   0.02984   0.00000  Uiso   1.00
H30    H     0.18867   0.09695   0.47087   0.00000  Uiso   1.00
H31    H     0.14514   0.23635   0.47055   0.00000  Uiso   1.00
H32    H     0.13550   0.10242   0.02941   0.00000  Uiso   1.00
C33    C     0.18415   0.20308   0.09336   0.00000  Uiso   1.00
C34    C     0.17834   0.12722   0.40719   0.00000  Uiso   1.00
C35    C     0.15497   0.20605   0.40702   0.00000  Uiso   1.00
C36    C     0.14980   0.13019   0.09310   0.00000  Uiso   1.00
H37    H     0.19786   0.23120   0.11107   0.00000  Uiso   1.00
H38    H     0.18775   0.09663   0.38980   0.00000  Uiso   1.00
H39    H     0.14553   0.23666   0.38948   0.00000  Uiso   1.00
H40    H     0.13602   0.10210   0.11060   0.00000  Uiso   1.00
C41    C     0.16694   0.16665   0.11615   0.00000  Uiso   1.00
C42    C     0.16656   0.16663   0.38407   0.00000  Uiso   1.00
C43    C     0.16701   0.16662   0.02422   0.00000  Uiso   1.00
C44    C     0.16692   0.16665   0.47610   0.00000  Uiso   1.00
C45    C     0.29066   0.16480   0.25003   0.00000  Uiso   1.00
C46    C     0.04267   0.16856   0.24971   0.00000  Uiso   1.00
F47    F     0.21880   0.04562   0.30597   0.00000  Uiso   1.00
F48    F     0.11453   0.28771   0.19403   0.00000  Uiso   1.00
F49    F     0.11456   0.04765   0.19397   0.00000  Uiso   1.00
F50    F     0.21873   0.28568   0.30607   0.00000  Uiso   1.00
N51    N     0.04425   0.15697   0.16812   0.00000  Uiso   1.00
O52    O     0.03732   0.12263   0.14214   0.00000  Uiso   1.00
O53    O     0.07016   0.18789   0.15554   0.00000  Uiso   1.00
N54    N     0.28912   0.17633   0.33161   0.00000  Uiso   1.00
O55    O     0.29588   0.21075   0.35753   0.00000  Uiso   1.00
O56    O     0.26347   0.14521   0.34430   0.00000  Uiso   1.00
N57    N     0.28852   0.15546   0.16810   0.00000  Uiso   1.00
O58    O     0.29505   0.18299   0.13512   0.00000  Uiso   1.00
O59    O     0.26277   0.12223   0.16264   0.00000  Uiso   1.00
N60    N     0.04478   0.17849   0.33153   0.00000  Uiso   1.00
O61    O     0.03863   0.15098   0.36462   0.00000  Uiso   1.00
O62    O     0.06987   0.21230   0.33691   0.00000  Uiso   1.00
O63    O     0.43892   0.20487   0.24999   0.00000  Uiso   1.00
O64    O     0.56108   0.12846   0.25000   0.00000  Uiso   1.00
O65    O     0.56108   0.20487   0.25000   0.00000  Uiso   1.00
O66    O     0.43892   0.12846   0.24999   0.00000  Uiso   1.00
N67    N     0.50000   0.28573   0.25000   0.00000  Uiso   1.00
N68    N     0.50000   0.04760   0.25000   0.00000  Uiso   1.00
C69    C     0.42014   0.16713   0.25001   0.00000  Uiso   1.00
C70    C     0.57985   0.16620   0.24983   0.00000  Uiso   1.00
O71    O     0.50000   0.20489   0.18453   0.00000  Uiso   1.00
O72    O     0.50000   0.12845   0.31547   0.00000  Uiso   1.00
O73    O     0.50000   0.20489   0.31547   0.00000  Uiso   1.00
O74    O     0.50000   0.12845   0.18453   0.00000  Uiso   1.00
C75    C     0.50016   0.16667   0.16397   0.00000  Uiso   1.00
C76    C     0.49986   0.16666   0.33611   0.00000  Uiso   1.00
Zn77   Zn    0.50000   0.21771   0.25000   0.00000  Uiso   1.00
Zn78   Zn    0.50000   0.11563   0.25000   0.00000  Uiso   1.00
C79    C     0.52602   0.02346   0.27797   0.00000  Uiso   1.00
C80    C     0.47398   0.30987   0.22204   0.00000  Uiso   1.00
C81    C     0.47398   0.02448   0.22202   0.00000  Uiso   1.00
C82    C     0.52601   0.30885   0.27799   0.00000  Uiso   1.00
C83    C     0.35490   0.16215   0.20908   0.00000  Uiso   1.00
C84    C     0.64511   0.17123   0.29064   0.00000  Uiso   1.00
C85    C     0.64482   0.16010   0.20924   0.00000  Uiso   1.00
C86    C     0.35517   0.17340   0.29045   0.00000  Uiso   1.00
C87    C     0.51776   0.20293   0.04735   0.00000  Uiso   1.00
C88    C     0.51210   0.12733   0.45319   0.00000  Uiso   1.00
C89    C     0.48824   0.20597   0.45302   0.00000  Uiso   1.00
C90    C     0.48292   0.13032   0.04710   0.00000  Uiso   1.00
H91    H     0.53184   0.23083   0.02984   0.00000  Uiso   1.00
H92    H     0.52201   0.09695   0.47087   0.00000  Uiso   1.00
H93    H     0.47847   0.23635   0.47055   0.00000  Uiso   1.00
H94    H     0.46883   0.10242   0.02941   0.00000  Uiso   1.00
C95    C     0.51748   0.20308   0.09336   0.00000  Uiso   1.00
C96    C     0.51167   0.12722   0.40719   0.00000  Uiso   1.00
C97    C     0.48830   0.20605   0.40702   0.00000  Uiso   1.00
C98    C     0.48313   0.13019   0.09310   0.00000  Uiso   1.00
H99    H     0.53119   0.23120   0.11107   0.00000  Uiso   1.00
H100   H     0.52108   0.09663   0.38980   0.00000  Uiso   1.00
H101   H     0.47886   0.23666   0.38948   0.00000  Uiso   1.00
H102   H     0.46936   0.10210   0.11060   0.00000  Uiso   1.00
C103   C     0.50028   0.16665   0.11615   0.00000  Uiso   1.00
C104   C     0.49989   0.16663   0.38407   0.00000  Uiso   1.00
C105   C     0.50034   0.16662   0.02422   0.00000  Uiso   1.00
C106   C     0.50026   0.16665   0.47610   0.00000  Uiso   1.00
C107   C     0.62400   0.16480   0.25003   0.00000  Uiso   1.00
C108   C     0.37600   0.16856   0.24971   0.00000  Uiso   1.00
F109   F     0.55213   0.04562   0.30597   0.00000  Uiso   1.00
F110   F     0.44787   0.28771   0.19403   0.00000  Uiso   1.00
F111   F     0.44790   0.04765   0.19397   0.00000  Uiso   1.00
F112   F     0.55207   0.28568   0.30607   0.00000  Uiso   1.00
N113   N     0.37758   0.15697   0.16812   0.00000  Uiso   1.00
O114   O     0.37065   0.12263   0.14214   0.00000  Uiso   1.00
O115   O     0.40350   0.18789   0.15554   0.00000  Uiso   1.00
N116   N     0.62246   0.17633   0.33161   0.00000  Uiso   1.00
O117   O     0.62921   0.21075   0.35753   0.00000  Uiso   1.00
O118   O     0.59680   0.14521   0.34430   0.00000  Uiso   1.00
N119   N     0.62185   0.15546   0.16810   0.00000  Uiso   1.00
O120   O     0.62838   0.18299   0.13512   0.00000  Uiso   1.00
O121   O     0.59611   0.12223   0.16264   0.00000  Uiso   1.00
N122   N     0.37811   0.17849   0.33153   0.00000  Uiso   1.00
O123   O     0.37197   0.15098   0.36462   0.00000  Uiso   1.00
O124   O     0.40320   0.21230   0.33691   0.00000  Uiso   1.00
O125   O     0.77226   0.20487   0.24999   0.00000  Uiso   1.00
O126   O     0.89441   0.12846   0.25000   0.00000  Uiso   1.00
O127   O     0.89441   0.20487   0.25000   0.00000  Uiso   1.00
O128   O     0.77226   0.12846   0.24999   0.00000  Uiso   1.00
N129   N     0.83333   0.28573   0.25000   0.00000  Uiso   1.00
N130   N     0.83333   0.04760   0.25000   0.00000  Uiso   1.00
C131   C     0.75348   0.16713   0.25001   0.00000  Uiso   1.00
C132   C     0.91319   0.16620   0.24983   0.00000  Uiso   1.00
O133   O     0.83333   0.20489   0.18453   0.00000  Uiso   1.00
O134   O     0.83334   0.12845   0.31547   0.00000  Uiso   1.00
O135   O     0.83334   0.20489   0.31547   0.00000  Uiso   1.00
O136   O     0.83333   0.12845   0.18453   0.00000  Uiso   1.00
C137   C     0.83349   0.16667   0.16397   0.00000  Uiso   1.00
C138   C     0.83319   0.16666   0.33611   0.00000  Uiso   1.00
Zn139  Zn    0.83333   0.21771   0.25000   0.00000  Uiso   1.00
Zn140  Zn    0.83333   0.11563   0.25000   0.00000  Uiso   1.00
C141   C     0.85935   0.02346   0.27797   0.00000  Uiso   1.00
C142   C     0.80731   0.30987   0.22204   0.00000  Uiso   1.00
C143   C     0.80732   0.02448   0.22202   0.00000  Uiso   1.00
C144   C     0.85934   0.30885   0.27799   0.00000  Uiso   1.00
C145   C     0.68823   0.16215   0.20908   0.00000  Uiso   1.00
C146   C     0.97844   0.17123   0.29064   0.00000  Uiso   1.00
C147   C     0.97815   0.16010   0.20924   0.00000  Uiso   1.00
C148   C     0.68850   0.17340   0.29045   0.00000  Uiso   1.00
C149   C     0.85110   0.20293   0.04735   0.00000  Uiso   1.00
C150   C     0.84543   0.12733   0.45319   0.00000  Uiso   1.00
C151   C     0.82157   0.20597   0.45302   0.00000  Uiso   1.00
C152   C     0.81625   0.13032   0.04710   0.00000  Uiso   1.00
H153   H     0.86517   0.23083   0.02984   0.00000  Uiso   1.00
H154   H     0.85534   0.09695   0.47087   0.00000  Uiso   1.00
H155   H     0.81180   0.23635   0.47055   0.00000  Uiso   1.00
H156   H     0.80216   0.10242   0.02941   0.00000  Uiso   1.00
C157   C     0.85082   0.20308   0.09336   0.00000  Uiso   1.00
C158   C     0.84501   0.12722   0.40719   0.00000  Uiso   1.00
C159   C     0.82164   0.20605   0.40702   0.00000  Uiso   1.00
C160   C     0.81647   0.13019   0.09310   0.00000  Uiso   1.00
H161   H     0.86452   0.23120   0.11107   0.00000  Uiso   1.00
H162   H     0.85442   0.09663   0.38980   0.00000  Uiso   1.00
H163   H     0.81219   0.23666   0.38948   0.00000  Uiso   1.00
H164   H     0.80269   0.10210   0.11060   0.00000  Uiso   1.00
C165   C     0.83361   0.16665   0.11615   0.00000  Uiso   1.00
C166   C     0.83322   0.16663   0.38407   0.00000  Uiso   1.00
C167   C     0.83368   0.16662   0.02422   0.00000  Uiso   1.00
C168   C     0.83359   0.16665   0.47610   0.00000  Uiso   1.00
C169   C     0.95733   0.16480   0.25003   0.00000  Uiso   1.00
C170   C     0.70933   0.16856   0.24971   0.00000  Uiso   1.00
F171   F     0.88547   0.04562   0.30597   0.00000  Uiso   1.00
F172   F     0.78120   0.28771   0.19403   0.00000  Uiso   1.00
F173   F     0.78123   0.04765   0.19397   0.00000  Uiso   1.00
F174   F     0.88540   0.28568   0.30607   0.00000  Uiso   1.00
N175   N     0.71091   0.15697   0.16812   0.00000  Uiso   1.00
O176   O     0.70399   0.12263   0.14214   0.00000  Uiso   1.00
O177   O     0.73683   0.18789   0.15554   0.00000  Uiso   1.00
N178   N     0.95579   0.17633   0.33161   0.00000  Uiso   1.00
O179   O     0.96254   0.21075   0.35753   0.00000  Uiso   1.00
O180   O     0.93013   0.14521   0.34430   0.00000  Uiso   1.00
N181   N     0.95519   0.15546   0.16810   0.00000  Uiso   1.00
O182   O     0.96171   0.18299   0.13512   0.00000  Uiso   1.00
O183   O     0.92944   0.12223   0.16264   0.00000  Uiso   1.00
N184   N     0.71144   0.17849   0.33153   0.00000  Uiso   1.00
O185   O     0.70530   0.15098   0.36462   0.00000  Uiso   1.00
O186   O     0.73653   0.21230   0.33691   0.00000  Uiso   1.00
O187   O     0.10559   0.53821   0.24999   0.00000  Uiso   1.00
O188   O     0.22774   0.46179   0.25000   0.00000  Uiso   1.00
O189   O     0.22774   0.53821   0.25000   0.00000  Uiso   1.00
O190   O     0.10559   0.46179   0.24999   0.00000  Uiso   1.00
N191   N     0.16667   0.61907   0.25000   0.00000  Uiso   1.00
N192   N     0.16667   0.38093   0.25000   0.00000  Uiso   1.00
C193   C     0.08681   0.50047   0.25001   0.00000  Uiso   1.00
C194   C     0.24652   0.49954   0.24983   0.00000  Uiso   1.00
O195   O     0.16666   0.53822   0.18453   0.00000  Uiso   1.00
O196   O     0.16667   0.46178   0.31547   0.00000  Uiso   1.00
O197   O     0.16667   0.53822   0.31547   0.00000  Uiso   1.00
O198   O     0.16666   0.46178   0.18453   0.00000  Uiso   1.00
C199   C     0.16683   0.50000   0.16397   0.00000  Uiso   1.00
C200   C     0.16653   0.49999   0.33611   0.00000  Uiso   1.00
Zn201  Zn    0.16667   0.55104   0.25000   0.00000  Uiso   1.00
Zn202  Zn    0.16667   0.44896   0.25000   0.00000  Uiso   1.00
C203   C     0.19269   0.35680   0.27797   0.00000  Uiso   1.00
C204   C     0.14064   0.64320   0.22204   0.00000  Uiso   1.00
C205   C     0.14065   0.35782   0.22202   0.00000  Uiso   1.00
C206   C     0.19267   0.64218   0.27799   0.00000  Uiso   1.00
C207   C     0.02157   0.49548   0.20908   0.00000  Uiso   1.00
C208   C     0.31178   0.50456   0.29064   0.00000  Uiso   1.00
C209   C     0.31148   0.49343   0.20924   0.00000  Uiso   1.00
C210   C     0.02183   0.50673   0.29045   0.00000  Uiso   1.00
C211   C     0.18443   0.53626   0.04735   0.00000  Uiso   1.00
C212   C     0.17877   0.46066   0.45319   0.00000  Uiso   1.00
C213   C     0.15490   0.53930   0.45302   0.00000  Uiso   1.00
C214   C     0.14959   0.46365   0.04710   0.00000  Uiso   1.00
H215   H     0.19850   0.56417   0.02984   0.00000  Uiso   1.00
H216   H     0.18867   0.43029   0.47087   0.00000  Uiso   1.00
H217   H     0.14514   0.56968   0.47055   0.00000  Uiso   1.00
H218   H     0.13550   0.43576   0.02941   0.00000  Uiso   1.00
C219   C     0.18415   0.53641   0.09336   0.00000  Uiso   1.00
C220   C     0.17834   0.46055   0.40719   0.00000  Uiso   1.00
C221   C     0.15497   0.53938   0.40702   0.00000  Uiso   1.00
C222   C     0.14980   0.46352   0.09310   0.00000  Uiso   1.00
H223   H     0.19786   0.56453   0.11107   0.00000  Uiso   1.00
H224   H     0.18775   0.42996   0.38980   0.00000  Uiso   1.00
H225   H     0.14553   0.57000   0.38948   0.00000  Uiso   1.00
H226   H     0.13602   0.43543   0.11060   0.00000  Uiso   1.00
C227   C     0.16694   0.49998   0.11615   0.00000  Uiso   1.00
C228   C     0.16656   0.49996   0.38407   0.00000  Uiso   1.00
C229   C     0.16701   0.49996   0.02422   0.00000  Uiso   1.00
C230   C     0.16692   0.49998   0.47610   0.00000  Uiso   1.00
C231   C     0.29066   0.49814   0.25003   0.00000  Uiso   1.00
C232   C     0.04267   0.50189   0.24971   0.00000  Uiso   1.00
F233   F     0.21880   0.37895   0.30597   0.00000  Uiso   1.00
F234   F     0.11453   0.62105   0.19403   0.00000  Uiso   1.00
F235   F     0.11456   0.38099   0.19397   0.00000  Uiso   1.00
F236   F     0.21873   0.61901   0.30607   0.00000  Uiso   1.00
N237   N     0.04425   0.49030   0.16812   0.00000  Uiso   1.00
O238   O     0.03732   0.45597   0.14214   0.00000  Uiso   1.00
O239   O     0.07016   0.52122   0.15554   0.00000  Uiso   1.00
N240   N     0.28912   0.50966   0.33161   0.00000  Uiso   1.00
O241   O     0.29588   0.54408   0.35753   0.00000  Uiso   1.00
O242   O     0.26347   0.47854   0.34430   0.00000  Uiso   1.00
N243   N     0.28852   0.48879   0.16810   0.00000  Uiso   1.00
O244   O     0.29505   0.51632   0.13512   0.00000  Uiso   1.00
O245   O     0.26277   0.45556   0.16264   0.00000  Uiso   1.00
N246   N     0.04478   0.51182   0.33153   0.00000  Uiso   1.00
O247   O     0.03863   0.48431   0.36462   0.00000  Uiso   1.00
O248   O     0.06987   0.54564   0.33691   0.00000  Uiso   1.00
O249   O     0.43892   0.53821   0.24999   0.00000  Uiso   1.00
O250   O     0.56108   0.46179   0.25000   0.00000  Uiso   1.00
O251   O     0.56108   0.53821   0.25000   0.00000  Uiso   1.00
O252   O     0.43892   0.46179   0.24999   0.00000  Uiso   1.00
N253   N     0.50000   0.61907   0.25000   0.00000  Uiso   1.00
N254   N     0.50000   0.38093   0.25000   0.00000  Uiso   1.00
C255   C     0.42014   0.50047   0.25001   0.00000  Uiso   1.00
C256   C     0.57985   0.49954   0.24983   0.00000  Uiso   1.00
O257   O     0.50000   0.53822   0.18453   0.00000  Uiso   1.00
O258   O     0.50000   0.46178   0.31547   0.00000  Uiso   1.00
O259   O     0.50000   0.53822   0.31547   0.00000  Uiso   1.00
O260   O     0.50000   0.46178   0.18453   0.00000  Uiso   1.00
C261   C     0.50016   0.50000   0.16397   0.00000  Uiso   1.00
C262   C     0.49986   0.49999   0.33611   0.00000  Uiso   1.00
Zn263  Zn    0.50000   0.55104   0.25000   0.00000  Uiso   1.00
Zn264  Zn    0.50000   0.44896   0.25000   0.00000  Uiso   1.00
C265   C     0.52602   0.35680   0.27797   0.00000  Uiso   1.00
C266   C     0.47398   0.64320   0.22204   0.00000  Uiso   1.00
C267   C     0.47398   0.35782   0.22202   0.00000  Uiso   1.00
C268   C     0.52601   0.64218   0.27799   0.00000  Uiso   1.00
C269   C     0.35490   0.49548   0.20908   0.00000  Uiso   1.00
C270   C     0.64511   0.50456   0.29064   0.00000  Uiso   1.00
C271   C     0.64482   0.49343   0.20924   0.00000  Uiso   1.00
C272   C     0.35517   0.50673   0.29045   0.00000  Uiso   1.00
C273   C     0.51776   0.53626   0.04735   0.00000  Uiso   1.00
C274   C     0.51210   0.46066   0.45319   0.00000  Uiso   1.00
C275   C     0.48824   0.53930   0.45302   0.00000  Uiso   1.00
C276   C     0.48292   0.46365   0.04710   0.00000  Uiso   1.00
H277   H     0.53184   0.56417   0.02984   0.00000  Uiso   1.00
H278   H     0.52201   0.43029   0.47087   0.00000  Uiso   1.00
H279   H     0.47847   0.56968   0.47055   0.00000  Uiso   1.00
H280   H     0.46883   0.43576   0.02941   0.00000  Uiso   1.00
C281   C     0.51748   0.53641   0.09336   0.00000  Uiso   1.00
C282   C     0.51167   0.46055   0.40719   0.00000  Uiso   1.00
C283   C     0.48830   0.53938   0.40702   0.00000  Uiso   1.00
C284   C     0.48313   0.46352   0.09310   0.00000  Uiso   1.00
H285   H     0.53119   0.56453   0.11107   0.00000  Uiso   1.00
H286   H     0.52108   0.42996   0.38980   0.00000  Uiso   1.00
H287   H     0.47886   0.57000   0.38948   0.00000  Uiso   1.00
H288   H     0.46936   0.43543   0.11060   0.00000  Uiso   1.00
C289   C     0.50028   0.49998   0.11615   0.00000  Uiso   1.00
C290   C     0.49989   0.49996   0.38407   0.00000  Uiso   1.00
C291   C     0.50034   0.49996   0.02422   0.00000  Uiso   1.00
C292   C     0.50026   0.49998   0.47610   0.00000  Uiso   1.00
C293   C     0.62400   0.49814   0.25003   0.00000  Uiso   1.00
C294   C     0.37600   0.50189   0.24971   0.00000  Uiso   1.00
F295   F     0.55213   0.37895   0.30597   0.00000  Uiso   1.00
F296   F     0.44787   0.62105   0.19403   0.00000  Uiso   1.00
F297   F     0.44790   0.38099   0.19397   0.00000  Uiso   1.00
F298   F     0.55207   0.61901   0.30607   0.00000  Uiso   1.00
N299   N     0.37758   0.49030   0.16812   0.00000  Uiso   1.00
O300   O     0.37065   0.45597   0.14214   0.00000  Uiso   1.00
O301   O     0.40350   0.52122   0.15554   0.00000  Uiso   1.00
N302   N     0.62246   0.50966   0.33161   0.00000  Uiso   1.00
O303   O     0.62921   0.54408   0.35753   0.00000  Uiso   1.00
O304   O     0.59680   0.47854   0.34430   0.00000  Uiso   1.00
N305   N     0.62185   0.48879   0.16810   0.00000  Uiso   1.00
O306   O     0.62838   0.51632   0.13512   0.00000  Uiso   1.00
O307   O     0.59611   0.45556   0.16264   0.00000  Uiso   1.00
N308   N     0.37811   0.51182   0.33153   0.00000  Uiso   1.00
O309   O     0.37197   0.48431   0.36462   0.00000  Uiso   1.00
O310   O     0.40320   0.54564   0.33691   0.00000  Uiso   1.00
O311   O     0.77226   0.53821   0.24999   0.00000  Uiso   1.00
O312   O     0.89441   0.46179   0.25000   0.00000  Uiso   1.00
O313   O     0.89441   0.53821   0.25000   0.00000  Uiso   1.00
O314   O     0.77226   0.46179   0.24999   0.00000  Uiso   1.00
N315   N     0.83333   0.61907   0.25000   0.00000  Uiso   1.00
N316   N     0.83333   0.38093   0.25000   0.00000  Uiso   1.00
C317   C     0.75348   0.50047   0.25001   0.00000  Uiso   1.00
C318   C     0.91319   0.49954   0.24983   0.00000  Uiso   1.00
O319   O     0.83333   0.53822   0.18453   0.00000  Uiso   1.00
O320   O     0.83334   0.46178   0.31547   0.00000  Uiso   1.00
O321   O     0.83334   0.53822   0.31547   0.00000  Uiso   1.00
O322   O     0.83333   0.46178   0.18453   0.00000  Uiso   1.00
C323   C     0.83349   0.50000   0.16397   0.00000  Uiso   1.00
C324   C     0.83319   0.49999   0.33611   0.00000  Uiso   1.00
Zn325  Zn    0.83333   0.55104   0.25000   0.00000  Uiso   1.00
Zn326  Zn    0.83333   0.44896   0.25000   0.00000  Uiso   1.00
C327   C     0.85935   0.35680   0.27797   0.00000  Uiso   1.00
C328   C     0.80731   0.64320   0.22204   0.00000  Uiso   1.00
C329   C     0.80732   0.35782   0.22202   0.00000  Uiso   1.00
C330   C     0.85934   0.64218   0.27799   0.00000  Uiso   1.00
C331   C     0.68823   0.49548   0.20908   0.00000  Uiso   1.00
C332   C     0.97844   0.50456   0.29064   0.00000  Uiso   1.00
C333   C     0.97815   0.49343   0.20924   0.00000  Uiso   1.00
C334   C     0.68850   0.50673   0.29045   0.00000  Uiso   1.00
C335   C     0.85110   0.53626   0.04735   0.00000  Uiso   1.00
C336   C     0.84543   0.46066   0.45319   0.00000  Uiso   1.00
C337   C     0.82157   0.53930   0.45302   0.00000  Uiso   1.00
C338   C     0.81625   0.46365   0.04710   0.00000  Uiso   1.00
H339   H     0.86517   0.56417   0.02984   0.00000  Uiso   1.00
H340   H     0.85534   0.43029   0.47087   0.00000  Uiso   1.00
H341   H     0.81180   0.56968   0.47055   0.00000  Uiso   1.00
H342   H     0.80216   0.43576   0.02941   0.00000  Uiso   1.00
C343   C     0.85082   0.53641   0.09336   0.00000  Uiso   1.00
C344   C     0.84501   0.46055   0.40719   0.00000  Uiso   1.00
C345   C     0.82164   0.53938   0.40702   0.00000  Uiso   1.00
C346   C     0.81647   0.46352   0.09310   0.00000  Uiso   1.00
H347   H     0.86452   0.56453   0.11107   0.00000  Uiso   1.00
H348   H     0.85442   0.42996   0.38980   0.00000  Uiso   1.00
H349   H     0.81219   0.57000   0.38948   0.00000  Uiso   1.00
H350   H     0.80269   0.43543   0.11060   0.00000  Uiso   1.00
C351   C     0.83361   0.49998   0.11615   0.00000  Uiso   1.00
C352   C     0.83322   0.49996   0.38407   0.00000  Uiso   1.00
C353   C     0.83368   0.49996   0.02422   0.00000  Uiso   1.00
C354   C     0.83359   0.49998   0.47610   0.00000  Uiso   1.00
C355   C     0.95733   0.49814   0.25003   0.00000  Uiso   1.00
C356   C     0.70933   0.50189   0.24971   0.00000  Uiso   1.00
F357   F     0.88547   0.37895   0.30597   0.00000  Uiso   1.00
F358   F     0.78120   0.62105   0.19403   0.00000  Uiso   1.00
F359   F     0.78123   0.38099   0.19397   0.00000  Uiso   1.00
F360   F     0.88540   0.61901   0.30607   0.00000  Uiso   1.00
N361   N     0.71091   0.49030   0.16812   0.00000  Uiso   1.00
O362   O     0.70399   0.45597   0.14214   0.00000  Uiso   1.00
O363   O     0.73683   0.52122   0.15554   0.00000  Uiso   1.00
N364   N     0.95579   0.50966   0.33161   0.00000  Uiso   1.00
O365   O     0.96254   0.54408   0.35753   0.00000  Uiso   1.00
O366   O     0.93013   0.47854   0.34430   0.00000  Uiso   1.00
N367   N     0.95519   0.48879   0.16810   0.00000  Uiso   1.00
O368   O     0.96171   0.51632   0.13512   0.00000  Uiso   1.00
O369   O     0.92944   0.45556   0.16264   0.00000  Uiso   1.00
N370   N     0.71144   0.51182   0.33153   0.00000  Uiso   1.00
O371   O     0.70530   0.48431   0.36462   0.00000  Uiso   1.00
O372   O     0.73653   0.54564   0.33691   0.00000  Uiso   1.00
O373   O     0.10559   0.87154   0.24999   0.00000  Uiso   1.00
O374   O     0.22774   0.79513   0.25000   0.00000  Uiso   1.00
O375   O     0.22774   0.87154   0.25000   0.00000  Uiso   1.00
O376   O     0.10559   0.79513   0.24999   0.00000  Uiso   1.00
N377   N     0.16667   0.95240   0.25000   0.00000  Uiso   1.00
N378   N     0.16667   0.71427   0.25000   0.00000  Uiso   1.00
C379   C     0.08681   0.83380   0.25001   0.00000  Uiso   1.00
C380   C     0.24652   0.83287   0.24983   0.00000  Uiso   1.00
O381   O     0.16666   0.87155   0.18453   0.00000  Uiso   1.00
O382   O     0.16667   0.79511   0.31547   0.00000  Uiso   1.00
O383   O     0.16667   0.87155   0.31547   0.00000  Uiso   1.00
O384   O     0.16666   0.79511   0.18453   0.00000  Uiso   1.00
C385   C     0.16683   0.83334   0.16397   0.00000  Uiso   1.00
C386   C     0.16653   0.83332   0.33611   0.00000  Uiso   1.00
Zn387  Zn    0.16667   0.88437   0.25000   0.00000  Uiso   1.00
Zn388  Zn    0.16667   0.78229   0.25000   0.00000  Uiso   1.00
C389   C     0.19269   0.69013   0.27797   0.00000  Uiso   1.00
C390   C     0.14064   0.97654   0.22204   0.00000  Uiso   1.00
C391   C     0.14065   0.69115   0.22202   0.00000  Uiso   1.00
C392   C     0.19267   0.97552   0.27799   0.00000  Uiso   1.00
C393   C     0.02157   0.82882   0.20908   0.00000  Uiso   1.00
C394   C     0.31178   0.83789   0.29064   0.00000  Uiso   1.00
C395   C     0.31148   0.82677   0.20924   0.00000  Uiso   1.00
C396   C     0.02183   0.84007   0.29045   0.00000  Uiso   1.00
C397   C     0.18443   0.86960   0.04735   0.00000  Uiso   1.00
C398   C     0.17877   0.79399   0.45319   0.00000  Uiso   1.00
C399   C     0.15490   0.87264   0.45302   0.00000  Uiso   1.00
C400   C     0.14959   0.79698   0.04710   0.00000  Uiso   1.00
H401   H     0.19850   0.89750   0.02984   0.00000  Uiso   1.00
H402   H     0.18867   0.76362   0.47087   0.00000  Uiso   1.00
H403   H     0.14514   0.90302   0.47055   0.00000  Uiso   1.00
H404   H     0.13550   0.76909   0.02941   0.00000  Uiso   1.00
C405   C     0.18415   0.86975   0.09336   0.00000  Uiso   1.00
C406   C     0.17834   0.79389   0.40719   0.00000  Uiso   1.00
C407   C     0.15497   0.87272   0.40702   0.00000  Uiso   1.00
C408   C     0.14980   0.79686   0.09310   0.00000  Uiso   1.00
H409   H     0.19786   0.89786   0.11107   0.00000  Uiso   1.00
H410   H     0.18775   0.76329   0.38980   0.00000  Uiso   1.00
H411   H     0.14553   0.90333   0.38948   0.00000  Uiso   1.00
H412   H     0.13602   0.76876   0.11060   0.00000  Uiso   1.00
C413   C     0.16694   0.83332   0.11615   0.00000  Uiso   1.00
C414   C     0.16656   0.83329   0.38407   0.00000  Uiso   1.00
C415   C     0.16701   0.83329   0.02422   0.00000  Uiso   1.00
C416   C     0.16692   0.83332   0.47610   0.00000  Uiso   1.00
C417   C     0.29066   0.83147   0.25003   0.00000  Uiso   1.00
C418   C     0.04267   0.83522   0.24971   0.00000  Uiso   1.00
F419   F     0.21880   0.71229   0.30597   0.00000  Uiso   1.00
F420   F     0.11453   0.95438   0.19403   0.00000  Uiso   1.00
F421   F     0.11456   0.71432   0.19397   0.00000  Uiso   1.00
F422   F     0.21873   0.95234   0.30607   0.00000  Uiso   1.00
N423   N     0.04425   0.82363   0.16812   0.00000  Uiso   1.00
O424   O     0.03732   0.78930   0.14214   0.00000  Uiso   1.00
O425   O     0.07016   0.85455   0.15554   0.00000  Uiso   1.00
N426   N     0.28912   0.84299   0.33161   0.00000  Uiso   1.00
O427   O     0.29588   0.87742   0.35753   0.00000  Uiso   1.00
O428   O     0.26347   0.81187   0.34430   0.00000  Uiso   1.00
N429   N     0.28852   0.82212   0.16810   0.00000  Uiso   1.00
O430   O     0.29505   0.84965   0.13512   0.00000  Uiso   1.00
O431   O     0.26277   0.78890   0.16264   0.00000  Uiso   1.00
N432   N     0.04478   0.84516   0.33153   0.00000  Uiso   1.00
O433   O     0.03863   0.81765   0.36462   0.00000  Uiso   1.00
O434   O     0.06987   0.87897   0.33691   0.00000  Uiso   1.00
O435   O     0.43892   0.87154   0.24999   0.00000  Uiso   1.00
O436   O     0.56108   0.79513   0.25000   0.00000  Uiso   1.00
O437   O     0.56108   0.87154   0.25000   0.00000  Uiso   1.00
O438   O     0.43892   0.79513   0.24999   0.00000  Uiso   1.00
N439   N     0.50000   0.95240   0.25000   0.00000  Uiso   1.00
N440   N     0.50000   0.71427   0.25000   0.00000  Uiso   1.00
C441   C     0.42014   0.83380   0.25001   0.00000  Uiso   1.00
C442   C     0.57985   0.83287   0.24983   0.00000  Uiso   1.00
O443   O     0.50000   0.87155   0.18453   0.00000  Uiso   1.00
O444   O     0.50000   0.79511   0.31547   0.00000  Uiso   1.00
O445   O     0.50000   0.87155   0.31547   0.00000  Uiso   1.00
O446   O     0.50000   0.79511   0.18453   0.00000  Uiso   1.00
C447   C     0.50016   0.83334   0.16397   0.00000  Uiso   1.00
C448   C     0.49986   0.83332   0.33611   0.00000  Uiso   1.00
Zn449  Zn    0.50000   0.88437   0.25000   0.00000  Uiso   1.00
Zn450  Zn    0.50000   0.78229   0.25000   0.00000  Uiso   1.00
C451   C     0.52602   0.69013   0.27797   0.00000  Uiso   1.00
C452   C     0.47398   0.97654   0.22204   0.00000  Uiso   1.00
C453   C     0.47398   0.69115   0.22202   0.00000  Uiso   1.00
C454   C     0.52601   0.97552   0.27799   0.00000  Uiso   1.00
C455   C     0.35490   0.82882   0.20908   0.00000  Uiso   1.00
C456   C     0.64511   0.83789   0.29064   0.00000  Uiso   1.00
C457   C     0.64482   0.82677   0.20924   0.00000  Uiso   1.00
C458   C     0.35517   0.84007   0.29045   0.00000  Uiso   1.00
C459   C     0.51776   0.86960   0.04735   0.00000  Uiso   1.00
C460   C     0.51210   0.79399   0.45319   0.00000  Uiso   1.00
C461   C     0.48824   0.87264   0.45302   0.00000  Uiso   1.00
C462   C     0.48292   0.79698   0.04710   0.00000  Uiso   1.00
H463   H     0.53184   0.89750   0.02984   0.00000  Uiso   1.00
H464   H     0.52201   0.76362   0.47087   0.00000  Uiso   1.00
H465   H     0.47847   0.90302   0.47055   0.00000  Uiso   1.00
H466   H     0.46883   0.76909   0.02941   0.00000  Uiso   1.00
C467   C     0.51748   0.86975   0.09336   0.00000  Uiso   1.00
C468   C     0.51167   0.79389   0.40719   0.00000  Uiso   1.00
C469   C     0.48830   0.87272   0.40702   0.00000  Uiso   1.00
C470   C     0.48313   0.79686   0.09310   0.00000  Uiso   1.00
H471   H     0.53119   0.89786   0.11107   0.00000  Uiso   1.00
H472   H     0.52108   0.76329   0.38980   0.00000  Uiso   1.00
H473   H     0.47886   0.90333   0.38948   0.00000  Uiso   1.00
H474   H     0.46936   0.76876   0.11060   0.00000  Uiso   1.00
C475   C     0.50028   0.83332   0.11615   0.00000  Uiso   1.00
C476   C     0.49989   0.83329   0.38407   0.00000  Uiso   1.00
C477   C     0.50034   0.83329   0.02422   0.00000  Uiso   1.00
C478   C     0.50026   0.83332   0.47610   0.00000  Uiso   1.00
C479   C     0.62400   0.83147   0.25003   0.00000  Uiso   1.00
C480   C     0.37600   0.83522   0.24971   0.00000  Uiso   1.00
F481   F     0.55213   0.71229   0.30597   0.00000  Uiso   1.00
F482   F     0.44787   0.95438   0.19403   0.00000  Uiso   1.00
F483   F     0.44790   0.71432   0.19397   0.00000  Uiso   1.00
F484   F     0.55207   0.95234   0.30607   0.00000  Uiso   1.00
N485   N     0.37758   0.82363   0.16812   0.00000  Uiso   1.00
O486   O     0.37065   0.78930   0.14214   0.00000  Uiso   1.00
O487   O     0.40350   0.85455   0.15554   0.00000  Uiso   1.00
N488   N     0.62246   0.84299   0.33161   0.00000  Uiso   1.00
O489   O     0.62921   0.87742   0.35753   0.00000  Uiso   1.00
O490   O     0.59680   0.81187   0.34430   0.00000  Uiso   1.00
N491   N     0.62185   0.82212   0.16810   0.00000  Uiso   1.00
O492   O     0.62838   0.84965   0.13512   0.00000  Uiso   1.00
O493   O     0.59611   0.78890   0.16264   0.00000  Uiso   1.00
N494   N     0.37811   0.84516   0.33153   0.00000  Uiso   1.00
O495   O     0.37197   0.81765   0.36462   0.00000  Uiso   1.00
O496   O     0.40320   0.87897   0.33691   0.00000  Uiso   1.00
O497   O     0.77226   0.87154   0.24999   0.00000  Uiso   1.00
O498   O     0.89441   0.79513   0.25000   0.00000  Uiso   1.00
O499   O     0.89441   0.87154   0.25000   0.00000  Uiso   1.00
O500   O     0.77226   0.79513   0.24999   0.00000  Uiso   1.00
N501   N     0.83333   0.95240   0.25000   0.00000  Uiso   1.00
N502   N     0.83333   0.71427   0.25000   0.00000  Uiso   1.00
C503   C     0.75348   0.83380   0.25001   0.00000  Uiso   1.00
C504   C     0.91319   0.83287   0.24983   0.00000  Uiso   1.00
O505   O     0.83333   0.87155   0.18453   0.00000  Uiso   1.00
O506   O     0.83334   0.79511   0.31547   0.00000  Uiso   1.00
O507   O     0.83334   0.87155   0.31547   0.00000  Uiso   1.00
O508   O     0.83333   0.79511   0.18453   0.00000  Uiso   1.00
C509   C     0.83349   0.83334   0.16397   0.00000  Uiso   1.00
C510   C     0.83319   0.83332   0.33611   0.00000  Uiso   1.00
Zn511  Zn    0.83333   0.88437   0.25000   0.00000  Uiso   1.00
Zn512  Zn    0.83333   0.78229   0.25000   0.00000  Uiso   1.00
C513   C     0.85935   0.69013   0.27797   0.00000  Uiso   1.00
C514   C     0.80731   0.97654   0.22204   0.00000  Uiso   1.00
C515   C     0.80732   0.69115   0.22202   0.00000  Uiso   1.00
C516   C     0.85934   0.97552   0.27799   0.00000  Uiso   1.00
C517   C     0.68823   0.82882   0.20908   0.00000  Uiso   1.00
C518   C     0.97844   0.83789   0.29064   0.00000  Uiso   1.00
C519   C     0.97815   0.82677   0.20924   0.00000  Uiso   1.00
C520   C     0.68850   0.84007   0.29045   0.00000  Uiso   1.00
C521   C     0.85110   0.86960   0.04735   0.00000  Uiso   1.00
C522   C     0.84543   0.79399   0.45319   0.00000  Uiso   1.00
C523   C     0.82157   0.87264   0.45302   0.00000  Uiso   1.00
C524   C     0.81625   0.79698   0.04710   0.00000  Uiso   1.00
H525   H     0.86517   0.89750   0.02984   0.00000  Uiso   1.00
H526   H     0.85534   0.76362   0.47087   0.00000  Uiso   1.00
H527   H     0.81180   0.90302   0.47055   0.00000  Uiso   1.00
H528   H     0.80216   0.76909   0.02941   0.00000  Uiso   1.00
C529   C     0.85082   0.86975   0.09336   0.00000  Uiso   1.00
C530   C     0.84501   0.79389   0.40719   0.00000  Uiso   1.00
C531   C     0.82164   0.87272   0.40702   0.00000  Uiso   1.00
C532   C     0.81647   0.79686   0.09310   0.00000  Uiso   1.00
H533   H     0.86452   0.89786   0.11107   0.00000  Uiso   1.00
H534   H     0.85442   0.76329   0.38980   0.00000  Uiso   1.00
H535   H     0.81219   0.90333   0.38948   0.00000  Uiso   1.00
H536   H     0.80269   0.76876   0.11060   0.00000  Uiso   1.00
C537   C     0.83361   0.83332   0.11615   0.00000  Uiso   1.00
C538   C     0.83322   0.83329   0.38407   0.00000  Uiso   1.00
C539   C     0.83368   0.83329   0.02422   0.00000  Uiso   1.00
C540   C     0.83359   0.83332   0.47610   0.00000  Uiso   1.00
C541   C     0.95733   0.83147   0.25003   0.00000  Uiso   1.00
C542   C     0.70933   0.83522   0.24971   0.00000  Uiso   1.00
F543   F     0.88547   0.71229   0.30597   0.00000  Uiso   1.00
F544   F     0.78120   0.95438   0.19403   0.00000  Uiso   1.00
F545   F     0.78123   0.71432   0.19397   0.00000  Uiso   1.00
F546   F     0.88540   0.95234   0.30607   0.00000  Uiso   1.00
N547   N     0.71091   0.82363   0.16812   0.00000  Uiso   1.00
O548   O     0.70399   0.78930   0.14214   0.00000  Uiso   1.00
O549   O     0.73683   0.85455   0.15554   0.00000  Uiso   1.00
N550   N     0.95579   0.84299   0.33161   0.00000  Uiso   1.00
O551   O     0.96254   0.87742   0.35753   0.00000  Uiso   1.00
O552   O     0.93013   0.81187   0.34430   0.00000  Uiso   1.00
N553   N     0.95519   0.82212   0.16810   0.00000  Uiso   1.00
O554   O     0.96171   0.84965   0.13512   0.00000  Uiso   1.00
O555   O     0.92944   0.78890   0.16264   0.00000  Uiso   1.00
N556   N     0.71144   0.84516   0.33153   0.00000  Uiso   1.00
O557   O     0.70530   0.81765   0.36462   0.00000  Uiso   1.00
O558   O     0.73653   0.87897   0.33691   0.00000  Uiso   1.00
O559   O     0.10559   0.20487   0.74999   0.00000  Uiso   1.00
O560   O     0.22774   0.12846   0.75000   0.00000  Uiso   1.00
O561   O     0.22774   0.20487   0.75000   0.00000  Uiso   1.00
O562   O     0.10559   0.12846   0.74999   0.00000  Uiso   1.00
N563   N     0.16667   0.28573   0.75000   0.00000  Uiso   1.00
N564   N     0.16667   0.04760   0.75000   0.00000  Uiso   1.00
C565   C     0.08681   0.16713   0.75001   0.00000  Uiso   1.00
C566   C     0.24652   0.16620   0.74983   0.00000  Uiso   1.00
O567   O     0.16666   0.20489   0.68453   0.00000  Uiso   1.00
O568   O     0.16667   0.12845   0.81547   0.00000  Uiso   1.00
O569   O     0.16667   0.20489   0.81547   0.00000  Uiso   1.00
O570   O     0.16666   0.12845   0.68453   0.00000  Uiso   1.00
C571   C     0.16683   0.16667   0.66397   0.00000  Uiso   1.00
C572   C     0.16653   0.16666   0.83611   0.00000  Uiso   1.00
Zn573  Zn    0.16667   0.21771   0.75000   0.00000  Uiso   1.00
Zn574  Zn    0.16667   0.11563   0.75000   0.00000  Uiso   1.00
C575   C     0.19269   0.02346   0.77797   0.00000  Uiso   1.00
C576   C     0.14064   0.30987   0.72204   0.00000  Uiso   1.00
C577   C     0.14065   0.02448   0.72202   0.00000  Uiso   1.00
C578   C     0.19267   0.30885   0.77799   0.00000  Uiso   1.00
C579   C     0.02157   0.16215   0.70908   0.00000  Uiso   1.00
C580   C     0.31178   0.17123   0.79064   0.00000  Uiso   1.00
C581   C     0.31148   0.16010   0.70924   0.00000  Uiso   1.00
C582   C     0.02183   0.17340   0.79045   0.00000  Uiso   1.00
C583   C     0.18443   0.20293   0.54735   0.00000  Uiso   1.00
C584   C     0.17877   0.12733   0.95319   0.00000  Uiso   1.00
C585   C     0.15490   0.20597   0.95302   0.00000  Uiso   1.00
C586   C     0.14959   0.13032   0.54710   0.00000  Uiso   1.00
H587   H     0.19850   0.23083   0.52984   0.00000  Uiso   1.00
H588   H     0.18867   0.09695   0.97087   0.00000  Uiso   1.00
H589   H     0.14514   0.23635   0.97055   0.00000  Uiso   1.00
H590   H     0.13550   0.10242   0.52941   0.00000  Uiso   1.00
C591   C     0.18415   0.20308   0.59336   0.00000  Uiso   1.00
C592   C     0.17834   0.12722   0.90719   0.00000  Uiso   1.00
C593   C     0.15497   0.20605   0.90702   0.00000  Uiso   1.00
C594   C     0.14980   0.13019   0.59310   0.00000  Uiso   1.00
H595   H     0.19786   0.23120   0.61107   0.00000  Uiso   1.00
H596   H     0.18775   0.09663   0.88980   0.00000  Uiso   1.00
H597   H     0.14553   0.23666   0.88948   0.00000  Uiso   1.00
H598   H     0.13602   0.10210   0.61060   0.00000  Uiso   1.00
C599   C     0.16694   0.16665   0.61615   0.00000  Uiso   1.00
C600   C     0.16656   0.16663   0.88407   0.00000  Uiso   1.00
C601   C     0.16701   0.16662   0.52422   0.00000  Uiso   1.00
C602   C     0.16692   0.16665   0.97610   0.00000  Uiso   1.00
C603   C     0.29066   0.16480   0.75003   0.00000  Uiso   1.00
C604   C     0.04267   0.16856   0.74971   0.00000  Uiso   1.00
F605   F     0.21880   0.04562   0.80597   0.00000  Uiso   1.00
F606   F     0.11453   0.28771   0.69403   0.00000  Uiso   1.00
F607   F     0.11456   0.04765   0.69397   0.00000  Uiso   1.00
F608   F     0.21873   0.28568   0.80607   0.00000  Uiso   1.00
N609   N     0.04425   0.15697   0.66812   0.00000  Uiso   1.00
O610   O     0.03732   0.12263   0.64214   0.00000  Uiso   1.00
O611   O     0.07016   0.18789   0.65554   0.00000  Uiso   1.00
N612   N     0.28912   0.17633   0.83161   0.00000  Uiso   1.00
O613   O     0.29588   0.21075   0.85753   0.00000  Uiso   1.00
O614   O     0.26347   0.14521   0.84430   0.00000  Uiso   1.00
N615   N     0.28852   0.15546   0.66810   0.00000  Uiso   1.00
O616   O     0.29505   0.18299   0.63512   0.00000  Uiso   1.00
O617   O     0.26277   0.12223   0.66264   0.00000  Uiso   1.00
N618   N     0.04478   0.17849   0.83153   0.00000  Uiso   1.00
O619   O     0.03863   0.15098   0.86462   0.00000  Uiso   1.00
O620   O     0.06987   0.21230   0.83691   0.00000  Uiso   1.00
O621   O     0.43892   0.20487   0.74999   0.00000  Uiso   1.00
O622   O     0.56108   0.12846   0.75000   0.00000  Uiso   1.00
O623   O     0.56108   0.20487   0.75000   0.00000  Uiso   1.00
O624   O     0.43892   0.12846   0.74999   0.00000  Uiso   1.00
N625   N     0.50000   0.28573   0.75000   0.00000  Uiso   1.00
N626   N     0.50000   0.04760   0.75000   0.00000  Uiso   1.00
C627   C     0.42014   0.16713   0.75001   0.00000  Uiso   1.00
C628   C     0.57985   0.16620   0.74983   0.00000  Uiso   1.00
O629   O     0.50000   0.20489   0.68453   0.00000  Uiso   1.00
O630   O     0.50000   0.12845   0.81547   0.00000  Uiso   1.00
O631   O     0.50000   0.20489   0.81547   0.00000  Uiso   1.00
O632   O     0.50000   0.12845   0.68453   0.00000  Uiso   1.00
C633   C     0.50016   0.16667   0.66397   0.00000  Uiso   1.00
C634   C     0.49986   0.16666   0.83611   0.00000  Uiso   1.00
Zn635  Zn    0.50000   0.21771   0.75000   0.00000  Uiso   1.00
Zn636  Zn    0.50000   0.11563   0.75000   0.00000  Uiso   1.00
C637   C     0.52602   0.02346   0.77797   0.00000  Uiso   1.00
C638   C     0.47398   0.30987   0.72204   0.00000  Uiso   1.00
C639   C     0.47398   0.02448   0.72202   0.00000  Uiso   1.00
C640   C     0.52601   0.30885   0.77799   0.00000  Uiso   1.00
C641   C     0.35490   0.16215   0.70908   0.00000  Uiso   1.00
C642   C     0.64511   0.17123   0.79064   0.00000  Uiso   1.00
C643   C     0.64482   0.16010   0.70924   0.00000  Uiso   1.00
C644   C     0.35517   0.17340   0.79045   0.00000  Uiso   1.00
C645   C     0.51776   0.20293   0.54735   0.00000  Uiso   1.00
C646   C     0.51210   0.12733   0.95319   0.00000  Uiso   1.00
C647   C     0.48824   0.20597   0.95302   0.00000  Uiso   1.00
C648   C     0.48292   0.13032   0.54710   0.00000  Uiso   1.00
H649   H     0.53184   0.23083   0.52984   0.00000  Uiso   1.00
H650   H     0.52201   0.09695   0.97087   0.00000  Uiso   1.00
H651   H     0.47847   0.23635   0.97055   0.00000  Uiso   1.00
H652   H     0.46883   0.10242   0.52941   0.00000  Uiso   1.00
C653   C     0.51748   0.20308   0.59336   0.00000  Uiso   1.00
C654   C     0.51167   0.12722   0.90719   0.00000  Uiso   1.00
C655   C     0.48830   0.20605   0.90702   0.00000  Uiso   1.00
C656   C     0.48313   0.13019   0.59310   0.00000  Uiso   1.00
H657   H     0.53119   0.23120   0.61107   0.00000  Uiso   1.00
H658   H     0.52108   0.09663   0.88980   0.00000  Uiso   1.00
H659   H     0.47886   0.23666   0.88948   0.00000  Uiso   1.00
H660   H     0.46936   0.10210   0.61060   0.00000  Uiso   1.00
C661   C     0.50028   0.16665   0.61615   0.00000  Uiso   1.00
C662   C     0.49989   0.16663   0.88407   0.00000  Uiso   1.00
C663   C     0.50034   0.16662   0.52422   0.00000  Uiso   1.00
C664   C     0.50026   0.16665   0.97610   0.00000  Uiso   1.00
C665   C     0.62400   0.16480   0.75003   0.00000  Uiso   1.00
C666   C     0.37600   0.16856   0.74971   0.00000  Uiso   1.00
F667   F     0.55213   0.04562   0.80597   0.00000  Uiso   1.00
F668   F     0.44787   0.28771   0.69403   0.00000  Uiso   1.00
F669   F     0.44790   0.04765   0.69397   0.00000  Uiso   1.00
F670   F     0.55207   0.28568   0.80607   0.00000  Uiso   1.00
N671   N     0.37758   0.15697   0.66812   0.00000  Uiso   1.00
O672   O     0.37065   0.12263   0.64214   0.00000  Uiso   1.00
O673   O     0.40350   0.18789   0.65554   0.00000  Uiso   1.00
N674   N     0.62246   0.17633   0.83161   0.00000  Uiso   1.00
O675   O     0.62921   0.21075   0.85753   0.00000  Uiso   1.00
O676   O     0.59680   0.14521   0.84430   0.00000  Uiso   1.00
N677   N     0.62185   0.15546   0.66810   0.00000  Uiso   1.00
O678   O     0.62838   0.18299   0.63512   0.00000  Uiso   1.00
O679   O     0.59611   0.12223   0.66264   0.00000  Uiso   1.00
N680   N     0.37811   0.17849   0.83153   0.00000  Uiso   1.00
O681   O     0.37197   0.15098   0.86462   0.00000  Uiso   1.00
O682   O     0.40320   0.21230   0.83691   0.00000  Uiso   1.00
O683   O     0.77226   0.20487   0.74999   0.00000  Uiso   1.00
O684   O     0.89441   0.12846   0.75000   0.00000  Uiso   1.00
O685   O     0.89441   0.20487   0.75000   0.00000  Uiso   1.00
O686   O     0.77226   0.12846   0.74999   0.00000  Uiso   1.00
N687   N     0.83333   0.28573   0.75000   0.00000  Uiso   1.00
N688   N     0.83333   0.04760   0.75000   0.00000  Uiso   1.00
C689   C     0.75348   0.16713   0.75001   0.00000  Uiso   1.00
C690   C     0.91319   0.16620   0.74983   0.00000  Uiso   1.00
O691   O     0.83333   0.20489   0.68453   0.00000  Uiso   1.00
O692   O     0.83334   0.12845   0.81547   0.00000  Uiso   1.00
O693   O     0.83334   0.20489   0.81547   0.00000  Uiso   1.00
O694   O     0.83333   0.12845   0.68453   0.00000  Uiso   1.00
C695   C     0.83349   0.16667   0.66397   0.00000  Uiso   1.00
C696   C     0.83319   0.16666   0.83611   0.00000  Uiso   1.00
Zn697  Zn    0.83333   0.21771   0.75000   0.00000  Uiso   1.00
Zn698  Zn    0.83333   0.11563   0.75000   0.00000  Uiso   1.00
C699   C     0.85935   0.02346   0.77797   0.00000  Uiso   1.00
C700   C     0.80731   0.30987   0.72204   0.00000  Uiso   1.00
C701   C     0.80732   0.02448   0.72202   0.00000  Uiso   1.00
C702   C     0.85934   0.30885   0.77799   0.00000  Uiso   1.00
C703   C     0.68823   0.16215   0.70908   0.00000  Uiso   1.00
C704   C     0.97844   0.17123   0.79064   0.00000  Uiso   1.00
C705   C     0.97815   0.16010   0.70924   0.00000  Uiso   1.00
C706   C     0.68850   0.17340   0.79045   0.00000  Uiso   1.00
C707   C     0.85110   0.20293   0.54735   0.00000  Uiso   1.00
C708   C     0.84543   0.12733   0.95319   0.00000  Uiso   1.00
C709   C     0.82157   0.20597   0.95302   0.00000  Uiso   1.00
C710   C     0.81625   0.13032   0.54710   0.00000  Uiso   1.00
H711   H     0.86517   0.23083   0.52984   0.00000  Uiso   1.00
H712   H     0.85534   0.09695   0.97087   0.00000  Uiso   1.00
H713   H     0.81180   0.23635   0.97055   0.00000  Uiso   1.00
H714   H     0.80216   0.10242   0.52941   0.00000  Uiso   1.00
C715   C     0.85082   0.20308   0.59336   0.00000  Uiso   1.00
C716   C     0.84501   0.12722   0.90719   0.00000  Uiso   1.00
C717   C     0.82164   0.20605   0.90702   0.00000  Uiso   1.00
C718   C     0.81647   0.13019   0.59310   0.00000  Uiso   1.00
H719   H     0.86452   0.23120   0.61107   0.00000  Uiso   1.00
H720   H     0.85442   0.09663   0.88980   0.00000  Uiso   1.00
H721   H     0.81219   0.23666   0.88948   0.00000  Uiso   1.00
H722   H     0.80269   0.10210   0.61060   0.00000  Uiso   1.00
C723   C     0.83361   0.16665   0.61615   0.00000  Uiso   1.00
C724   C     0.83322   0.16663   0.88407   0.00000  Uiso   1.00
C725   C     0.83368   0.16662   0.52422   0.00000  Uiso   1.00
C726   C     0.83359   0.16665   0.97610   0.00000  Uiso   1.00
C727   C     0.95733   0.16480   0.75003   0.00000  Uiso   1.00
C728   C     0.70933   0.16856   0.74971   0.00000  Uiso   1.00
F729   F     0.88547   0.04562   0.80597   0.00000  Uiso   1.00
F730   F     0.78120   0.28771   0.69403   0.00000  Uiso   1.00
F731   F     0.78123   0.04765   0.69397   0.00000  Uiso   1.00
F732   F     0.88540   0.28568   0.80607   0.00000  Uiso   1.00
N733   N     0.71091   0.15697   0.66812   0.00000  Uiso   1.00
O734   O     0.70399   0.12263   0.64214   0.00000  Uiso   1.00
O735   O     0.73683   0.18789   0.65554   0.00000  Uiso   1.00
N736   N     0.95579   0.17633   0.83161   0.00000  Uiso   1.00
O737   O     0.96254   0.21075   0.85753   0.00000  Uiso   1.00
O738   O     0.93013   0.14521   0.84430   0.00000  Uiso   1.00
N739   N     0.95519   0.15546   0.66810   0.00000  Uiso   1.00
O740   O     0.96171   0.18299   0.63512   0.00000  Uiso   1.00
O741   O     0.92944   0.12223   0.66264   0.00000  Uiso   1.00
N742   N     0.71144   0.17849   0.83153   0.00000  Uiso   1.00
O743   O     0.70530   0.15098   0.86462   0.00000  Uiso   1.00
O744   O     0.73653   0.21230   0.83691   0.00000  Uiso   1.00
O745   O     0.10559   0.53821   0.74999   0.00000  Uiso   1.00
O746   O     0.22774   0.46179   0.75000   0.00000  Uiso   1.00
O747   O     0.22774   0.53821   0.75000   0.00000  Uiso   1.00
O748   O     0.10559   0.46179   0.74999   0.00000  Uiso   1.00
N749   N     0.16667   0.61907   0.75000   0.00000  Uiso   1.00
N750   N     0.16667   0.38093   0.75000   0.00000  Uiso   1.00
C751   C     0.08681   0.50047   0.75001   0.00000  Uiso   1.00
C752   C     0.24652   0.49954   0.74983   0.00000  Uiso   1.00
O753   O     0.16666   0.53822   0.68453   0.00000  Uiso   1.00
O754   O     0.16667   0.46178   0.81547   0.00000  Uiso   1.00
O755   O     0.16667   0.53822   0.81547   0.00000  Uiso   1.00
O756   O     0.16666   0.46178   0.68453   0.00000  Uiso   1.00
C757   C     0.16683   0.50000   0.66397   0.00000  Uiso   1.00
C758   C     0.16653   0.49999   0.83611   0.00000  Uiso   1.00
Zn759  Zn    0.16667   0.55104   0.75000   0.00000  Uiso   1.00
Zn760  Zn    0.16667   0.44896   0.75000   0.00000  Uiso   1.00
C761   C     0.19269   0.35680   0.77797   0.00000  Uiso   1.00
C762   C     0.14064   0.64320   0.72204   0.00000  Uiso   1.00
C763   C     0.14065   0.35782   0.72202   0.00000  Uiso   1.00
C764   C     0.19267   0.64218   0.77799   0.00000  Uiso   1.00
C765   C     0.02157   0.49548   0.70908   0.00000  Uiso   1.00
C766   C     0.31178   0.50456   0.79064   0.00000  Uiso   1.00
C767   C     0.31148   0.49343   0.70924   0.00000  Uiso   1.00
C768   C     0.02183   0.50673   0.79045   0.00000  Uiso   1.00
C769   C     0.18443   0.53626   0.54735   0.00000  Uiso   1.00
C770   C     0.17877   0.46066   0.95319   0.00000  Uiso   1.00
C771   C     0.15490   0.53930   0.95302   0.00000  Uiso   1.00
C772   C     0.14959   0.46365   0.54710   0.00000  Uiso   1.00
H773   H     0.19850   0.56417   0.52984   0.00000  Uiso   1.00
H774   H     0.18867   0.43029   0.97087   0.00000  Uiso   1.00
H775   H     0.14514   0.56968   0.97055   0.00000  Uiso   1.00
H776   H     0.13550   0.43576   0.52941   0.00000  Uiso   1.00
C777   C     0.18415   0.53641   0.59336   0.00000  Uiso   1.00
C778   C     0.17834   0.46055   0.90719   0.00000  Uiso   1.00
C779   C     0.15497   0.53938   0.90702   0.00000  Uiso   1.00
C780   C     0.14980   0.46352   0.59310   0.00000  Uiso   1.00
H781   H     0.19786   0.56453   0.61107   0.00000  Uiso   1.00
H782   H     0.18775   0.42996   0.88980   0.00000  Uiso   1.00
H783   H     0.14553   0.57000   0.88948   0.00000  Uiso   1.00
H784   H     0.13602   0.43543   0.61060   0.00000  Uiso   1.00
C785   C     0.16694   0.49998   0.61615   0.00000  Uiso   1.00
C786   C     0.16656   0.49996   0.88407   0.00000  Uiso   1.00
C787   C     0.16701   0.49996   0.52422   0.00000  Uiso   1.00
C788   C     0.16692   0.49998   0.97610   0.00000  Uiso   1.00
C789   C     0.29066   0.49814   0.75003   0.00000  Uiso   1.00
C790   C     0.04267   0.50189   0.74971   0.00000  Uiso   1.00
F791   F     0.21880   0.37895   0.80597   0.00000  Uiso   1.00
F792   F     0.11453   0.62105   0.69403   0.00000  Uiso   1.00
F793   F     0.11456   0.38099   0.69397   0.00000  Uiso   1.00
F794   F     0.21873   0.61901   0.80607   0.00000  Uiso   1.00
N795   N     0.04425   0.49030   0.66812   0.00000  Uiso   1.00
O796   O     0.03732   0.45597   0.64214   0.00000  Uiso   1.00
O797   O     0.07016   0.52122   0.65554   0.00000  Uiso   1.00
N798   N     0.28912   0.50966   0.83161   0.00000  Uiso   1.00
O799   O     0.29588   0.54408   0.85753   0.00000  Uiso   1.00
O800   O     0.26347   0.47854   0.84430   0.00000  Uiso   1.00
N801   N     0.28852   0.48879   0.66810   0.00000  Uiso   1.00
O802   O     0.29505   0.51632   0.63512   0.00000  Uiso   1.00
O803   O     0.26277   0.45556   0.66264   0.00000  Uiso   1.00
N804   N     0.04478   0.51182   0.83153   0.00000  Uiso   1.00
O805   O     0.03863   0.48431   0.86462   0.00000  Uiso   1.00
O806   O     0.06987   0.54564   0.83691   0.00000  Uiso   1.00
O807   O     0.43892   0.53821   0.74999   0.00000  Uiso   1.00
O808   O     0.56108   0.46179   0.75000   0.00000  Uiso   1.00
O809   O     0.56108   0.53821   0.75000   0.00000  Uiso   1.00
O810   O     0.43892   0.46179   0.74999   0.00000  Uiso   1.00
N811   N     0.50000   0.61907   0.75000   0.00000  Uiso   1.00
N812   N     0.50000   0.38093   0.75000   0.00000  Uiso   1.00
C813   C     0.42014   0.50047   0.75001   0.00000  Uiso   1.00
C814   C     0.57985   0.49954   0.74983   0.00000  Uiso   1.00
O815   O     0.50000   0.53822   0.68453   0.00000  Uiso   1.00
O816   O     0.50000   0.46178   0.81547   0.00000  Uiso   1.00
O817   O     0.50000   0.53822   0.81547   0.00000  Uiso   1.00
O818   O     0.50000   0.46178   0.68453   0.00000  Uiso   1.00
C819   C     0.50016   0.50000   0.66397   0.00000  Uiso   1.00
C820   C     0.49986   0.49999   0.83611   0.00000  Uiso   1.00
Zn821  Zn    0.50000   0.55104   0.75000   0.00000  Uiso   1.00
Zn822  Zn    0.50000   0.44896   0.75000   0.00000  Uiso   1.00
C823   C     0.52602   0.35680   0.77797   0.00000  Uiso   1.00
C824   C     0.47398   0.64320   0.72204   0.00000  Uiso   1.00
C825   C     0.47398   0.35782   0.72202   0.00000  Uiso   1.00
C826   C     0.52601   0.64218   0.77799   0.00000  Uiso   1.00
C827   C     0.35490   0.49548   0.70908   0.00000  Uiso   1.00
C828   C     0.64511   0.50456   0.79064   0.00000  Uiso   1.00
C829   C     0.64482   0.49343   0.70924   0.00000  Uiso   1.00
C830   C     0.35517   0.50673   0.79045   0.00000  Uiso   1.00
C831   C     0.51776   0.53626   0.54735   0.00000  Uiso   1.00
C832   C     0.51210   0.46066   0.95319   0.00000  Uiso   1.00
C833   C     0.48824   0.53930   0.95302   0.00000  Uiso   1.00
C834   C     0.48292   0.46365   0.54710   0.00000  Uiso   1.00
H835   H     0.53184   0.56417   0.52984   0.00000  Uiso   1.00
H836   H     0.52201   0.43029   0.97087   0.00000  Uiso   1.00
H837   H     0.47847   0.56968   0.97055   0.00000  Uiso   1.00
H838   H     0.46883   0.43576   0.52941   0.00000  Uiso   1.00
C839   C     0.51748   0.53641   0.59336   0.00000  Uiso   1.00
C840   C     0.51167   0.46055   0.90719   0.00000  Uiso   1.00
C841   C     0.48830   0.53938   0.90702   0.00000  Uiso   1.00
C842   C     0.48313   0.46352   0.59310   0.00000  Uiso   1.00
H843   H     0.53119   0.56453   0.61107   0.00000  Uiso   1.00
H844   H     0.52108   0.42996   0.88980   0.00000  Uiso   1.00
H845   H     0.47886   0.57000   0.88948   0.00000  Uiso   1.00
H846   H     0.46936   0.43543   0.61060   0.00000  Uiso   1.00
C847   C     0.50028   0.49998   0.61615   0.00000  Uiso   1.00
C848   C     0.49989   0.49996   0.88407   0.00000  Uiso   1.00
C849   C     0.50034   0.49996   0.52422   0.00000  Uiso   1.00
C850   C     0.50026   0.49998   0.97610   0.00000  Uiso   1.00
C851   C     0.62400   0.49814   0.75003   0.00000  Uiso   1.00
C852   C     0.37600   0.50189   0.74971   0.00000  Uiso   1.00
F853   F     0.55213   0.37895   0.80597   0.00000  Uiso   1.00
F854   F     0.44787   0.62105   0.69403   0.00000  Uiso   1.00
F855   F     0.44790   0.38099   0.69397   0.00000  Uiso   1.00
F856   F     0.55207   0.61901   0.80607   0.00000  Uiso   1.00
N857   N     0.37758   0.49030   0.66812   0.00000  Uiso   1.00
O858   O     0.37065   0.45597   0.64214   0.00000  Uiso   1.00
O859   O     0.40350   0.52122   0.65554   0.00000  Uiso   1.00
N860   N     0.62246   0.50966   0.83161   0.00000  Uiso   1.00
O861   O     0.62921   0.54408   0.85753   0.00000  Uiso   1.00
O862   O     0.59680   0.47854   0.84430   0.00000  Uiso   1.00
N863   N     0.62185   0.48879   0.66810   0.00000  Uiso   1.00
O864   O     0.62838   0.51632   0.63512   0.00000  Uiso   1.00
O865   O     0.59611   0.45556   0.66264   0.00000  Uiso   1.00
N866   N     0.37811   0.51182   0.83153   0.00000  Uiso   1.00
O867   O     0.37197   0.48431   0.86462   0.00000  Uiso   1.00
O868   O     0.40320   0.54564   0.83691   0.00000  Uiso   1.00
O869   O     0.77226   0.53821   0.74999   0.00000  Uiso   1.00
O870   O     0.89441   0.46179   0.75000   0.00000  Uiso   1.00
O871   O     0.89441   0.53821   0.75000   0.00000  Uiso   1.00
O872   O     0.77226   0.46179   0.74999   0.00000  Uiso   1.00
N873   N     0.83333   0.61907   0.75000   0.00000  Uiso   1.00
N874   N     0.83333   0.38093   0.75000   0.00000  Uiso   1.00
C875   C     0.75348   0.50047   0.75001   0.00000  Uiso   1.00
C876   C     0.91319   0.49954   0.74983   0.00000  Uiso   1.00
O877   O     0.83333   0.53822   0.68453   0.00000  Uiso   1.00
O878   O     0.83334   0.46178   0.81547   0.00000  Uiso   1.00
O879   O     0.83334   0.53822   0.81547   0.00000  Uiso   1.00
O880   O     0.83333   0.46178   0.68453   0.00000  Uiso   1.00
C881   C     0.83349   0.50000   0.66397   0.00000  Uiso   1.00
C882   C     0.83319   0.49999   0.83611   0.00000  Uiso   1.00
Zn883  Zn    0.83333   0.55104   0.75000   0.00000  Uiso   1.00
Zn884  Zn    0.83333   0.44896   0.75000   0.00000  Uiso   1.00
C885   C     0.85935   0.35680   0.77797   0.00000  Uiso   1.00
C886   C     0.80731   0.64320   0.72204   0.00000  Uiso   1.00
C887   C     0.80732   0.35782   0.72202   0.00000  Uiso   1.00
C888   C     0.85934   0.64218   0.77799   0.00000  Uiso   1.00
C889   C     0.68823   0.49548   0.70908   0.00000  Uiso   1.00
C890   C     0.97844   0.50456   0.79064   0.00000  Uiso   1.00
C891   C     0.97815   0.49343   0.70924   0.00000  Uiso   1.00
C892   C     0.68850   0.50673   0.79045   0.00000  Uiso   1.00
C893   C     0.85110   0.53626   0.54735   0.00000  Uiso   1.00
C894   C     0.84543   0.46066   0.95319   0.00000  Uiso   1.00
C895   C     0.82157   0.53930   0.95302   0.00000  Uiso   1.00
C896   C     0.81625   0.46365   0.54710   0.00000  Uiso   1.00
H897   H     0.86517   0.56417   0.52984   0.00000  Uiso   1.00
H898   H     0.85534   0.43029   0.97087   0.00000  Uiso   1.00
H899   H     0.81180   0.56968   0.97055   0.00000  Uiso   1.00
H900   H     0.80216   0.43576   0.52941   0.00000  Uiso   1.00
C901   C     0.85082   0.53641   0.59336   0.00000  Uiso   1.00
C902   C     0.84501   0.46055   0.90719   0.00000  Uiso   1.00
C903   C     0.82164   0.53938   0.90702   0.00000  Uiso   1.00
C904   C     0.81647   0.46352   0.59310   0.00000  Uiso   1.00
H905   H     0.86452   0.56453   0.61107   0.00000  Uiso   1.00
H906   H     0.85442   0.42996   0.88980   0.00000  Uiso   1.00
H907   H     0.81219   0.57000   0.88948   0.00000  Uiso   1.00
H908   H     0.80269   0.43543   0.61060   0.00000  Uiso   1.00
C909   C     0.83361   0.49998   0.61615   0.00000  Uiso   1.00
C910   C     0.83322   0.49996   0.88407   0.00000  Uiso   1.00
C911   C     0.83368   0.49996   0.52422   0.00000  Uiso   1.00
C912   C     0.83359   0.49998   0.97610   0.00000  Uiso   1.00
C913   C     0.95733   0.49814   0.75003   0.00000  Uiso   1.00
C914   C     0.70933   0.50189   0.74971   0.00000  Uiso   1.00
F915   F     0.88547   0.37895   0.80597   0.00000  Uiso   1.00
F916   F     0.78120   0.62105   0.69403   0.00000  Uiso   1.00
F917   F     0.78123   0.38099   0.69397   0.00000  Uiso   1.00
F918   F     0.88540   0.61901   0.80607   0.00000  Uiso   1.00
N919   N     0.71091   0.49030   0.66812   0.00000  Uiso   1.00
O920   O     0.70399   0.45597   0.64214   0.00000  Uiso   1.00
O921   O     0.73683   0.52122   0.65554   0.00000  Uiso   1.00
N922   N     0.95579   0.50966   0.83161   0.00000  Uiso   1.00
O923   O     0.96254   0.54408   0.85753   0.00000  Uiso   1.00
O924   O     0.93013   0.47854   0.84430   0.00000  Uiso   1.00
N925   N     0.95519   0.48879   0.66810   0.00000  Uiso   1.00
O926   O     0.96171   0.51632   0.63512   0.00000  Uiso   1.00
O927   O     0.92944   0.45556   0.66264   0.00000  Uiso   1.00
N928   N     0.71144   0.51182   0.83153   0.00000  Uiso   1.00
O929   O     0.70530   0.48431   0.86462   0.00000  Uiso   1.00
O930   O     0.73653   0.54564   0.83691   0.00000  Uiso   1.00
O931   O     0.10559   0.87154   0.74999   0.00000  Uiso   1.00
O932   O     0.22774   0.79513   0.75000   0.00000  Uiso   1.00
O933   O     0.22774   0.87154   0.75000   0.00000  Uiso   1.00
O934   O     0.10559   0.79513   0.74999   0.00000  Uiso   1.00
N935   N     0.16667   0.95240   0.75000   0.00000  Uiso   1.00
N936   N     0.16667   0.71427   0.75000   0.00000  Uiso   1.00
C937   C     0.08681   0.83380   0.75001   0.00000  Uiso   1.00
C938   C     0.24652   0.83287   0.74983   0.00000  Uiso   1.00
O939   O     0.16666   0.87155   0.68453   0.00000  Uiso   1.00
O940   O     0.16667   0.79511   0.81547   0.00000  Uiso   1.00
O941   O     0.16667   0.87155   0.81547   0.00000  Uiso   1.00
O942   O     0.16666   0.79511   0.68453   0.00000  Uiso   1.00
C943   C     0.16683   0.83334   0.66397   0.00000  Uiso   1.00
C944   C     0.16653   0.83332   0.83611   0.00000  Uiso   1.00
Zn945  Zn    0.16667   0.88437   0.75000   0.00000  Uiso   1.00
Zn946  Zn    0.16667   0.78229   0.75000   0.00000  Uiso   1.00
C947   C     0.19269   0.69013   0.77797   0.00000  Uiso   1.00
C948   C     0.14064   0.97654   0.72204   0.00000  Uiso   1.00
C949   C     0.14065   0.69115   0.72202   0.00000  Uiso   1.00
C950   C     0.19267   0.97552   0.77799   0.00000  Uiso   1.00
C951   C     0.02157   0.82882   0.70908   0.00000  Uiso   1.00
C952   C     0.31178   0.83789   0.79064   0.00000  Uiso   1.00
C953   C     0.31148   0.82677   0.70924   0.00000  Uiso   1.00
C954   C     0.02183   0.84007   0.79045   0.00000  Uiso   1.00
C955   C     0.18443   0.86960   0.54735   0.00000  Uiso   1.00
C956   C     0.17877   0.79399   0.95319   0.00000  Uiso   1.00
C957   C     0.15490   0.87264   0.95302   0.00000  Uiso   1.00
C958   C     0.14959   0.79698   0.54710   0.00000  Uiso   1.00
H959   H     0.19850   0.89750   0.52984   0.00000  Uiso   1.00
H960   H     0.18867   0.76362   0.97087   0.00000  Uiso   1.00
H961   H     0.14514   0.90302   0.97055   0.00000  Uiso   1.00
H962   H     0.13550   0.76909   0.52941   0.00000  Uiso   1.00
C963   C     0.18415   0.86975   0.59336   0.00000  Uiso   1.00
C964   C     0.17834   0.79389   0.90719   0.00000  Uiso   1.00
C965   C     0.15497   0.87272   0.90702   0.00000  Uiso   1.00
C966   C     0.14980   0.79686   0.59310   0.00000  Uiso   1.00
H967   H     0.19786   0.89786   0.61107   0.00000  Uiso   1.00
H968   H     0.18775   0.76329   0.88980   0.00000  Uiso   1.00
H969   H     0.14553   0.90333   0.88948   0.00000  Uiso   1.00
H970   H     0.13602   0.76876   0.61060   0.00000  Uiso   1.00
C971   C     0.16694   0.83332   0.61615   0.00000  Uiso   1.00
C972   C     0.16656   0.83329   0.88407   0.00000  Uiso   1.00
C973   C     0.16701   0.83329   0.52422   0.00000  Uiso   1.00
C974   C     0.16692   0.83332   0.97610   0.00000  Uiso   1.00
C975   C     0.29066   0.83147   0.75003   0.00000  Uiso   1.00
C976   C     0.04267   0.83522   0.74971   0.00000  Uiso   1.00
F977   F     0.21880   0.71229   0.80597   0.00000  Uiso   1.00
F978   F     0.11453   0.95438   0.69403   0.00000  Uiso   1.00
F979   F     0.11456   0.71432   0.69397   0.00000  Uiso   1.00
F980   F     0.21873   0.95234   0.80607   0.00000  Uiso   1.00
N981   N     0.04425   0.82363   0.66812   0.00000  Uiso   1.00
O982   O     0.03732   0.78930   0.64214   0.00000  Uiso   1.00
O983   O     0.07016   0.85455   0.65554   0.00000  Uiso   1.00
N984   N     0.28912   0.84299   0.83161   0.00000  Uiso   1.00
O985   O     0.29588   0.87742   0.85753   0.00000  Uiso   1.00
O986   O     0.26347   0.81187   0.84430   0.00000  Uiso   1.00
N987   N     0.28852   0.82212   0.66810   0.00000  Uiso   1.00
O988   O     0.29505   0.84965   0.63512   0.00000  Uiso   1.00
O989   O     0.26277   0.78890   0.66264   0.00000  Uiso   1.00
N990   N     0.04478   0.84516   0.83153   0.00000  Uiso   1.00
O991   O     0.03863   0.81765   0.86462   0.00000  Uiso   1.00
O992   O     0.06987   0.87897   0.83691   0.00000  Uiso   1.00
O993   O     0.43892   0.87154   0.74999   0.00000  Uiso   1.00
O994   O     0.56108   0.79513   0.75000   0.00000  Uiso   1.00
O995   O     0.56108   0.87154   0.75000   0.00000  Uiso   1.00
O996   O     0.43892   0.79513   0.74999   0.00000  Uiso   1.00
N997   N     0.50000   0.95240   0.75000   0.00000  Uiso   1.00
N998   N     0.50000   0.71427   0.75000   0.00000  Uiso   1.00
C999   C     0.42014   0.83380   0.75001   0.00000  Uiso   1.00
C1000  C     0.57985   0.83287   0.74983   0.00000  Uiso   1.00
O1001  O     0.50000   0.87155   0.68453   0.00000  Uiso   1.00
O1002  O     0.50000   0.79511   0.81547   0.00000  Uiso   1.00
O1003  O     0.50000   0.87155   0.81547   0.00000  Uiso   1.00
O1004  O     0.50000   0.79511   0.68453   0.00000  Uiso   1.00
C1005  C     0.50016   0.83334   0.66397   0.00000  Uiso   1.00
C1006  C     0.49986   0.83332   0.83611   0.00000  Uiso   1.00
Zn1007 Zn    0.50000   0.88437   0.75000   0.00000  Uiso   1.00
Zn1008 Zn    0.50000   0.78229   0.75000   0.00000  Uiso   1.00
C1009  C     0.52602   0.69013   0.77797   0.00000  Uiso   1.00
C1010  C     0.47398   0.97654   0.72204   0.00000  Uiso   1.00
C1011  C     0.47398   0.69115   0.72202   0.00000  Uiso   1.00
C1012  C     0.52601   0.97552   0.77799   0.00000  Uiso   1.00
C1013  C     0.35490   0.82882   0.70908   0.00000  Uiso   1.00
C1014  C     0.64511   0.83789   0.79064   0.00000  Uiso   1.00
C1015  C     0.64482   0.82677   0.70924   0.00000  Uiso   1.00
C1016  C     0.35517   0.84007   0.79045   0.00000  Uiso   1.00
C1017  C     0.51776   0.86960   0.54735   0.00000  Uiso   1.00
C1018  C     0.51210   0.79399   0.95319   0.00000  Uiso   1.00
C1019  C     0.48824   0.87264   0.95302   0.00000  Uiso   1.00
C1020  C     0.48292   0.79698   0.54710   0.00000  Uiso   1.00
H1021  H     0.53184   0.89750   0.52984   0.00000  Uiso   1.00
H1022  H     0.52201   0.76362   0.97087   0.00000  Uiso   1.00
H1023  H     0.47847   0.90302   0.97055   0.00000  Uiso   1.00
H1024  H     0.46883   0.76909   0.52941   0.00000  Uiso   1.00
C1025  C     0.51748   0.86975   0.59336   0.00000  Uiso   1.00
C1026  C     0.51167   0.79389   0.90719   0.00000  Uiso   1.00
C1027  C     0.48830   0.87272   0.90702   0.00000  Uiso   1.00
C1028  C     0.48313   0.79686   0.59310   0.00000  Uiso   1.00
H1029  H     0.53119   0.89786   0.61107   0.00000  Uiso   1.00
H1030  H     0.52108   0.76329   0.88980   0.00000  Uiso   1.00
H1031  H     0.47886   0.90333   0.88948   0.00000  Uiso   1.00
H1032  H     0.46936   0.76876   0.61060   0.00000  Uiso   1.00
C1033  C     0.50028   0.83332   0.61615   0.00000  Uiso   1.00
C1034  C     0.49989   0.83329   0.88407   0.00000  Uiso   1.00
C1035  C     0.50034   0.83329   0.52422   0.00000  Uiso   1.00
C1036  C     0.50026   0.83332   0.97610   0.00000  Uiso   1.00
C1037  C     0.62400   0.83147   0.75003   0.00000  Uiso   1.00
C1038  C     0.37600   0.83522   0.74971   0.00000  Uiso   1.00
F1039  F     0.55213   0.71229   0.80597   0.00000  Uiso   1.00
F1040  F     0.44787   0.95438   0.69403   0.00000  Uiso   1.00
F1041  F     0.44790   0.71432   0.69397   0.00000  Uiso   1.00
F1042  F     0.55207   0.95234   0.80607   0.00000  Uiso   1.00
N1043  N     0.37758   0.82363   0.66812   0.00000  Uiso   1.00
O1044  O     0.37065   0.78930   0.64214   0.00000  Uiso   1.00
O1045  O     0.40350   0.85455   0.65554   0.00000  Uiso   1.00
N1046  N     0.62246   0.84299   0.83161   0.00000  Uiso   1.00
O1047  O     0.62921   0.87742   0.85753   0.00000  Uiso   1.00
O1048  O     0.59680   0.81187   0.84430   0.00000  Uiso   1.00
N1049  N     0.62185   0.82212   0.66810   0.00000  Uiso   1.00
O1050  O     0.62838   0.84965   0.63512   0.00000  Uiso   1.00
O1051  O     0.59611   0.78890   0.66264   0.00000  Uiso   1.00
N1052  N     0.37811   0.84516   0.83153   0.00000  Uiso   1.00
O1053  O     0.37197   0.81765   0.86462   0.00000  Uiso   1.00
O1054  O     0.40320   0.87897   0.83691   0.00000  Uiso   1.00
O1055  O     0.77226   0.87154   0.74999   0.00000  Uiso   1.00
O1056  O     0.89441   0.79513   0.75000   0.00000  Uiso   1.00
O1057  O     0.89441   0.87154   0.75000   0.00000  Uiso   1.00
O1058  O     0.77226   0.79513   0.74999   0.00000  Uiso   1.00
N1059  N     0.83333   0.95240   0.75000   0.00000  Uiso   1.00
N1060  N     0.83333   0.71427   0.75000   0.00000  Uiso   1.00
C1061  C     0.75348   0.83380   0.75001   0.00000  Uiso   1.00
C1062  C     0.91319   0.83287   0.74983   0.00000  Uiso   1.00
O1063  O     0.83333   0.87155   0.68453   0.00000  Uiso   1.00
O1064  O     0.83334   0.79511   0.81547   0.00000  Uiso   1.00
O1065  O     0.83334   0.87155   0.81547   0.00000  Uiso   1.00
O1066  O     0.83333   0.79511   0.68453   0.00000  Uiso   1.00
C1067  C     0.83349   0.83334   0.66397   0.00000  Uiso   1.00
C1068  C     0.83319   0.83332   0.83611   0.00000  Uiso   1.00
Zn1069 Zn    0.83333   0.88437   0.75000   0.00000  Uiso   1.00
Zn1070 Zn    0.83333   0.78229   0.75000   0.00000  Uiso   1.00
C1071  C     0.85935   0.69013   0.77797   0.00000  Uiso   1.00
C1072  C     0.80731   0.97654   0.72204   0.00000  Uiso   1.00
C1073  C     0.80732   0.69115   0.72202   0.00000  Uiso   1.00
C1074  C     0.85934   0.97552   0.77799   0.00000  Uiso   1.00
C1075  C     0.68823   0.82882   0.70908   0.00000  Uiso   1.00
C1076  C     0.97844   0.83789   0.79064   0.00000  Uiso   1.00
C1077  C     0.97815   0.82677   0.70924   0.00000  Uiso   1.00
C1078  C     0.68850   0.84007   0.79045   0.00000  Uiso   1.00
C1079  C     0.85110   0.86960   0.54735   0.00000  Uiso   1.00
C1080  C     0.84543   0.79399   0.95319   0.00000  Uiso   1.00
C1081  C     0.82157   0.87264   0.95302   0.00000  Uiso   1.00
C1082  C     0.81625   0.79698   0.54710   0.00000  Uiso   1.00
H1083  H     0.86517   0.89750   0.52984   0.00000  Uiso   1.00
H1084  H     0.85534   0.76362   0.97087   0.00000  Uiso   1.00
H1085  H     0.81180   0.90302   0.97055   0.00000  Uiso   1.00
H1086  H     0.80216   0.76909   0.52941   0.00000  Uiso   1.00
C1087  C     0.85082   0.86975   0.59336   0.00000  Uiso   1.00
C1088  C     0.84501   0.79389   0.90719   0.00000  Uiso   1.00
C1089  C     0.82164   0.87272   0.90702   0.00000  Uiso   1.00
C1090  C     0.81647   0.79686   0.59310   0.00000  Uiso   1.00
H1091  H     0.86452   0.89786   0.61107   0.00000  Uiso   1.00
H1092  H     0.85442   0.76329   0.88980   0.00000  Uiso   1.00
H1093  H     0.81219   0.90333   0.88948   0.00000  Uiso   1.00
H1094  H     0.80269   0.76876   0.61060   0.00000  Uiso   1.00
C1095  C     0.83361   0.83332   0.61615   0.00000  Uiso   1.00
C1096  C     0.83322   0.83329   0.88407   0.00000  Uiso   1.00
C1097  C     0.83368   0.83329   0.52422   0.00000  Uiso   1.00
C1098  C     0.83359   0.83332   0.97610   0.00000  Uiso   1.00
C1099  C     0.95733   0.83147   0.75003   0.00000  Uiso   1.00
C1100  C     0.70933   0.83522   0.74971   0.00000  Uiso   1.00
F1101  F     0.88547   0.71229   0.80597   0.00000  Uiso   1.00
F1102  F     0.78120   0.95438   0.69403   0.00000  Uiso   1.00
F1103  F     0.78123   0.71432   0.69397   0.00000  Uiso   1.00
F1104  F     0.88540   0.95234   0.80607   0.00000  Uiso   1.00
N1105  N     0.71091   0.82363   0.66812   0.00000  Uiso   1.00
O1106  O     0.70399   0.78930   0.64214   0.00000  Uiso   1.00
O1107  O     0.73683   0.85455   0.65554   0.00000  Uiso   1.00
N1108  N     0.95579   0.84299   0.83161   0.00000  Uiso   1.00
O1109  O     0.96254   0.87742   0.85753   0.00000  Uiso   1.00
O1110  O     0.93013   0.81187   0.84430   0.00000  Uiso   1.00
N1111  N     0.95519   0.82212   0.66810   0.00000  Uiso   1.00
O1112  O     0.96171   0.84965   0.63512   0.00000  Uiso   1.00
O1113  O     0.92944   0.78890   0.66264   0.00000  Uiso   1.00
N1114  N     0.71144   0.84516   0.83153   0.00000  Uiso   1.00
O1115  O     0.70530   0.81765   0.86462   0.00000  Uiso   1.00
O1116  O     0.73653   0.87897   0.83691   0.00000  Uiso   1.00
loop_
_geom_bond_atom_site_label_1
_geom_bond_atom_site_label_2
_geom_bond_distance
_geom_bond_site_symmetry_2
_ccdc_geom_bond_type
O1     Zn15    1.990   .     S
O1     C7      1.276   .     A
O2     Zn16    1.990   .     S
O2     C8      1.276   .     A
O3     C8      1.281   .     A
O3     Zn15    1.976   .     S
O4     Zn16    1.976   .     S
O4     C7      1.281   .     A
N5     C20     1.367   .     A
N5     C18     1.367   .     A
N5     Zn15    2.011   .     S
N6     C19     1.367   .     A
N6     Zn16    2.011   .     S
N6     C17     1.367   .     A
C7     C46     1.407   .     S
C8     C45     1.407   .     S
O9     Zn15    2.001   .     S
O9     C13     1.288   .     A
O10    Zn16    2.001   .     S
O10    C14     1.289   .     A
O11    Zn15    2.000   .     S
O11    C14     1.289   .     A
O12    C13     1.287   .     A
O12    Zn16    2.000   .     S
C13    C41     1.435   .     S
C14    C42     1.439   .     S
C17    F47     1.355   .     S
C17    C392    1.418   1_545 S
C18    F48     1.355   .     S
C18    C205    1.418   .     S
C19    F49     1.355   .     S
C19    C390    1.418   1_545 S
C20    F50     1.355   .     S
C20    C203    1.418   .     S
C21    N51     1.438   .     S
C21    C46     1.402   .     A
C21    C147    1.386   1_455 S
C22    N54     1.437   .     S
C22    C45     1.402   .     A
C22    C86     1.386   .     S
C23    C45     1.402   .     A
C23    N57     1.438   .     S
C23    C83     1.386   .     S
C24    C46     1.402   .     A
C24    N60     1.438   .     S
C24    C146    1.386   1_455 S
C25    C43     1.399   .     A
C25    H29     1.083   .     S
C25    C33     1.380   .     A
C26    C44     1.399   .     A
C26    H30     1.083   .     S
C26    C34     1.380   .     A
C27    C35     1.380   .     A
C27    H31     1.083   .     S
C27    C44     1.399   .     A
C28    C43     1.399   .     A
C28    H32     1.083   .     S
C28    C36     1.380   .     A
C33    H37     1.084   .     S
C33    C41     1.398   .     A
C34    C42     1.400   .     A
C34    H38     1.083   .     S
C35    H39     1.083   .     S
C35    C42     1.399   .     A
C36    C41     1.398   .     A
C36    H40     1.084   .     S
C43    C602    1.444   1_554 S
C44    C601    1.444   .     S
N51    O52     1.301   .     A
N51    O53     1.301   .     A
N54    O56     1.301   .     A
N54    O55     1.301   .     A
N57    O59     1.301   .     A
N57    O58     1.301   .     A
N60    O62     1.301   .     A
N60    O61     1.301   .     A
O63    Zn77    1.990   .     S
O63    C69     1.276   .     A
O64    Zn78    1.990   .     S
O64    C70     1.276   .     A
O65    C70     1.281   .     A
O65    Zn77    1.976   .     S
O66    Zn78    1.976   .     S
O66    C69     1.281   .     A
N67    C82     1.367   .     A
N67    C80     1.367   .     A
N67    Zn77    2.011   .     S
N68    C81     1.367   .     A
N68    Zn78    2.011   .     S
N68    C79     1.367   .     A
C69    C108    1.407   .     S
C70    C107    1.407   .     S
O71    Zn77    2.001   .     S
O71    C75     1.288   .     A
O72    Zn78    2.001   .     S
O72    C76     1.289   .     A
O73    Zn77    2.000   .     S
O73    C76     1.289   .     A
O74    C75     1.287   .     A
O74    Zn78    2.000   .     S
C75    C103    1.435   .     S
C76    C104    1.439   .     S
C79    F109    1.355   .     S
C79    C454    1.418   1_545 S
C80    F110    1.355   .     S
C80    C267    1.418   .     S
C81    F111    1.355   .     S
C81    C452    1.418   1_545 S
C82    F112    1.355   .     S
C82    C265    1.418   .     S
C83    N113    1.438   .     S
C83    C108    1.402   .     A
C84    N116    1.437   .     S
C84    C107    1.402   .     A
C84    C148    1.386   .     S
C85    C107    1.402   .     A
C85    N119    1.438   .     S
C85    C145    1.386   .     S
C86    C108    1.402   .     A
C86    N122    1.438   .     S
C87    C105    1.399   .     A
C87    H91     1.083   .     S
C87    C95     1.380   .     A
C88    C106    1.399   .     A
C88    H92     1.083   .     S
C88    C96     1.380   .     A
C89    C97     1.380   .     A
C89    H93     1.083   .     S
C89    C106    1.399   .     A
C90    C105    1.399   .     A
C90    H94     1.083   .     S
C90    C98     1.380   .     A
C95    H99     1.084   .     S
C95    C103    1.398   .     A
C96    C104    1.400   .     A
C96    H100    1.083   .     S
C97    H101    1.083   .     S
C97    C104    1.399   .     A
C98    C103    1.398   .     A
C98    H102    1.084   .     S
C105   C664    1.444   1_554 S
C106   C663    1.444   .     S
N113   O114    1.301   .     A
N113   O115    1.301   .     A
N116   O118    1.301   .     A
N116   O117    1.301   .     A
N119   O121    1.301   .     A
N119   O120    1.301   .     A
N122   O124    1.301   .     A
N122   O123    1.301   .     A
O125   Zn139   1.990   .     S
O125   C131    1.276   .     A
O126   Zn140   1.990   .     S
O126   C132    1.276   .     A
O127   C132    1.281   .     A
O127   Zn139   1.976   .     S
O128   Zn140   1.976   .     S
O128   C131    1.281   .     A
N129   C144    1.367   .     A
N129   C142    1.367   .     A
N129   Zn139   2.011   .     S
N130   C143    1.367   .     A
N130   Zn140   2.011   .     S
N130   C141    1.367   .     A
C131   C170    1.407   .     S
C132   C169    1.407   .     S
O133   Zn139   2.001   .     S
O133   C137    1.288   .     A
O134   Zn140   2.001   .     S
O134   C138    1.289   .     A
O135   Zn139   2.000   .     S
O135   C138    1.289   .     A
O136   C137    1.287   .     A
O136   Zn140   2.000   .     S
C137   C165    1.435   .     S
C138   C166    1.439   .     S
C141   F171    1.355   .     S
C141   C516    1.418   1_545 S
C142   F172    1.355   .     S
C142   C329    1.418   .     S
C143   F173    1.355   .     S
C143   C514    1.418   1_545 S
C144   F174    1.355   .     S
C144   C327    1.418   .     S
C145   N175    1.438   .     S
C145   C170    1.402   .     A
C146   N178    1.437   .     S
C146   C169    1.402   .     A
C146   C24     1.386   1_655 S
C147   C169    1.402   .     A
C147   N181    1.438   .     S
C147   C21     1.386   1_655 S
C148   C170    1.402   .     A
C148   N184    1.438   .     S
C149   C167    1.399   .     A
C149   H153    1.083   .     S
C149   C157    1.380   .     A
C150   C168    1.399   .     A
C150   H154    1.083   .     S
C150   C158    1.380   .     A
C151   C159    1.380   .     A
C151   H155    1.083   .     S
C151   C168    1.399   .     A
C152   C167    1.399   .     A
C152   H156    1.083   .     S
C152   C160    1.380   .     A
C157   H161    1.084   .     S
C157   C165    1.398   .     A
C158   C166    1.400   .     A
C158   H162    1.083   .     S
C159   H163    1.083   .     S
C159   C166    1.399   .     A
C160   C165    1.398   .     A
C160   H164    1.084   .     S
C167   C726    1.444   1_554 S
C168   C725    1.444   .     S
N175   O176    1.301   .     A
N175   O177    1.301   .     A
N178   O180    1.301   .     A
N178   O179    1.301   .     A
N181   O183    1.301   .     A
N181   O182    1.301   .     A
N184   O186    1.301   .     A
N184   O185    1.301   .     A
O187   Zn201   1.990   .     S
O187   C193    1.276   .     A
O188   Zn202   1.990   .     S
O188   C194    1.276   .     A
O189   C194    1.281   .     A
O189   Zn201   1.976   .     S
O190   Zn202   1.976   .     S
O190   C193    1.281   .     A
N191   C206    1.367   .     A
N191   C204    1.367   .     A
N191   Zn201   2.011   .     S
N192   C205    1.367   .     A
N192   Zn202   2.011   .     S
N192   C203    1.367   .     A
C193   C232    1.407   .     S
C194   C231    1.407   .     S
O195   Zn201   2.001   .     S
O195   C199    1.288   .     A
O196   Zn202   2.001   .     S
O196   C200    1.289   .     A
O197   Zn201   2.000   .     S
O197   C200    1.289   .     A
O198   C199    1.287   .     A
O198   Zn202   2.000   .     S
C199   C227    1.435   .     S
C200   C228    1.439   .     S
C203   F233    1.355   .     S
C204   F234    1.355   .     S
C204   C391    1.418   .     S
C205   F235    1.355   .     S
C206   F236    1.355   .     S
C206   C389    1.418   .     S
C207   N237    1.438   .     S
C207   C232    1.402   .     A
C207   C333    1.386   1_455 S
C208   N240    1.437   .     S
C208   C231    1.402   .     A
C208   C272    1.386   .     S
C209   C231    1.402   .     A
C209   N243    1.438   .     S
C209   C269    1.386   .     S
C210   C232    1.402   .     A
C210   N246    1.438   .     S
C210   C332    1.386   1_455 S
C211   C229    1.399   .     A
C211   H215    1.083   .     S
C211   C219    1.380   .     A
C212   C230    1.399   .     A
C212   H216    1.083   .     S
C212   C220    1.380   .     A
C213   C221    1.380   .     A
C213   H217    1.083   .     S
C213   C230    1.399   .     A
C214   C229    1.399   .     A
C214   H218    1.083   .     S
C214   C222    1.380   .     A
C219   H223    1.084   .     S
C219   C227    1.398   .     A
C220   C228    1.400   .     A
C220   H224    1.083   .     S
C221   H225    1.083   .     S
C221   C228    1.399   .     A
C222   C227    1.398   .     A
C222   H226    1.084   .     S
C229   C788    1.444   1_554 S
C230   C787    1.444   .     S
N237   O238    1.301   .     A
N237   O239    1.301   .     A
N240   O242    1.301   .     A
N240   O241    1.301   .     A
N243   O245    1.301   .     A
N243   O244    1.301   .     A
N246   O248    1.301   .     A
N246   O247    1.301   .     A
O249   Zn263   1.990   .     S
O249   C255    1.276   .     A
O250   Zn264   1.990   .     S
O250   C256    1.276   .     A
O251   C256    1.281   .     A
O251   Zn263   1.976   .     S
O252   Zn264   1.976   .     S
O252   C255    1.281   .     A
N253   C268    1.367   .     A
N253   C266    1.367   .     A
N253   Zn263   2.011   .     S
N254   C267    1.367   .     A
N254   Zn264   2.011   .     S
N254   C265    1.367   .     A
C255   C294    1.407   .     S
C256   C293    1.407   .     S
O257   Zn263   2.001   .     S
O257   C261    1.288   .     A
O258   Zn264   2.001   .     S
O258   C262    1.289   .     A
O259   Zn263   2.000   .     S
O259   C262    1.289   .     A
O260   C261    1.287   .     A
O260   Zn264   2.000   .     S
C261   C289    1.435   .     S
C262   C290    1.439   .     S
C265   F295    1.355   .     S
C266   F296    1.355   .     S
C266   C453    1.418   .     S
C267   F297    1.355   .     S
C268   F298    1.355   .     S
C268   C451    1.418   .     S
C269   N299    1.438   .     S
C269   C294    1.402   .     A
C270   N302    1.437   .     S
C270   C293    1.402   .     A
C270   C334    1.386   .     S
C271   C293    1.402   .     A
C271   N305    1.438   .     S
C271   C331    1.386   .     S
C272   C294    1.402   .     A
C272   N308    1.438   .     S
C273   C291    1.399   .     A
C273   H277    1.083   .     S
C273   C281    1.380   .     A
C274   C292    1.399   .     A
C274   H278    1.083   .     S
C274   C282    1.380   .     A
C275   C283    1.380   .     A
C275   H279    1.083   .     S
C275   C292    1.399   .     A
C276   C291    1.399   .     A
C276   H280    1.083   .     S
C276   C284    1.380   .     A
C281   H285    1.084   .     S
C281   C289    1.398   .     A
C282   C290    1.400   .     A
C282   H286    1.083   .     S
C283   H287    1.083   .     S
C283   C290    1.399   .     A
C284   C289    1.398   .     A
C284   H288    1.084   .     S
C291   C850    1.444   1_554 S
C292   C849    1.444   .     S
N299   O300    1.301   .     A
N299   O301    1.301   .     A
N302   O304    1.301   .     A
N302   O303    1.301   .     A
N305   O307    1.301   .     A
N305   O306    1.301   .     A
N308   O310    1.301   .     A
N308   O309    1.301   .     A
O311   Zn325   1.990   .     S
O311   C317    1.276   .     A
O312   Zn326   1.990   .     S
O312   C318    1.276   .     A
O313   C318    1.281   .     A
O313   Zn325   1.976   .     S
O314   Zn326   1.976   .     S
O314   C317    1.281   .     A
N315   C330    1.367   .     A
N315   C328    1.367   .     A
N315   Zn325   2.011   .     S
N316   C329    1.367   .     A
N316   Zn326   2.011   .     S
N316   C327    1.367   .     A
C317   C356    1.407   .     S
C318   C355    1.407   .     S
O319   Zn325   2.001   .     S
O319   C323    1.288   .     A
O320   Zn326   2.001   .     S
O320   C324    1.289   .     A
O321   Zn325   2.000   .     S
O321   C324    1.289   .     A
O322   C323    1.287   .     A
O322   Zn326   2.000   .     S
C323   C351    1.435   .     S
C324   C352    1.439   .     S
C327   F357    1.355   .     S
C328   F358    1.355   .     S
C328   C515    1.418   .     S
C329   F359    1.355   .     S
C330   F360    1.355   .     S
C330   C513    1.418   .     S
C331   N361    1.438   .     S
C331   C356    1.402   .     A
C332   N364    1.437   .     S
C332   C355    1.402   .     A
C332   C210    1.386   1_655 S
C333   C355    1.402   .     A
C333   N367    1.438   .     S
C333   C207    1.386   1_655 S
C334   C356    1.402   .     A
C334   N370    1.438   .     S
C335   C353    1.399   .     A
C335   H339    1.083   .     S
C335   C343    1.380   .     A
C336   C354    1.399   .     A
C336   H340    1.083   .     S
C336   C344    1.380   .     A
C337   C345    1.380   .     A
C337   H341    1.083   .     S
C337   C354    1.399   .     A
C338   C353    1.399   .     A
C338   H342    1.083   .     S
C338   C346    1.380   .     A
C343   H347    1.084   .     S
C343   C351    1.398   .     A
C344   C352    1.400   .     A
C344   H348    1.083   .     S
C345   H349    1.083   .     S
C345   C352    1.399   .     A
C346   C351    1.398   .     A
C346   H350    1.084   .     S
C353   C912    1.444   1_554 S
C354   C911    1.444   .     S
N361   O362    1.301   .     A
N361   O363    1.301   .     A
N364   O366    1.301   .     A
N364   O365    1.301   .     A
N367   O369    1.301   .     A
N367   O368    1.301   .     A
N370   O372    1.301   .     A
N370   O371    1.301   .     A
O373   Zn387   1.990   .     S
O373   C379    1.276   .     A
O374   Zn388   1.990   .     S
O374   C380    1.276   .     A
O375   C380    1.281   .     A
O375   Zn387   1.976   .     S
O376   Zn388   1.976   .     S
O376   C379    1.281   .     A
N377   C392    1.367   .     A
N377   C390    1.367   .     A
N377   Zn387   2.011   .     S
N378   C391    1.367   .     A
N378   Zn388   2.011   .     S
N378   C389    1.367   .     A
C379   C418    1.407   .     S
C380   C417    1.407   .     S
O381   Zn387   2.001   .     S
O381   C385    1.288   .     A
O382   Zn388   2.001   .     S
O382   C386    1.289   .     A
O383   Zn387   2.000   .     S
O383   C386    1.289   .     A
O384   C385    1.287   .     A
O384   Zn388   2.000   .     S
C385   C413    1.435   .     S
C386   C414    1.439   .     S
C389   F419    1.355   .     S
C390   F420    1.355   .     S
C390   C19     1.418   1_565 S
C391   F421    1.355   .     S
C392   F422    1.355   .     S
C392   C17     1.418   1_565 S
C393   N423    1.438   .     S
C393   C418    1.402   .     A
C393   C519    1.386   1_455 S
C394   N426    1.437   .     S
C394   C417    1.402   .     A
C394   C458    1.386   .     S
C395   C417    1.402   .     A
C395   N429    1.438   .     S
C395   C455    1.386   .     S
C396   C418    1.402   .     A
C396   N432    1.438   .     S
C396   C518    1.386   1_455 S
C397   C415    1.399   .     A
C397   H401    1.083   .     S
C397   C405    1.380   .     A
C398   C416    1.399   .     A
C398   H402    1.083   .     S
C398   C406    1.380   .     A
C399   C407    1.380   .     A
C399   H403    1.083   .     S
C399   C416    1.399   .     A
C400   C415    1.399   .     A
C400   H404    1.083   .     S
C400   C408    1.380   .     A
C405   H409    1.084   .     S
C405   C413    1.398   .     A
C406   C414    1.400   .     A
C406   H410    1.083   .     S
C407   H411    1.083   .     S
C407   C414    1.399   .     A
C408   C413    1.398   .     A
C408   H412    1.084   .     S
C415   C974    1.444   1_554 S
C416   C973    1.444   .     S
N423   O424    1.301   .     A
N423   O425    1.301   .     A
N426   O428    1.301   .     A
N426   O427    1.301   .     A
N429   O431    1.301   .     A
N429   O430    1.301   .     A
N432   O434    1.301   .     A
N432   O433    1.301   .     A
O435   Zn449   1.990   .     S
O435   C441    1.276   .     A
O436   Zn450   1.990   .     S
O436   C442    1.276   .     A
O437   C442    1.281   .     A
O437   Zn449   1.976   .     S
O438   Zn450   1.976   .     S
O438   C441    1.281   .     A
N439   C454    1.367   .     A
N439   C452    1.367   .     A
N439   Zn449   2.011   .     S
N440   C453    1.367   .     A
N440   Zn450   2.011   .     S
N440   C451    1.367   .     A
C441   C480    1.407   .     S
C442   C479    1.407   .     S
O443   Zn449   2.001   .     S
O443   C447    1.288   .     A
O444   Zn450   2.001   .     S
O444   C448    1.289   .     A
O445   Zn449   2.000   .     S
O445   C448    1.289   .     A
O446   C447    1.287   .     A
O446   Zn450   2.000   .     S
C447   C475    1.435   .     S
C448   C476    1.439   .     S
C451   F481    1.355   .     S
C452   F482    1.355   .     S
C452   C81     1.418   1_565 S
C453   F483    1.355   .     S
C454   F484    1.355   .     S
C454   C79     1.418   1_565 S
C455   N485    1.438   .     S
C455   C480    1.402   .     A
C456   N488    1.437   .     S
C456   C479    1.402   .     A
C456   C520    1.386   .     S
C457   C479    1.402   .     A
C457   N491    1.438   .     S
C457   C517    1.386   .     S
C458   C480    1.402   .     A
C458   N494    1.438   .     S
C459   C477    1.399   .     A
C459   H463    1.083   .     S
C459   C467    1.380   .     A
C460   C478    1.399   .     A
C460   H464    1.083   .     S
C460   C468    1.380   .     A
C461   C469    1.380   .     A
C461   H465    1.083   .     S
C461   C478    1.399   .     A
C462   C477    1.399   .     A
C462   H466    1.083   .     S
C462   C470    1.380   .     A
C467   H471    1.084   .     S
C467   C475    1.398   .     A
C468   C476    1.400   .     A
C468   H472    1.083   .     S
C469   H473    1.083   .     S
C469   C476    1.399   .     A
C470   C475    1.398   .     A
C470   H474    1.084   .     S
C477   C1036   1.444   1_554 S
C478   C1035   1.444   .     S
N485   O486    1.301   .     A
N485   O487    1.301   .     A
N488   O490    1.301   .     A
N488   O489    1.301   .     A
N491   O493    1.301   .     A
N491   O492    1.301   .     A
N494   O496    1.301   .     A
N494   O495    1.301   .     A
O497   Zn511   1.990   .     S
O497   C503    1.276   .     A
O498   Zn512   1.990   .     S
O498   C504    1.276   .     A
O499   C504    1.281   .     A
O499   Zn511   1.976   .     S
O500   Zn512   1.976   .     S
O500   C503    1.281   .     A
N501   C516    1.367   .     A
N501   C514    1.367   .     A
N501   Zn511   2.011   .     S
N502   C515    1.367   .     A
N502   Zn512   2.011   .     S
N502   C513    1.367   .     A
C503   C542    1.407   .     S
C504   C541    1.407   .     S
O505   Zn511   2.001   .     S
O505   C509    1.288   .     A
O506   Zn512   2.001   .     S
O506   C510    1.289   .     A
O507   Zn511   2.000   .     S
O507   C510    1.289   .     A
O508   C509    1.287   .     A
O508   Zn512   2.000   .     S
C509   C537    1.435   .     S
C510   C538    1.439   .     S
C513   F543    1.355   .     S
C514   F544    1.355   .     S
C514   C143    1.418   1_565 S
C515   F545    1.355   .     S
C516   F546    1.355   .     S
C516   C141    1.418   1_565 S
C517   N547    1.438   .     S
C517   C542    1.402   .     A
C518   N550    1.437   .     S
C518   C541    1.402   .     A
C518   C396    1.386   1_655 S
C519   C541    1.402   .     A
C519   N553    1.438   .     S
C519   C393    1.386   1_655 S
C520   C542    1.402   .     A
C520   N556    1.438   .     S
C521   C539    1.399   .     A
C521   H525    1.083   .     S
C521   C529    1.380   .     A
C522   C540    1.399   .     A
C522   H526    1.083   .     S
C522   C530    1.380   .     A
C523   C531    1.380   .     A
C523   H527    1.083   .     S
C523   C540    1.399   .     A
C524   C539    1.399   .     A
C524   H528    1.083   .     S
C524   C532    1.380   .     A
C529   H533    1.084   .     S
C529   C537    1.398   .     A
C530   C538    1.400   .     A
C530   H534    1.083   .     S
C531   H535    1.083   .     S
C531   C538    1.399   .     A
C532   C537    1.398   .     A
C532   H536    1.084   .     S
C539   C1098   1.444   1_554 S
C540   C1097   1.444   .     S
N547   O548    1.301   .     A
N547   O549    1.301   .     A
N550   O552    1.301   .     A
N550   O551    1.301   .     A
N553   O555    1.301   .     A
N553   O554    1.301   .     A
N556   O558    1.301   .     A
N556   O557    1.301   .     A
O559   Zn573   1.990   .     S
O559   C565    1.276   .     A
O560   Zn574   1.990   .     S
O560   C566    1.276   .     A
O561   C566    1.281   .     A
O561   Zn573   1.976   .     S
O562   Zn574   1.976   .     S
O562   C565    1.281   .     A
N563   C578    1.367   .     A
N563   C576    1.367   .     A
N563   Zn573   2.011   .     S
N564   C577    1.367   .     A
N564   Zn574   2.011   .     S
N564   C575    1.367   .     A
C565   C604    1.407   .     S
C566   C603    1.407   .     S
O567   Zn573   2.001   .     S
O567   C571    1.288   .     A
O568   Zn574   2.001   .     S
O568   C572    1.289   .     A
O569   Zn573   2.000   .     S
O569   C572    1.289   .     A
O570   C571    1.287   .     A
O570   Zn574   2.000   .     S
C571   C599    1.435   .     S
C572   C600    1.439   .     S
C575   F605    1.355   .     S
C575   C950    1.418   1_545 S
C576   F606    1.355   .     S
C576   C763    1.418   .     S
C577   F607    1.355   .     S
C577   C948    1.418   1_545 S
C578   F608    1.355   .     S
C578   C761    1.418   .     S
C579   N609    1.438   .     S
C579   C604    1.402   .     A
C579   C705    1.386   1_455 S
C580   N612    1.437   .     S
C580   C603    1.402   .     A
C580   C644    1.386   .     S
C581   C603    1.402   .     A
C581   N615    1.438   .     S
C581   C641    1.386   .     S
C582   C604    1.402   .     A
C582   N618    1.438   .     S
C582   C704    1.386   1_455 S
C583   C601    1.399   .     A
C583   H587    1.083   .     S
C583   C591    1.380   .     A
C584   C602    1.399   .     A
C584   H588    1.083   .     S
C584   C592    1.380   .     A
C585   C593    1.380   .     A
C585   H589    1.083   .     S
C585   C602    1.399   .     A
C586   C601    1.399   .     A
C586   H590    1.083   .     S
C586   C594    1.380   .     A
C591   H595    1.084   .     S
C591   C599    1.398   .     A
C592   C600    1.400   .     A
C592   H596    1.083   .     S
C593   H597    1.083   .     S
C593   C600    1.399   .     A
C594   C599    1.398   .     A
C594   H598    1.084   .     S
C602   C43     1.444   1_556 S
N609   O610    1.301   .     A
N609   O611    1.301   .     A
N612   O614    1.301   .     A
N612   O613    1.301   .     A
N615   O617    1.301   .     A
N615   O616    1.301   .     A
N618   O620    1.301   .     A
N618   O619    1.301   .     A
O621   Zn635   1.990   .     S
O621   C627    1.276   .     A
O622   Zn636   1.990   .     S
O622   C628    1.276   .     A
O623   C628    1.281   .     A
O623   Zn635   1.976   .     S
O624   Zn636   1.976   .     S
O624   C627    1.281   .     A
N625   C640    1.367   .     A
N625   C638    1.367   .     A
N625   Zn635   2.011   .     S
N626   C639    1.367   .     A
N626   Zn636   2.011   .     S
N626   C637    1.367   .     A
C627   C666    1.407   .     S
C628   C665    1.407   .     S
O629   Zn635   2.001   .     S
O629   C633    1.288   .     A
O630   Zn636   2.001   .     S
O630   C634    1.289   .     A
O631   Zn635   2.000   .     S
O631   C634    1.289   .     A
O632   C633    1.287   .     A
O632   Zn636   2.000   .     S
C633   C661    1.435   .     S
C634   C662    1.439   .     S
C637   F667    1.355   .     S
C637   C1012   1.418   1_545 S
C638   F668    1.355   .     S
C638   C825    1.418   .     S
C639   F669    1.355   .     S
C639   C1010   1.418   1_545 S
C640   F670    1.355   .     S
C640   C823    1.418   .     S
C641   N671    1.438   .     S
C641   C666    1.402   .     A
C642   N674    1.437   .     S
C642   C665    1.402   .     A
C642   C706    1.386   .     S
C643   C665    1.402   .     A
C643   N677    1.438   .     S
C643   C703    1.386   .     S
C644   C666    1.402   .     A
C644   N680    1.438   .     S
C645   C663    1.399   .     A
C645   H649    1.083   .     S
C645   C653    1.380   .     A
C646   C664    1.399   .     A
C646   H650    1.083   .     S
C646   C654    1.380   .     A
C647   C655    1.380   .     A
C647   H651    1.083   .     S
C647   C664    1.399   .     A
C648   C663    1.399   .     A
C648   H652    1.083   .     S
C648   C656    1.380   .     A
C653   H657    1.084   .     S
C653   C661    1.398   .     A
C654   C662    1.400   .     A
C654   H658    1.083   .     S
C655   H659    1.083   .     S
C655   C662    1.399   .     A
C656   C661    1.398   .     A
C656   H660    1.084   .     S
C664   C105    1.444   1_556 S
N671   O672    1.301   .     A
N671   O673    1.301   .     A
N674   O676    1.301   .     A
N674   O675    1.301   .     A
N677   O679    1.301   .     A
N677   O678    1.301   .     A
N680   O682    1.301   .     A
N680   O681    1.301   .     A
O683   Zn697   1.990   .     S
O683   C689    1.276   .     A
O684   Zn698   1.990   .     S
O684   C690    1.276   .     A
O685   C690    1.281   .     A
O685   Zn697   1.976   .     S
O686   Zn698   1.976   .     S
O686   C689    1.281   .     A
N687   C702    1.367   .     A
N687   C700    1.367   .     A
N687   Zn697   2.011   .     S
N688   C701    1.367   .     A
N688   Zn698   2.011   .     S
N688   C699    1.367   .     A
C689   C728    1.407   .     S
C690   C727    1.407   .     S
O691   Zn697   2.001   .     S
O691   C695    1.288   .     A
O692   Zn698   2.001   .     S
O692   C696    1.289   .     A
O693   Zn697   2.000   .     S
O693   C696    1.289   .     A
O694   C695    1.287   .     A
O694   Zn698   2.000   .     S
C695   C723    1.435   .     S
C696   C724    1.439   .     S
C699   F729    1.355   .     S
C699   C1074   1.418   1_545 S
C700   F730    1.355   .     S
C700   C887    1.418   .     S
C701   F731    1.355   .     S
C701   C1072   1.418   1_545 S
C702   F732    1.355   .     S
C702   C885    1.418   .     S
C703   N733    1.438   .     S
C703   C728    1.402   .     A
C704   N736    1.437   .     S
C704   C727    1.402   .     A
C704   C582    1.386   1_655 S
C705   C727    1.402   .     A
C705   N739    1.438   .     S
C705   C579    1.386   1_655 S
C706   C728    1.402   .     A
C706   N742    1.438   .     S
C707   C725    1.399   .     A
C707   H711    1.083   .     S
C707   C715    1.380   .     A
C708   C726    1.399   .     A
C708   H712    1.083   .     S
C708   C716    1.380   .     A
C709   C717    1.380   .     A
C709   H713    1.083   .     S
C709   C726    1.399   .     A
C710   C725    1.399   .     A
C710   H714    1.083   .     S
C710   C718    1.380   .     A
C715   H719    1.084   .     S
C715   C723    1.398   .     A
C716   C724    1.400   .     A
C716   H720    1.083   .     S
C717   H721    1.083   .     S
C717   C724    1.399   .     A
C718   C723    1.398   .     A
C718   H722    1.084   .     S
C726   C167    1.444   1_556 S
N733   O734    1.301   .     A
N733   O735    1.301   .     A
N736   O738    1.301   .     A
N736   O737    1.301   .     A
N739   O741    1.301   .     A
N739   O740    1.301   .     A
N742   O744    1.301   .     A
N742   O743    1.301   .     A
O745   Zn759   1.990   .     S
O745   C751    1.276   .     A
O746   Zn760   1.990   .     S
O746   C752    1.276   .     A
O747   C752    1.281   .     A
O747   Zn759   1.976   .     S
O748   Zn760   1.976   .     S
O748   C751    1.281   .     A
N749   C764    1.367   .     A
N749   C762    1.367   .     A
N749   Zn759   2.011   .     S
N750   C763    1.367   .     A
N750   Zn760   2.011   .     S
N750   C761    1.367   .     A
C751   C790    1.407   .     S
C752   C789    1.407   .     S
O753   Zn759   2.001   .     S
O753   C757    1.288   .     A
O754   Zn760   2.001   .     S
O754   C758    1.289   .     A
O755   Zn759   2.000   .     S
O755   C758    1.289   .     A
O756   C757    1.287   .     A
O756   Zn760   2.000   .     S
C757   C785    1.435   .     S
C758   C786    1.439   .     S
C761   F791    1.355   .     S
C762   F792    1.355   .     S
C762   C949    1.418   .     S
C763   F793    1.355   .     S
C764   F794    1.355   .     S
C764   C947    1.418   .     S
C765   N795    1.438   .     S
C765   C790    1.402   .     A
C765   C891    1.386   1_455 S
C766   N798    1.437   .     S
C766   C789    1.402   .     A
C766   C830    1.386   .     S
C767   C789    1.402   .     A
C767   N801    1.438   .     S
C767   C827    1.386   .     S
C768   C790    1.402   .     A
C768   N804    1.438   .     S
C768   C890    1.386   1_455 S
C769   C787    1.399   .     A
C769   H773    1.083   .     S
C769   C777    1.380   .     A
C770   C788    1.399   .     A
C770   H774    1.083   .     S
C770   C778    1.380   .     A
C771   C779    1.380   .     A
C771   H775    1.083   .     S
C771   C788    1.399   .     A
C772   C787    1.399   .     A
C772   H776    1.083   .     S
C772   C780    1.380   .     A
C777   H781    1.084   .     S
C777   C785    1.398   .     A
C778   C786    1.400   .     A
C778   H782    1.083   .     S
C779   H783    1.083   .     S
C779   C786    1.399   .     A
C780   C785    1.398   .     A
C780   H784    1.084   .     S
C788   C229    1.444   1_556 S
N795   O796    1.301   .     A
N795   O797    1.301   .     A
N798   O800    1.301   .     A
N798   O799    1.301   .     A
N801   O803    1.301   .     A
N801   O802    1.301   .     A
N804   O806    1.301   .     A
N804   O805    1.301   .     A
O807   Zn821   1.990   .     S
O807   C813    1.276   .     A
O808   Zn822   1.990   .     S
O808   C814    1.276   .     A
O809   C814    1.281   .     A
O809   Zn821   1.976   .     S
O810   Zn822   1.976   .     S
O810   C813    1.281   .     A
N811   C826    1.367   .     A
N811   C824    1.367   .     A
N811   Zn821   2.011   .     S
N812   C825    1.367   .     A
N812   Zn822   2.011   .     S
N812   C823    1.367   .     A
C813   C852    1.407   .     S
C814   C851    1.407   .     S
O815   Zn821   2.001   .     S
O815   C819    1.288   .     A
O816   Zn822   2.001   .     S
O816   C820    1.289   .     A
O817   Zn821   2.000   .     S
O817   C820    1.289   .     A
O818   C819    1.287   .     A
O818   Zn822   2.000   .     S
C819   C847    1.435   .     S
C820   C848    1.439   .     S
C823   F853    1.355   .     S
C824   F854    1.355   .     S
C824   C1011   1.418   .     S
C825   F855    1.355   .     S
C826   F856    1.355   .     S
C826   C1009   1.418   .     S
C827   N857    1.438   .     S
C827   C852    1.402   .     A
C828   N860    1.437   .     S
C828   C851    1.402   .     A
C828   C892    1.386   .     S
C829   C851    1.402   .     A
C829   N863    1.438   .     S
C829   C889    1.386   .     S
C830   C852    1.402   .     A
C830   N866    1.438   .     S
C831   C849    1.399   .     A
C831   H835    1.083   .     S
C831   C839    1.380   .     A
C832   C850    1.399   .     A
C832   H836    1.083   .     S
C832   C840    1.380   .     A
C833   C841    1.380   .     A
C833   H837    1.083   .     S
C833   C850    1.399   .     A
C834   C849    1.399   .     A
C834   H838    1.083   .     S
C834   C842    1.380   .     A
C839   H843    1.084   .     S
C839   C847    1.398   .     A
C840   C848    1.400   .     A
C840   H844    1.083   .     S
C841   H845    1.083   .     S
C841   C848    1.399   .     A
C842   C847    1.398   .     A
C842   H846    1.084   .     S
C850   C291    1.444   1_556 S
N857   O858    1.301   .     A
N857   O859    1.301   .     A
N860   O862    1.301   .     A
N860   O861    1.301   .     A
N863   O865    1.301   .     A
N863   O864    1.301   .     A
N866   O868    1.301   .     A
N866   O867    1.301   .     A
O869   Zn883   1.990   .     S
O869   C875    1.276   .     A
O870   Zn884   1.990   .     S
O870   C876    1.276   .     A
O871   C876    1.281   .     A
O871   Zn883   1.976   .     S
O872   Zn884   1.976   .     S
O872   C875    1.281   .     A
N873   C888    1.367   .     A
N873   C886    1.367   .     A
N873   Zn883   2.011   .     S
N874   C887    1.367   .     A
N874   Zn884   2.011   .     S
N874   C885    1.367   .     A
C875   C914    1.407   .     S
C876   C913    1.407   .     S
O877   Zn883   2.001   .     S
O877   C881    1.288   .     A
O878   Zn884   2.001   .     S
O878   C882    1.289   .     A
O879   Zn883   2.000   .     S
O879   C882    1.289   .     A
O880   C881    1.287   .     A
O880   Zn884   2.000   .     S
C881   C909    1.435   .     S
C882   C910    1.439   .     S
C885   F915    1.355   .     S
C886   F916    1.355   .     S
C886   C1073   1.418   .     S
C887   F917    1.355   .     S
C888   F918    1.355   .     S
C888   C1071   1.418   .     S
C889   N919    1.438   .     S
C889   C914    1.402   .     A
C890   N922    1.437   .     S
C890   C913    1.402   .     A
C890   C768    1.386   1_655 S
C891   C913    1.402   .     A
C891   N925    1.438   .     S
C891   C765    1.386   1_655 S
C892   C914    1.402   .     A
C892   N928    1.438   .     S
C893   C911    1.399   .     A
C893   H897    1.083   .     S
C893   C901    1.380   .     A
C894   C912    1.399   .     A
C894   H898    1.083   .     S
C894   C902    1.380   .     A
C895   C903    1.380   .     A
C895   H899    1.083   .     S
C895   C912    1.399   .     A
C896   C911    1.399   .     A
C896   H900    1.083   .     S
C896   C904    1.380   .     A
C901   H905    1.084   .     S
C901   C909    1.398   .     A
C902   C910    1.400   .     A
C902   H906    1.083   .     S
C903   H907    1.083   .     S
C903   C910    1.399   .     A
C904   C909    1.398   .     A
C904   H908    1.084   .     S
C912   C353    1.444   1_556 S
N919   O920    1.301   .     A
N919   O921    1.301   .     A
N922   O924    1.301   .     A
N922   O923    1.301   .     A
N925   O927    1.301   .     A
N925   O926    1.301   .     A
N928   O930    1.301   .     A
N928   O929    1.301   .     A
O931   Zn945   1.990   .     S
O931   C937    1.276   .     A
O932   Zn946   1.990   .     S
O932   C938    1.276   .     A
O933   C938    1.281   .     A
O933   Zn945   1.976   .     S
O934   Zn946   1.976   .     S
O934   C937    1.281   .     A
N935   C950    1.367   .     A
N935   C948    1.367   .     A
N935   Zn945   2.011   .     S
N936   C949    1.367   .     A
N936   Zn946   2.011   .     S
N936   C947    1.367   .     A
C937   C976    1.407   .     S
C938   C975    1.407   .     S
O939   Zn945   2.001   .     S
O939   C943    1.288   .     A
O940   Zn946   2.001   .     S
O940   C944    1.289   .     A
O941   Zn945   2.000   .     S
O941   C944    1.289   .     A
O942   C943    1.287   .     A
O942   Zn946   2.000   .     S
C943   C971    1.435   .     S
C944   C972    1.439   .     S
C947   F977    1.355   .     S
C948   F978    1.355   .     S
C948   C577    1.418   1_565 S
C949   F979    1.355   .     S
C950   F980    1.355   .     S
C950   C575    1.418   1_565 S
C951   N981    1.438   .     S
C951   C976    1.402   .     A
C951   C1077   1.386   1_455 S
C952   N984    1.437   .     S
C952   C975    1.402   .     A
C952   C1016   1.386   .     S
C953   C975    1.402   .     A
C953   N987    1.438   .     S
C953   C1013   1.386   .     S
C954   C976    1.402   .     A
C954   N990    1.438   .     S
C954   C1076   1.386   1_455 S
C955   C973    1.399   .     A
C955   H959    1.083   .     S
C955   C963    1.380   .     A
C956   C974    1.399   .     A
C956   H960    1.083   .     S
C956   C964    1.380   .     A
C957   C965    1.380   .     A
C957   H961    1.083   .     S
C957   C974    1.399   .     A
C958   C973    1.399   .     A
C958   H962    1.083   .     S
C958   C966    1.380   .     A
C963   H967    1.084   .     S
C963   C971    1.398   .     A
C964   C972    1.400   .     A
C964   H968    1.083   .     S
C965   H969    1.083   .     S
C965   C972    1.399   .     A
C966   C971    1.398   .     A
C966   H970    1.084   .     S
C974   C415    1.444   1_556 S
N981   O982    1.301   .     A
N981   O983    1.301   .     A
N984   O986    1.301   .     A
N984   O985    1.301   .     A
N987   O989    1.301   .     A
N987   O988    1.301   .     A
N990   O992    1.301   .     A
N990   O991    1.301   .     A
O993   Zn1007  1.990   .     S
O993   C999    1.276   .     A
O994   Zn1008  1.990   .     S
O994   C1000   1.276   .     A
O995   C1000   1.281   .     A
O995   Zn1007  1.976   .     S
O996   Zn1008  1.976   .     S
O996   C999    1.281   .     A
N997   C1012   1.367   .     A
N997   C1010   1.367   .     A
N997   Zn1007  2.011   .     S
N998   C1011   1.367   .     A
N998   Zn1008  2.011   .     S
N998   C1009   1.367   .     A
C999   C1038   1.407   .     S
C1000  C1037   1.407   .     S
O1001  Zn1007  2.001   .     S
O1001  C1005   1.288   .     A
O1002  Zn1008  2.001   .     S
O1002  C1006   1.289   .     A
O1003  Zn1007  2.000   .     S
O1003  C1006   1.289   .     A
O1004  C1005   1.287   .     A
O1004  Zn1008  2.000   .     S
C1005  C1033   1.435   .     S
C1006  C1034   1.439   .     S
C1009  F1039   1.355   .     S
C1010  F1040   1.355   .     S
C1010  C639    1.418   1_565 S
C1011  F1041   1.355   .     S
C1012  F1042   1.355   .     S
C1012  C637    1.418   1_565 S
C1013  N1043   1.438   .     S
C1013  C1038   1.402   .     A
C1014  N1046   1.437   .     S
C1014  C1037   1.402   .     A
C1014  C1078   1.386   .     S
C1015  C1037   1.402   .     A
C1015  N1049   1.438   .     S
C1015  C1075   1.386   .     S
C1016  C1038   1.402   .     A
C1016  N1052   1.438   .     S
C1017  C1035   1.399   .     A
C1017  H1021   1.083   .     S
C1017  C1025   1.380   .     A
C1018  C1036   1.399   .     A
C1018  H1022   1.083   .     S
C1018  C1026   1.380   .     A
C1019  C1027   1.380   .     A
C1019  H1023   1.083   .     S
C1019  C1036   1.399   .     A
C1020  C1035   1.399   .     A
C1020  H1024   1.083   .     S
C1020  C1028   1.380   .     A
C1025  H1029   1.084   .     S
C1025  C1033   1.398   .     A
C1026  C1034   1.400   .     A
C1026  H1030   1.083   .     S
C1027  H1031   1.083   .     S
C1027  C1034   1.399   .     A
C1028  C1033   1.398   .     A
C1028  H1032   1.084   .     S
C1036  C477    1.444   1_556 S
N1043  O1044   1.301   .     A
N1043  O1045   1.301   .     A
N1046  O1048   1.301   .     A
N1046  O1047   1.301   .     A
N1049  O1051   1.301   .     A
N1049  O1050   1.301   .     A
N1052  O1054   1.301   .     A
N1052  O1053   1.301   .     A
O1055  Zn1069  1.990   .     S
O1055  C1061   1.276   .     A
O1056  Zn1070  1.990   .     S
O1056  C1062   1.276   .     A
O1057  C1062   1.281   .     A
O1057  Zn1069  1.976   .     S
O1058  Zn1070  1.976   .     S
O1058  C1061   1.281   .     A
N1059  C1074   1.367   .     A
N1059  C1072   1.367   .     A
N1059  Zn1069  2.011   .     S
N1060  C1073   1.367   .     A
N1060  Zn1070  2.011   .     S
N1060  C1071   1.367   .     A
C1061  C1100   1.407   .     S
C1062  C1099   1.407   .     S
O1063  Zn1069  2.001   .     S
O1063  C1067   1.288   .     A
O1064  Zn1070  2.001   .     S
O1064  C1068   1.289   .     A
O1065  Zn1069  2.000   .     S
O1065  C1068   1.289   .     A
O1066  C1067   1.287   .     A
O1066  Zn1070  2.000   .     S
C1067  C1095   1.435   .     S
C1068  C1096   1.439   .     S
C1071  F1101   1.355   .     S
C1072  F1102   1.355   .     S
C1072  C701    1.418   1_565 S
C1073  F1103   1.355   .     S
C1074  F1104   1.355   .     S
C1074  C699    1.418   1_565 S
C1075  N1105   1.438   .     S
C1075  C1100   1.402   .     A
C1076  N1108   1.437   .     S
C1076  C1099   1.402   .     A
C1076  C954    1.386   1_655 S
C1077  C1099   1.402   .     A
C1077  N1111   1.438   .     S
C1077  C951    1.386   1_655 S
C1078  C1100   1.402   .     A
C1078  N1114   1.438   .     S
C1079  C1097   1.399   .     A
C1079  H1083   1.083   .     S
C1079  C1087   1.380   .     A
C1080  C1098   1.399   .     A
C1080  H1084   1.083   .     S
C1080  C1088   1.380   .     A
C1081  C1089   1.380   .     A
C1081  H1085   1.083   .     S
C1081  C1098   1.399   .     A
C1082  C1097   1.399   .     A
C1082  H1086   1.083   .     S
C1082  C1090   1.380   .     A
C1087  H1091   1.084   .     S
C1087  C1095   1.398   .     A
C1088  C1096   1.400   .     A
C1088  H1092   1.083   .     S
C1089  H1093   1.083   .     S
C1089  C1096   1.399   .     A
C1090  C1095   1.398   .     A
C1090  H1094   1.084   .     S
C1098  C539    1.444   1_556 S
N1105  O1106   1.301   .     A
N1105  O1107   1.301   .     A
N1108  O1110   1.301   .     A
N1108  O1109   1.301   .     A
N1111  O1113   1.301   .     A
N1111  O1112   1.301   .     A
N1114  O1116   1.301   .     A
N1114  O1115   1.301   .     A
