data_str_m1_o10_o16_pcu_sym.253
_audit_creation_date              2020-01-03
_audit_creation_method            'Materials Studio'
_symmetry_space_group_name_H-M    'P1'
_symmetry_Int_Tables_number       1
_symmetry_cell_setting            triclinic
loop_
_symmetry_equiv_pos_as_xyz
  x,y,z
_cell_length_a                    32.5539
_cell_length_b                    32.5028
_cell_length_c                    31.1408
_cell_angle_alpha                 96.3334
_cell_angle_beta                  74.3994
_cell_angle_gamma                 98.4616
loop_
_atom_site_label
_atom_site_type_symbol
_atom_site_fract_x
_atom_site_fract_y
_atom_site_fract_z
_atom_site_U_iso_or_equiv
_atom_site_adp_type
_atom_site_occupancy
Br1    Br    0.28817   0.14033   0.40719   0.00000  Uiso   1.00
Br2    Br    0.05394   0.21441   0.41785   0.00000  Uiso   1.00
Br3    Br    0.03200   0.21297   0.19285   0.00000  Uiso   1.00
C4     C     0.05271   0.15953   0.26029   0.00000  Uiso   1.00
C5     C     0.17066   0.16520   0.06066   0.00000  Uiso   1.00
C6     C     0.22707   0.12192   0.05559   0.00000  Uiso   1.00
C7     C     0.28083   0.17410   0.24006   0.00000  Uiso   1.00
C8     C     0.13690   0.18895   0.42080   0.00000  Uiso   1.00
C9     C     0.32678   0.17802   0.23640   0.00000  Uiso   1.00
C10    C     0.00755   0.15754   0.26356   0.00000  Uiso   1.00
C11    C     0.18044   0.32251   0.23627   0.00000  Uiso   1.00
C12    C     0.15198   0.01180   0.26393   0.00000  Uiso   1.00
C13    C     0.15621   0.05592   0.26016   0.00000  Uiso   1.00
C14    C     0.17659   0.27794   0.24010   0.00000  Uiso   1.00
C15    C     0.07990   0.18856   0.49038   0.00000  Uiso   1.00
C16    C     0.18561   0.14824   0.12945   0.00000  Uiso   1.00
C17    C     0.14846   0.18482   0.37110   0.00000  Uiso   1.00
C18    C     0.24044   0.12514   0.00959   0.00000  Uiso   1.00
C19    C     0.19309   0.14318   0.08126   0.00000  Uiso   1.00
C20    C     0.09449   0.19649   0.44511   0.00000  Uiso   1.00
C21    C     0.10713   0.17506   0.01179   0.00000  Uiso   1.00
C22    C     0.15079   0.17317   0.49063   0.00000  Uiso   1.00
C23    C     0.16570   0.17901   0.44438   0.00000  Uiso   1.00
C24    C     0.17895   0.16145   0.01357   0.00000  Uiso   1.00
C25    C     0.21761   0.14616   0.48836   0.00000  Uiso   1.00
C26    C     0.23312   0.15383   0.44300   0.00000  Uiso   1.00
C27    C     0.20881   0.17343   0.42277   0.00000  Uiso   1.00
H28    H     0.31905   0.13783   0.28807   0.00000  Uiso   1.00
H29    H     0.20670   0.00371   0.21076   0.00000  Uiso   1.00
H30    H     0.12544   0.33138   0.28964   0.00000  Uiso   1.00
H31    H     0.26875   0.11120   0.49090   0.00000  Uiso   1.00
H32    H     0.09325   0.16485   0.04503   0.00000  Uiso   1.00
H33    H     0.22401   0.18293   0.38949   0.00000  Uiso   1.00
I34    I     0.26264   0.08882   0.08523   0.00000  Uiso   1.00
I35    I     0.13797   0.21539   0.09988   0.00000  Uiso   1.00
I36    I     0.01581   0.19367   0.02882   0.00000  Uiso   1.00
O37    O     0.16667   0.16667   0.25000   0.00000  Uiso   1.00
O38    O     0.15451   0.12637   0.15458   0.00000  Uiso   1.00
O39    O     0.12940   0.20391   0.34968   0.00000  Uiso   1.00
O40    O     0.20824   0.17759   0.14606   0.00000  Uiso   1.00
O41    O     0.17451   0.15880   0.34968   0.00000  Uiso   1.00
O42    O     0.17930   0.08019   0.28213   0.00000  Uiso   1.00
O43    O     0.14632   0.26085   0.27013   0.00000  Uiso   1.00
O44    O     0.07412   0.13291   0.23413   0.00000  Uiso   1.00
O45    O     0.26693   0.19272   0.21360   0.00000  Uiso   1.00
O46    O     0.07071   0.18878   0.28213   0.00000  Uiso   1.00
O47    O     0.25491   0.15226   0.27013   0.00000  Uiso   1.00
O48    O     0.13760   0.06944   0.23413   0.00000  Uiso   1.00
O49    O     0.20345   0.25620   0.21360   0.00000  Uiso   1.00
Zn50   Zn    0.19338   0.13994   0.28734   0.00000  Uiso   1.00
Zn51   Zn    0.13379   0.12458   0.21875   0.00000  Uiso   1.00
Zn52   Zn    0.21056   0.19775   0.20657   0.00000  Uiso   1.00
Zn53   Zn    0.12893   0.20439   0.28733   0.00000  Uiso   1.00
Br54   Br    0.62150   0.14033   0.40719   0.00000  Uiso   1.00
Br55   Br    0.38727   0.21441   0.41785   0.00000  Uiso   1.00
Br56   Br    0.36533   0.21297   0.19285   0.00000  Uiso   1.00
C57    C     0.38604   0.15953   0.26029   0.00000  Uiso   1.00
C58    C     0.50399   0.16520   0.06066   0.00000  Uiso   1.00
C59    C     0.56041   0.12192   0.05559   0.00000  Uiso   1.00
C60    C     0.61416   0.17410   0.24006   0.00000  Uiso   1.00
C61    C     0.47023   0.18895   0.42080   0.00000  Uiso   1.00
C62    C     0.66011   0.17802   0.23640   0.00000  Uiso   1.00
C63    C     0.34089   0.15754   0.26356   0.00000  Uiso   1.00
C64    C     0.51378   0.32251   0.23627   0.00000  Uiso   1.00
C65    C     0.48532   0.01180   0.26393   0.00000  Uiso   1.00
C66    C     0.48955   0.05592   0.26016   0.00000  Uiso   1.00
C67    C     0.50992   0.27794   0.24010   0.00000  Uiso   1.00
C68    C     0.41324   0.18856   0.49038   0.00000  Uiso   1.00
C69    C     0.51894   0.14824   0.12945   0.00000  Uiso   1.00
C70    C     0.48180   0.18482   0.37110   0.00000  Uiso   1.00
C71    C     0.57378   0.12514   0.00959   0.00000  Uiso   1.00
C72    C     0.52643   0.14318   0.08126   0.00000  Uiso   1.00
C73    C     0.42783   0.19649   0.44511   0.00000  Uiso   1.00
C74    C     0.44047   0.17506   0.01179   0.00000  Uiso   1.00
C75    C     0.48412   0.17317   0.49063   0.00000  Uiso   1.00
C76    C     0.49903   0.17901   0.44438   0.00000  Uiso   1.00
C77    C     0.51228   0.16145   0.01357   0.00000  Uiso   1.00
C78    C     0.55094   0.14616   0.48836   0.00000  Uiso   1.00
C79    C     0.56645   0.15383   0.44300   0.00000  Uiso   1.00
C80    C     0.54214   0.17343   0.42277   0.00000  Uiso   1.00
H81    H     0.65238   0.13783   0.28807   0.00000  Uiso   1.00
H82    H     0.54003   0.00371   0.21076   0.00000  Uiso   1.00
H83    H     0.45878   0.33138   0.28964   0.00000  Uiso   1.00
H84    H     0.60208   0.11120   0.49090   0.00000  Uiso   1.00
H85    H     0.42659   0.16485   0.04503   0.00000  Uiso   1.00
H86    H     0.55734   0.18293   0.38949   0.00000  Uiso   1.00
I87    I     0.59598   0.08882   0.08523   0.00000  Uiso   1.00
I88    I     0.47131   0.21539   0.09988   0.00000  Uiso   1.00
I89    I     0.34915   0.19367   0.02882   0.00000  Uiso   1.00
O90    O     0.50000   0.16667   0.25000   0.00000  Uiso   1.00
O91    O     0.48784   0.12637   0.15458   0.00000  Uiso   1.00
O92    O     0.46274   0.20391   0.34968   0.00000  Uiso   1.00
O93    O     0.54157   0.17759   0.14606   0.00000  Uiso   1.00
O94    O     0.50785   0.15880   0.34968   0.00000  Uiso   1.00
O95    O     0.51264   0.08019   0.28213   0.00000  Uiso   1.00
O96    O     0.47965   0.26085   0.27013   0.00000  Uiso   1.00
O97    O     0.40745   0.13291   0.23413   0.00000  Uiso   1.00
O98    O     0.60026   0.19272   0.21360   0.00000  Uiso   1.00
O99    O     0.40405   0.18878   0.28213   0.00000  Uiso   1.00
O100   O     0.58824   0.15226   0.27013   0.00000  Uiso   1.00
O101   O     0.47093   0.06944   0.23413   0.00000  Uiso   1.00
O102   O     0.53678   0.25620   0.21360   0.00000  Uiso   1.00
Zn103  Zn    0.52672   0.13994   0.28734   0.00000  Uiso   1.00
Zn104  Zn    0.46713   0.12458   0.21875   0.00000  Uiso   1.00
Zn105  Zn    0.54389   0.19775   0.20657   0.00000  Uiso   1.00
Zn106  Zn    0.46226   0.20439   0.28733   0.00000  Uiso   1.00
Br107  Br    0.95484   0.14033   0.40719   0.00000  Uiso   1.00
Br108  Br    0.72061   0.21441   0.41785   0.00000  Uiso   1.00
Br109  Br    0.69866   0.21297   0.19285   0.00000  Uiso   1.00
C110   C     0.71938   0.15953   0.26029   0.00000  Uiso   1.00
C111   C     0.83732   0.16520   0.06066   0.00000  Uiso   1.00
C112   C     0.89374   0.12192   0.05559   0.00000  Uiso   1.00
C113   C     0.94750   0.17410   0.24006   0.00000  Uiso   1.00
C114   C     0.80357   0.18895   0.42080   0.00000  Uiso   1.00
C115   C     0.99344   0.17802   0.23640   0.00000  Uiso   1.00
C116   C     0.67422   0.15754   0.26356   0.00000  Uiso   1.00
C117   C     0.84711   0.32251   0.23627   0.00000  Uiso   1.00
C118   C     0.81865   0.01180   0.26393   0.00000  Uiso   1.00
C119   C     0.82288   0.05592   0.26016   0.00000  Uiso   1.00
C120   C     0.84326   0.27794   0.24010   0.00000  Uiso   1.00
C121   C     0.74657   0.18856   0.49038   0.00000  Uiso   1.00
C122   C     0.85227   0.14824   0.12945   0.00000  Uiso   1.00
C123   C     0.81513   0.18482   0.37110   0.00000  Uiso   1.00
C124   C     0.90711   0.12514   0.00959   0.00000  Uiso   1.00
C125   C     0.85976   0.14318   0.08126   0.00000  Uiso   1.00
C126   C     0.76116   0.19649   0.44511   0.00000  Uiso   1.00
C127   C     0.77380   0.17506   0.01179   0.00000  Uiso   1.00
C128   C     0.81746   0.17317   0.49063   0.00000  Uiso   1.00
C129   C     0.83237   0.17901   0.44438   0.00000  Uiso   1.00
C130   C     0.84562   0.16145   0.01357   0.00000  Uiso   1.00
C131   C     0.88427   0.14616   0.48836   0.00000  Uiso   1.00
C132   C     0.89979   0.15383   0.44300   0.00000  Uiso   1.00
C133   C     0.87548   0.17343   0.42277   0.00000  Uiso   1.00
H134   H     0.98571   0.13783   0.28807   0.00000  Uiso   1.00
H135   H     0.87337   0.00371   0.21076   0.00000  Uiso   1.00
H136   H     0.79211   0.33138   0.28964   0.00000  Uiso   1.00
H137   H     0.93541   0.11120   0.49090   0.00000  Uiso   1.00
H138   H     0.75992   0.16485   0.04503   0.00000  Uiso   1.00
H139   H     0.89068   0.18293   0.38949   0.00000  Uiso   1.00
I140   I     0.92931   0.08882   0.08523   0.00000  Uiso   1.00
I141   I     0.80464   0.21539   0.09988   0.00000  Uiso   1.00
I142   I     0.68248   0.19367   0.02882   0.00000  Uiso   1.00
O143   O     0.83333   0.16667   0.25000   0.00000  Uiso   1.00
O144   O     0.82118   0.12637   0.15458   0.00000  Uiso   1.00
O145   O     0.79607   0.20391   0.34968   0.00000  Uiso   1.00
O146   O     0.87491   0.17759   0.14606   0.00000  Uiso   1.00
O147   O     0.84118   0.15880   0.34968   0.00000  Uiso   1.00
O148   O     0.84597   0.08019   0.28213   0.00000  Uiso   1.00
O149   O     0.81298   0.26085   0.27013   0.00000  Uiso   1.00
O150   O     0.74078   0.13291   0.23413   0.00000  Uiso   1.00
O151   O     0.93360   0.19272   0.21360   0.00000  Uiso   1.00
O152   O     0.73738   0.18878   0.28213   0.00000  Uiso   1.00
O153   O     0.92158   0.15226   0.27013   0.00000  Uiso   1.00
O154   O     0.80426   0.06944   0.23413   0.00000  Uiso   1.00
O155   O     0.87012   0.25620   0.21360   0.00000  Uiso   1.00
Zn156  Zn    0.86005   0.13994   0.28734   0.00000  Uiso   1.00
Zn157  Zn    0.80046   0.12458   0.21875   0.00000  Uiso   1.00
Zn158  Zn    0.87723   0.19775   0.20657   0.00000  Uiso   1.00
Zn159  Zn    0.79560   0.20439   0.28733   0.00000  Uiso   1.00
Br160  Br    0.28817   0.47366   0.40719   0.00000  Uiso   1.00
Br161  Br    0.05394   0.54774   0.41785   0.00000  Uiso   1.00
Br162  Br    0.03200   0.54631   0.19285   0.00000  Uiso   1.00
C163   C     0.05271   0.49286   0.26029   0.00000  Uiso   1.00
C164   C     0.17066   0.49853   0.06066   0.00000  Uiso   1.00
C165   C     0.22707   0.45525   0.05559   0.00000  Uiso   1.00
C166   C     0.28083   0.50743   0.24006   0.00000  Uiso   1.00
C167   C     0.13690   0.52228   0.42080   0.00000  Uiso   1.00
C168   C     0.32678   0.51135   0.23640   0.00000  Uiso   1.00
C169   C     0.00755   0.49087   0.26356   0.00000  Uiso   1.00
C170   C     0.18044   0.65584   0.23627   0.00000  Uiso   1.00
C171   C     0.15198   0.34513   0.26393   0.00000  Uiso   1.00
C172   C     0.15621   0.38925   0.26016   0.00000  Uiso   1.00
C173   C     0.17659   0.61128   0.24010   0.00000  Uiso   1.00
C174   C     0.07990   0.52190   0.49038   0.00000  Uiso   1.00
C175   C     0.18561   0.48157   0.12945   0.00000  Uiso   1.00
C176   C     0.14846   0.51815   0.37110   0.00000  Uiso   1.00
C177   C     0.24044   0.45847   0.00959   0.00000  Uiso   1.00
C178   C     0.19309   0.47651   0.08126   0.00000  Uiso   1.00
C179   C     0.09449   0.52983   0.44511   0.00000  Uiso   1.00
C180   C     0.10713   0.50839   0.01179   0.00000  Uiso   1.00
C181   C     0.15079   0.50650   0.49063   0.00000  Uiso   1.00
C182   C     0.16570   0.51234   0.44438   0.00000  Uiso   1.00
C183   C     0.17895   0.49478   0.01357   0.00000  Uiso   1.00
C184   C     0.21761   0.47950   0.48836   0.00000  Uiso   1.00
C185   C     0.23312   0.48717   0.44300   0.00000  Uiso   1.00
C186   C     0.20881   0.50676   0.42277   0.00000  Uiso   1.00
H187   H     0.31905   0.47117   0.28807   0.00000  Uiso   1.00
H188   H     0.20670   0.33704   0.21076   0.00000  Uiso   1.00
H189   H     0.12544   0.66472   0.28964   0.00000  Uiso   1.00
H190   H     0.26875   0.44454   0.49090   0.00000  Uiso   1.00
H191   H     0.09325   0.49818   0.04503   0.00000  Uiso   1.00
H192   H     0.22401   0.51626   0.38949   0.00000  Uiso   1.00
I193   I     0.26264   0.42216   0.08523   0.00000  Uiso   1.00
I194   I     0.13797   0.54872   0.09988   0.00000  Uiso   1.00
I195   I     0.01581   0.52701   0.02882   0.00000  Uiso   1.00
O196   O     0.16667   0.50000   0.25000   0.00000  Uiso   1.00
O197   O     0.15451   0.45970   0.15458   0.00000  Uiso   1.00
O198   O     0.12940   0.53724   0.34968   0.00000  Uiso   1.00
O199   O     0.20824   0.51092   0.14606   0.00000  Uiso   1.00
O200   O     0.17451   0.49213   0.34968   0.00000  Uiso   1.00
O201   O     0.17930   0.41352   0.28213   0.00000  Uiso   1.00
O202   O     0.14632   0.59418   0.27013   0.00000  Uiso   1.00
O203   O     0.07412   0.46625   0.23413   0.00000  Uiso   1.00
O204   O     0.26693   0.52605   0.21360   0.00000  Uiso   1.00
O205   O     0.07071   0.52211   0.28213   0.00000  Uiso   1.00
O206   O     0.25491   0.48559   0.27013   0.00000  Uiso   1.00
O207   O     0.13760   0.40277   0.23413   0.00000  Uiso   1.00
O208   O     0.20345   0.58953   0.21360   0.00000  Uiso   1.00
Zn209  Zn    0.19338   0.47327   0.28734   0.00000  Uiso   1.00
Zn210  Zn    0.13379   0.45791   0.21875   0.00000  Uiso   1.00
Zn211  Zn    0.21056   0.53109   0.20657   0.00000  Uiso   1.00
Zn212  Zn    0.12893   0.53773   0.28733   0.00000  Uiso   1.00
Br213  Br    0.62150   0.47366   0.40719   0.00000  Uiso   1.00
Br214  Br    0.38727   0.54774   0.41785   0.00000  Uiso   1.00
Br215  Br    0.36533   0.54631   0.19285   0.00000  Uiso   1.00
C216   C     0.38604   0.49286   0.26029   0.00000  Uiso   1.00
C217   C     0.50399   0.49853   0.06066   0.00000  Uiso   1.00
C218   C     0.56041   0.45525   0.05559   0.00000  Uiso   1.00
C219   C     0.61416   0.50743   0.24006   0.00000  Uiso   1.00
C220   C     0.47023   0.52228   0.42080   0.00000  Uiso   1.00
C221   C     0.66011   0.51135   0.23640   0.00000  Uiso   1.00
C222   C     0.34089   0.49087   0.26356   0.00000  Uiso   1.00
C223   C     0.51378   0.65584   0.23627   0.00000  Uiso   1.00
C224   C     0.48532   0.34513   0.26393   0.00000  Uiso   1.00
C225   C     0.48955   0.38925   0.26016   0.00000  Uiso   1.00
C226   C     0.50992   0.61128   0.24010   0.00000  Uiso   1.00
C227   C     0.41324   0.52190   0.49038   0.00000  Uiso   1.00
C228   C     0.51894   0.48157   0.12945   0.00000  Uiso   1.00
C229   C     0.48180   0.51815   0.37110   0.00000  Uiso   1.00
C230   C     0.57378   0.45847   0.00959   0.00000  Uiso   1.00
C231   C     0.52643   0.47651   0.08126   0.00000  Uiso   1.00
C232   C     0.42783   0.52983   0.44511   0.00000  Uiso   1.00
C233   C     0.44047   0.50839   0.01179   0.00000  Uiso   1.00
C234   C     0.48412   0.50650   0.49063   0.00000  Uiso   1.00
C235   C     0.49903   0.51234   0.44438   0.00000  Uiso   1.00
C236   C     0.51228   0.49478   0.01357   0.00000  Uiso   1.00
C237   C     0.55094   0.47950   0.48836   0.00000  Uiso   1.00
C238   C     0.56645   0.48717   0.44300   0.00000  Uiso   1.00
C239   C     0.54214   0.50676   0.42277   0.00000  Uiso   1.00
H240   H     0.65238   0.47117   0.28807   0.00000  Uiso   1.00
H241   H     0.54003   0.33704   0.21076   0.00000  Uiso   1.00
H242   H     0.45878   0.66472   0.28964   0.00000  Uiso   1.00
H243   H     0.60208   0.44454   0.49090   0.00000  Uiso   1.00
H244   H     0.42659   0.49818   0.04503   0.00000  Uiso   1.00
H245   H     0.55734   0.51626   0.38949   0.00000  Uiso   1.00
I246   I     0.59598   0.42216   0.08523   0.00000  Uiso   1.00
I247   I     0.47131   0.54872   0.09988   0.00000  Uiso   1.00
I248   I     0.34915   0.52701   0.02882   0.00000  Uiso   1.00
O249   O     0.50000   0.50000   0.25000   0.00000  Uiso   1.00
O250   O     0.48784   0.45970   0.15458   0.00000  Uiso   1.00
O251   O     0.46274   0.53724   0.34968   0.00000  Uiso   1.00
O252   O     0.54157   0.51092   0.14606   0.00000  Uiso   1.00
O253   O     0.50785   0.49213   0.34968   0.00000  Uiso   1.00
O254   O     0.51264   0.41352   0.28213   0.00000  Uiso   1.00
O255   O     0.47965   0.59418   0.27013   0.00000  Uiso   1.00
O256   O     0.40745   0.46625   0.23413   0.00000  Uiso   1.00
O257   O     0.60026   0.52605   0.21360   0.00000  Uiso   1.00
O258   O     0.40405   0.52211   0.28213   0.00000  Uiso   1.00
O259   O     0.58824   0.48559   0.27013   0.00000  Uiso   1.00
O260   O     0.47093   0.40277   0.23413   0.00000  Uiso   1.00
O261   O     0.53678   0.58953   0.21360   0.00000  Uiso   1.00
Zn262  Zn    0.52672   0.47327   0.28734   0.00000  Uiso   1.00
Zn263  Zn    0.46713   0.45791   0.21875   0.00000  Uiso   1.00
Zn264  Zn    0.54389   0.53109   0.20657   0.00000  Uiso   1.00
Zn265  Zn    0.46226   0.53773   0.28733   0.00000  Uiso   1.00
Br266  Br    0.95484   0.47366   0.40719   0.00000  Uiso   1.00
Br267  Br    0.72061   0.54774   0.41785   0.00000  Uiso   1.00
Br268  Br    0.69866   0.54631   0.19285   0.00000  Uiso   1.00
C269   C     0.71938   0.49286   0.26029   0.00000  Uiso   1.00
C270   C     0.83732   0.49853   0.06066   0.00000  Uiso   1.00
C271   C     0.89374   0.45525   0.05559   0.00000  Uiso   1.00
C272   C     0.94750   0.50743   0.24006   0.00000  Uiso   1.00
C273   C     0.80357   0.52228   0.42080   0.00000  Uiso   1.00
C274   C     0.99344   0.51135   0.23640   0.00000  Uiso   1.00
C275   C     0.67422   0.49087   0.26356   0.00000  Uiso   1.00
C276   C     0.84711   0.65584   0.23627   0.00000  Uiso   1.00
C277   C     0.81865   0.34513   0.26393   0.00000  Uiso   1.00
C278   C     0.82288   0.38925   0.26016   0.00000  Uiso   1.00
C279   C     0.84326   0.61128   0.24010   0.00000  Uiso   1.00
C280   C     0.74657   0.52190   0.49038   0.00000  Uiso   1.00
C281   C     0.85227   0.48157   0.12945   0.00000  Uiso   1.00
C282   C     0.81513   0.51815   0.37110   0.00000  Uiso   1.00
C283   C     0.90711   0.45847   0.00959   0.00000  Uiso   1.00
C284   C     0.85976   0.47651   0.08126   0.00000  Uiso   1.00
C285   C     0.76116   0.52983   0.44511   0.00000  Uiso   1.00
C286   C     0.77380   0.50839   0.01179   0.00000  Uiso   1.00
C287   C     0.81746   0.50650   0.49063   0.00000  Uiso   1.00
C288   C     0.83237   0.51234   0.44438   0.00000  Uiso   1.00
C289   C     0.84562   0.49478   0.01357   0.00000  Uiso   1.00
C290   C     0.88427   0.47950   0.48836   0.00000  Uiso   1.00
C291   C     0.89979   0.48717   0.44300   0.00000  Uiso   1.00
C292   C     0.87548   0.50676   0.42277   0.00000  Uiso   1.00
H293   H     0.98571   0.47117   0.28807   0.00000  Uiso   1.00
H294   H     0.87337   0.33704   0.21076   0.00000  Uiso   1.00
H295   H     0.79211   0.66472   0.28964   0.00000  Uiso   1.00
H296   H     0.93541   0.44454   0.49090   0.00000  Uiso   1.00
H297   H     0.75992   0.49818   0.04503   0.00000  Uiso   1.00
H298   H     0.89068   0.51626   0.38949   0.00000  Uiso   1.00
I299   I     0.92931   0.42216   0.08523   0.00000  Uiso   1.00
I300   I     0.80464   0.54872   0.09988   0.00000  Uiso   1.00
I301   I     0.68248   0.52701   0.02882   0.00000  Uiso   1.00
O302   O     0.83333   0.50000   0.25000   0.00000  Uiso   1.00
O303   O     0.82118   0.45970   0.15458   0.00000  Uiso   1.00
O304   O     0.79607   0.53724   0.34968   0.00000  Uiso   1.00
O305   O     0.87491   0.51092   0.14606   0.00000  Uiso   1.00
O306   O     0.84118   0.49213   0.34968   0.00000  Uiso   1.00
O307   O     0.84597   0.41352   0.28213   0.00000  Uiso   1.00
O308   O     0.81298   0.59418   0.27013   0.00000  Uiso   1.00
O309   O     0.74078   0.46625   0.23413   0.00000  Uiso   1.00
O310   O     0.93360   0.52605   0.21360   0.00000  Uiso   1.00
O311   O     0.73738   0.52211   0.28213   0.00000  Uiso   1.00
O312   O     0.92158   0.48559   0.27013   0.00000  Uiso   1.00
O313   O     0.80426   0.40277   0.23413   0.00000  Uiso   1.00
O314   O     0.87012   0.58953   0.21360   0.00000  Uiso   1.00
Zn315  Zn    0.86005   0.47327   0.28734   0.00000  Uiso   1.00
Zn316  Zn    0.80046   0.45791   0.21875   0.00000  Uiso   1.00
Zn317  Zn    0.87723   0.53109   0.20657   0.00000  Uiso   1.00
Zn318  Zn    0.79560   0.53773   0.28733   0.00000  Uiso   1.00
Br319  Br    0.28817   0.80700   0.40719   0.00000  Uiso   1.00
Br320  Br    0.05394   0.88107   0.41785   0.00000  Uiso   1.00
Br321  Br    0.03200   0.87964   0.19285   0.00000  Uiso   1.00
C322   C     0.05271   0.82619   0.26029   0.00000  Uiso   1.00
C323   C     0.17066   0.83187   0.06066   0.00000  Uiso   1.00
C324   C     0.22707   0.78859   0.05559   0.00000  Uiso   1.00
C325   C     0.28083   0.84077   0.24006   0.00000  Uiso   1.00
C326   C     0.13690   0.85562   0.42080   0.00000  Uiso   1.00
C327   C     0.32678   0.84469   0.23640   0.00000  Uiso   1.00
C328   C     0.00755   0.82420   0.26356   0.00000  Uiso   1.00
C329   C     0.18044   0.98918   0.23627   0.00000  Uiso   1.00
C330   C     0.15198   0.67846   0.26393   0.00000  Uiso   1.00
C331   C     0.15621   0.72258   0.26016   0.00000  Uiso   1.00
C332   C     0.17659   0.94461   0.24010   0.00000  Uiso   1.00
C333   C     0.07990   0.85523   0.49038   0.00000  Uiso   1.00
C334   C     0.18561   0.81491   0.12945   0.00000  Uiso   1.00
C335   C     0.14846   0.85149   0.37110   0.00000  Uiso   1.00
C336   C     0.24044   0.79181   0.00959   0.00000  Uiso   1.00
C337   C     0.19309   0.80984   0.08126   0.00000  Uiso   1.00
C338   C     0.09449   0.86316   0.44511   0.00000  Uiso   1.00
C339   C     0.10713   0.84172   0.01179   0.00000  Uiso   1.00
C340   C     0.15079   0.83983   0.49063   0.00000  Uiso   1.00
C341   C     0.16570   0.84568   0.44438   0.00000  Uiso   1.00
C342   C     0.17895   0.82812   0.01357   0.00000  Uiso   1.00
C343   C     0.21761   0.81283   0.48836   0.00000  Uiso   1.00
C344   C     0.23312   0.82050   0.44300   0.00000  Uiso   1.00
C345   C     0.20881   0.84009   0.42277   0.00000  Uiso   1.00
H346   H     0.31905   0.80450   0.28807   0.00000  Uiso   1.00
H347   H     0.20670   0.67037   0.21076   0.00000  Uiso   1.00
H348   H     0.12544   0.99805   0.28964   0.00000  Uiso   1.00
H349   H     0.26875   0.77787   0.49090   0.00000  Uiso   1.00
H350   H     0.09325   0.83152   0.04503   0.00000  Uiso   1.00
H351   H     0.22401   0.84959   0.38949   0.00000  Uiso   1.00
I352   I     0.26264   0.75549   0.08523   0.00000  Uiso   1.00
I353   I     0.13797   0.88206   0.09988   0.00000  Uiso   1.00
I354   I     0.01581   0.86034   0.02882   0.00000  Uiso   1.00
O355   O     0.16667   0.83333   0.25000   0.00000  Uiso   1.00
O356   O     0.15451   0.79304   0.15458   0.00000  Uiso   1.00
O357   O     0.12940   0.87058   0.34968   0.00000  Uiso   1.00
O358   O     0.20824   0.84425   0.14606   0.00000  Uiso   1.00
O359   O     0.17451   0.82546   0.34968   0.00000  Uiso   1.00
O360   O     0.17930   0.74686   0.28213   0.00000  Uiso   1.00
O361   O     0.14632   0.92751   0.27013   0.00000  Uiso   1.00
O362   O     0.07412   0.79958   0.23413   0.00000  Uiso   1.00
O363   O     0.26693   0.85939   0.21360   0.00000  Uiso   1.00
O364   O     0.07071   0.85544   0.28213   0.00000  Uiso   1.00
O365   O     0.25491   0.81892   0.27013   0.00000  Uiso   1.00
O366   O     0.13760   0.73610   0.23413   0.00000  Uiso   1.00
O367   O     0.20345   0.92286   0.21360   0.00000  Uiso   1.00
Zn368  Zn    0.19338   0.80661   0.28734   0.00000  Uiso   1.00
Zn369  Zn    0.13379   0.79124   0.21875   0.00000  Uiso   1.00
Zn370  Zn    0.21056   0.86442   0.20657   0.00000  Uiso   1.00
Zn371  Zn    0.12893   0.87106   0.28733   0.00000  Uiso   1.00
Br372  Br    0.62150   0.80700   0.40719   0.00000  Uiso   1.00
Br373  Br    0.38727   0.88107   0.41785   0.00000  Uiso   1.00
Br374  Br    0.36533   0.87964   0.19285   0.00000  Uiso   1.00
C375   C     0.38604   0.82619   0.26029   0.00000  Uiso   1.00
C376   C     0.50399   0.83187   0.06066   0.00000  Uiso   1.00
C377   C     0.56041   0.78859   0.05559   0.00000  Uiso   1.00
C378   C     0.61416   0.84077   0.24006   0.00000  Uiso   1.00
C379   C     0.47023   0.85562   0.42080   0.00000  Uiso   1.00
C380   C     0.66011   0.84469   0.23640   0.00000  Uiso   1.00
C381   C     0.34089   0.82420   0.26356   0.00000  Uiso   1.00
C382   C     0.51378   0.98918   0.23627   0.00000  Uiso   1.00
C383   C     0.48532   0.67846   0.26393   0.00000  Uiso   1.00
C384   C     0.48955   0.72258   0.26016   0.00000  Uiso   1.00
C385   C     0.50992   0.94461   0.24010   0.00000  Uiso   1.00
C386   C     0.41324   0.85523   0.49038   0.00000  Uiso   1.00
C387   C     0.51894   0.81491   0.12945   0.00000  Uiso   1.00
C388   C     0.48180   0.85149   0.37110   0.00000  Uiso   1.00
C389   C     0.57378   0.79181   0.00959   0.00000  Uiso   1.00
C390   C     0.52643   0.80984   0.08126   0.00000  Uiso   1.00
C391   C     0.42783   0.86316   0.44511   0.00000  Uiso   1.00
C392   C     0.44047   0.84172   0.01179   0.00000  Uiso   1.00
C393   C     0.48412   0.83983   0.49063   0.00000  Uiso   1.00
C394   C     0.49903   0.84568   0.44438   0.00000  Uiso   1.00
C395   C     0.51228   0.82812   0.01357   0.00000  Uiso   1.00
C396   C     0.55094   0.81283   0.48836   0.00000  Uiso   1.00
C397   C     0.56645   0.82050   0.44300   0.00000  Uiso   1.00
C398   C     0.54214   0.84009   0.42277   0.00000  Uiso   1.00
H399   H     0.65238   0.80450   0.28807   0.00000  Uiso   1.00
H400   H     0.54003   0.67037   0.21076   0.00000  Uiso   1.00
H401   H     0.45878   0.99805   0.28964   0.00000  Uiso   1.00
H402   H     0.60208   0.77787   0.49090   0.00000  Uiso   1.00
H403   H     0.42659   0.83152   0.04503   0.00000  Uiso   1.00
H404   H     0.55734   0.84959   0.38949   0.00000  Uiso   1.00
I405   I     0.59598   0.75549   0.08523   0.00000  Uiso   1.00
I406   I     0.47131   0.88206   0.09988   0.00000  Uiso   1.00
I407   I     0.34915   0.86034   0.02882   0.00000  Uiso   1.00
O408   O     0.50000   0.83333   0.25000   0.00000  Uiso   1.00
O409   O     0.48784   0.79304   0.15458   0.00000  Uiso   1.00
O410   O     0.46274   0.87058   0.34968   0.00000  Uiso   1.00
O411   O     0.54157   0.84425   0.14606   0.00000  Uiso   1.00
O412   O     0.50785   0.82546   0.34968   0.00000  Uiso   1.00
O413   O     0.51264   0.74686   0.28213   0.00000  Uiso   1.00
O414   O     0.47965   0.92751   0.27013   0.00000  Uiso   1.00
O415   O     0.40745   0.79958   0.23413   0.00000  Uiso   1.00
O416   O     0.60026   0.85939   0.21360   0.00000  Uiso   1.00
O417   O     0.40405   0.85544   0.28213   0.00000  Uiso   1.00
O418   O     0.58824   0.81892   0.27013   0.00000  Uiso   1.00
O419   O     0.47093   0.73610   0.23413   0.00000  Uiso   1.00
O420   O     0.53678   0.92286   0.21360   0.00000  Uiso   1.00
Zn421  Zn    0.52672   0.80661   0.28734   0.00000  Uiso   1.00
Zn422  Zn    0.46713   0.79124   0.21875   0.00000  Uiso   1.00
Zn423  Zn    0.54389   0.86442   0.20657   0.00000  Uiso   1.00
Zn424  Zn    0.46226   0.87106   0.28733   0.00000  Uiso   1.00
Br425  Br    0.95484   0.80700   0.40719   0.00000  Uiso   1.00
Br426  Br    0.72061   0.88107   0.41785   0.00000  Uiso   1.00
Br427  Br    0.69866   0.87964   0.19285   0.00000  Uiso   1.00
C428   C     0.71938   0.82619   0.26029   0.00000  Uiso   1.00
C429   C     0.83732   0.83187   0.06066   0.00000  Uiso   1.00
C430   C     0.89374   0.78859   0.05559   0.00000  Uiso   1.00
C431   C     0.94750   0.84077   0.24006   0.00000  Uiso   1.00
C432   C     0.80357   0.85562   0.42080   0.00000  Uiso   1.00
C433   C     0.99344   0.84469   0.23640   0.00000  Uiso   1.00
C434   C     0.67422   0.82420   0.26356   0.00000  Uiso   1.00
C435   C     0.84711   0.98918   0.23627   0.00000  Uiso   1.00
C436   C     0.81865   0.67846   0.26393   0.00000  Uiso   1.00
C437   C     0.82288   0.72258   0.26016   0.00000  Uiso   1.00
C438   C     0.84326   0.94461   0.24010   0.00000  Uiso   1.00
C439   C     0.74657   0.85523   0.49038   0.00000  Uiso   1.00
C440   C     0.85227   0.81491   0.12945   0.00000  Uiso   1.00
C441   C     0.81513   0.85149   0.37110   0.00000  Uiso   1.00
C442   C     0.90711   0.79181   0.00959   0.00000  Uiso   1.00
C443   C     0.85976   0.80984   0.08126   0.00000  Uiso   1.00
C444   C     0.76116   0.86316   0.44511   0.00000  Uiso   1.00
C445   C     0.77380   0.84172   0.01179   0.00000  Uiso   1.00
C446   C     0.81746   0.83983   0.49063   0.00000  Uiso   1.00
C447   C     0.83237   0.84568   0.44438   0.00000  Uiso   1.00
C448   C     0.84562   0.82812   0.01357   0.00000  Uiso   1.00
C449   C     0.88427   0.81283   0.48836   0.00000  Uiso   1.00
C450   C     0.89979   0.82050   0.44300   0.00000  Uiso   1.00
C451   C     0.87548   0.84009   0.42277   0.00000  Uiso   1.00
H452   H     0.98571   0.80450   0.28807   0.00000  Uiso   1.00
H453   H     0.87337   0.67037   0.21076   0.00000  Uiso   1.00
H454   H     0.79211   0.99805   0.28964   0.00000  Uiso   1.00
H455   H     0.93541   0.77787   0.49090   0.00000  Uiso   1.00
H456   H     0.75992   0.83152   0.04503   0.00000  Uiso   1.00
H457   H     0.89068   0.84959   0.38949   0.00000  Uiso   1.00
I458   I     0.92931   0.75549   0.08523   0.00000  Uiso   1.00
I459   I     0.80464   0.88206   0.09988   0.00000  Uiso   1.00
I460   I     0.68248   0.86034   0.02882   0.00000  Uiso   1.00
O461   O     0.83333   0.83333   0.25000   0.00000  Uiso   1.00
O462   O     0.82118   0.79304   0.15458   0.00000  Uiso   1.00
O463   O     0.79607   0.87058   0.34968   0.00000  Uiso   1.00
O464   O     0.87491   0.84425   0.14606   0.00000  Uiso   1.00
O465   O     0.84118   0.82546   0.34968   0.00000  Uiso   1.00
O466   O     0.84597   0.74686   0.28213   0.00000  Uiso   1.00
O467   O     0.81298   0.92751   0.27013   0.00000  Uiso   1.00
O468   O     0.74078   0.79958   0.23413   0.00000  Uiso   1.00
O469   O     0.93360   0.85939   0.21360   0.00000  Uiso   1.00
O470   O     0.73738   0.85544   0.28213   0.00000  Uiso   1.00
O471   O     0.92158   0.81892   0.27013   0.00000  Uiso   1.00
O472   O     0.80426   0.73610   0.23413   0.00000  Uiso   1.00
O473   O     0.87012   0.92286   0.21360   0.00000  Uiso   1.00
Zn474  Zn    0.86005   0.80661   0.28734   0.00000  Uiso   1.00
Zn475  Zn    0.80046   0.79124   0.21875   0.00000  Uiso   1.00
Zn476  Zn    0.87723   0.86442   0.20657   0.00000  Uiso   1.00
Zn477  Zn    0.79560   0.87106   0.28733   0.00000  Uiso   1.00
Br478  Br    0.28817   0.14033   0.90719   0.00000  Uiso   1.00
Br479  Br    0.05394   0.21441   0.91785   0.00000  Uiso   1.00
Br480  Br    0.03200   0.21297   0.69285   0.00000  Uiso   1.00
C481   C     0.05271   0.15953   0.76029   0.00000  Uiso   1.00
C482   C     0.17066   0.16520   0.56066   0.00000  Uiso   1.00
C483   C     0.22707   0.12192   0.55559   0.00000  Uiso   1.00
C484   C     0.28083   0.17410   0.74006   0.00000  Uiso   1.00
C485   C     0.13690   0.18895   0.92080   0.00000  Uiso   1.00
C486   C     0.32678   0.17802   0.73640   0.00000  Uiso   1.00
C487   C     0.00755   0.15754   0.76356   0.00000  Uiso   1.00
C488   C     0.18044   0.32251   0.73627   0.00000  Uiso   1.00
C489   C     0.15198   0.01180   0.76393   0.00000  Uiso   1.00
C490   C     0.15621   0.05592   0.76016   0.00000  Uiso   1.00
C491   C     0.17659   0.27794   0.74010   0.00000  Uiso   1.00
C492   C     0.07990   0.18856   0.99038   0.00000  Uiso   1.00
C493   C     0.18561   0.14824   0.62945   0.00000  Uiso   1.00
C494   C     0.14846   0.18482   0.87110   0.00000  Uiso   1.00
C495   C     0.24044   0.12514   0.50959   0.00000  Uiso   1.00
C496   C     0.19309   0.14318   0.58126   0.00000  Uiso   1.00
C497   C     0.09449   0.19649   0.94511   0.00000  Uiso   1.00
C498   C     0.10713   0.17506   0.51179   0.00000  Uiso   1.00
C499   C     0.15079   0.17317   0.99063   0.00000  Uiso   1.00
C500   C     0.16570   0.17901   0.94438   0.00000  Uiso   1.00
C501   C     0.17895   0.16145   0.51357   0.00000  Uiso   1.00
C502   C     0.21761   0.14616   0.98836   0.00000  Uiso   1.00
C503   C     0.23312   0.15383   0.94300   0.00000  Uiso   1.00
C504   C     0.20881   0.17343   0.92277   0.00000  Uiso   1.00
H505   H     0.31905   0.13783   0.78807   0.00000  Uiso   1.00
H506   H     0.20670   0.00371   0.71076   0.00000  Uiso   1.00
H507   H     0.12544   0.33138   0.78964   0.00000  Uiso   1.00
H508   H     0.26875   0.11120   0.99090   0.00000  Uiso   1.00
H509   H     0.09325   0.16485   0.54503   0.00000  Uiso   1.00
H510   H     0.22401   0.18293   0.88949   0.00000  Uiso   1.00
I511   I     0.26264   0.08882   0.58523   0.00000  Uiso   1.00
I512   I     0.13797   0.21539   0.59988   0.00000  Uiso   1.00
I513   I     0.01581   0.19367   0.52882   0.00000  Uiso   1.00
O514   O     0.16667   0.16667   0.75000   0.00000  Uiso   1.00
O515   O     0.15451   0.12637   0.65458   0.00000  Uiso   1.00
O516   O     0.12940   0.20391   0.84968   0.00000  Uiso   1.00
O517   O     0.20824   0.17759   0.64606   0.00000  Uiso   1.00
O518   O     0.17451   0.15880   0.84968   0.00000  Uiso   1.00
O519   O     0.17930   0.08019   0.78213   0.00000  Uiso   1.00
O520   O     0.14632   0.26085   0.77013   0.00000  Uiso   1.00
O521   O     0.07412   0.13291   0.73413   0.00000  Uiso   1.00
O522   O     0.26693   0.19272   0.71360   0.00000  Uiso   1.00
O523   O     0.07071   0.18878   0.78213   0.00000  Uiso   1.00
O524   O     0.25491   0.15226   0.77013   0.00000  Uiso   1.00
O525   O     0.13760   0.06944   0.73413   0.00000  Uiso   1.00
O526   O     0.20345   0.25620   0.71360   0.00000  Uiso   1.00
Zn527  Zn    0.19338   0.13994   0.78734   0.00000  Uiso   1.00
Zn528  Zn    0.13379   0.12458   0.71875   0.00000  Uiso   1.00
Zn529  Zn    0.21056   0.19775   0.70657   0.00000  Uiso   1.00
Zn530  Zn    0.12893   0.20439   0.78733   0.00000  Uiso   1.00
Br531  Br    0.62150   0.14033   0.90719   0.00000  Uiso   1.00
Br532  Br    0.38727   0.21441   0.91785   0.00000  Uiso   1.00
Br533  Br    0.36533   0.21297   0.69285   0.00000  Uiso   1.00
C534   C     0.38604   0.15953   0.76029   0.00000  Uiso   1.00
C535   C     0.50399   0.16520   0.56066   0.00000  Uiso   1.00
C536   C     0.56041   0.12192   0.55559   0.00000  Uiso   1.00
C537   C     0.61416   0.17410   0.74006   0.00000  Uiso   1.00
C538   C     0.47023   0.18895   0.92080   0.00000  Uiso   1.00
C539   C     0.66011   0.17802   0.73640   0.00000  Uiso   1.00
C540   C     0.34089   0.15754   0.76356   0.00000  Uiso   1.00
C541   C     0.51378   0.32251   0.73627   0.00000  Uiso   1.00
C542   C     0.48532   0.01180   0.76393   0.00000  Uiso   1.00
C543   C     0.48955   0.05592   0.76016   0.00000  Uiso   1.00
C544   C     0.50992   0.27794   0.74010   0.00000  Uiso   1.00
C545   C     0.41324   0.18856   0.99038   0.00000  Uiso   1.00
C546   C     0.51894   0.14824   0.62945   0.00000  Uiso   1.00
C547   C     0.48180   0.18482   0.87110   0.00000  Uiso   1.00
C548   C     0.57378   0.12514   0.50959   0.00000  Uiso   1.00
C549   C     0.52643   0.14318   0.58126   0.00000  Uiso   1.00
C550   C     0.42783   0.19649   0.94511   0.00000  Uiso   1.00
C551   C     0.44047   0.17506   0.51179   0.00000  Uiso   1.00
C552   C     0.48412   0.17317   0.99063   0.00000  Uiso   1.00
C553   C     0.49903   0.17901   0.94438   0.00000  Uiso   1.00
C554   C     0.51228   0.16145   0.51357   0.00000  Uiso   1.00
C555   C     0.55094   0.14616   0.98836   0.00000  Uiso   1.00
C556   C     0.56645   0.15383   0.94300   0.00000  Uiso   1.00
C557   C     0.54214   0.17343   0.92277   0.00000  Uiso   1.00
H558   H     0.65238   0.13783   0.78807   0.00000  Uiso   1.00
H559   H     0.54003   0.00371   0.71076   0.00000  Uiso   1.00
H560   H     0.45878   0.33138   0.78964   0.00000  Uiso   1.00
H561   H     0.60208   0.11120   0.99090   0.00000  Uiso   1.00
H562   H     0.42659   0.16485   0.54503   0.00000  Uiso   1.00
H563   H     0.55734   0.18293   0.88949   0.00000  Uiso   1.00
I564   I     0.59598   0.08882   0.58523   0.00000  Uiso   1.00
I565   I     0.47131   0.21539   0.59988   0.00000  Uiso   1.00
I566   I     0.34915   0.19367   0.52882   0.00000  Uiso   1.00
O567   O     0.50000   0.16667   0.75000   0.00000  Uiso   1.00
O568   O     0.48784   0.12637   0.65458   0.00000  Uiso   1.00
O569   O     0.46274   0.20391   0.84968   0.00000  Uiso   1.00
O570   O     0.54157   0.17759   0.64606   0.00000  Uiso   1.00
O571   O     0.50785   0.15880   0.84968   0.00000  Uiso   1.00
O572   O     0.51264   0.08019   0.78213   0.00000  Uiso   1.00
O573   O     0.47965   0.26085   0.77013   0.00000  Uiso   1.00
O574   O     0.40745   0.13291   0.73413   0.00000  Uiso   1.00
O575   O     0.60026   0.19272   0.71360   0.00000  Uiso   1.00
O576   O     0.40405   0.18878   0.78213   0.00000  Uiso   1.00
O577   O     0.58824   0.15226   0.77013   0.00000  Uiso   1.00
O578   O     0.47093   0.06944   0.73413   0.00000  Uiso   1.00
O579   O     0.53678   0.25620   0.71360   0.00000  Uiso   1.00
Zn580  Zn    0.52672   0.13994   0.78734   0.00000  Uiso   1.00
Zn581  Zn    0.46713   0.12458   0.71875   0.00000  Uiso   1.00
Zn582  Zn    0.54389   0.19775   0.70657   0.00000  Uiso   1.00
Zn583  Zn    0.46226   0.20439   0.78733   0.00000  Uiso   1.00
Br584  Br    0.95484   0.14033   0.90719   0.00000  Uiso   1.00
Br585  Br    0.72061   0.21441   0.91785   0.00000  Uiso   1.00
Br586  Br    0.69866   0.21297   0.69285   0.00000  Uiso   1.00
C587   C     0.71938   0.15953   0.76029   0.00000  Uiso   1.00
C588   C     0.83732   0.16520   0.56066   0.00000  Uiso   1.00
C589   C     0.89374   0.12192   0.55559   0.00000  Uiso   1.00
C590   C     0.94750   0.17410   0.74006   0.00000  Uiso   1.00
C591   C     0.80357   0.18895   0.92080   0.00000  Uiso   1.00
C592   C     0.99344   0.17802   0.73640   0.00000  Uiso   1.00
C593   C     0.67422   0.15754   0.76356   0.00000  Uiso   1.00
C594   C     0.84711   0.32251   0.73627   0.00000  Uiso   1.00
C595   C     0.81865   0.01180   0.76393   0.00000  Uiso   1.00
C596   C     0.82288   0.05592   0.76016   0.00000  Uiso   1.00
C597   C     0.84326   0.27794   0.74010   0.00000  Uiso   1.00
C598   C     0.74657   0.18856   0.99038   0.00000  Uiso   1.00
C599   C     0.85227   0.14824   0.62945   0.00000  Uiso   1.00
C600   C     0.81513   0.18482   0.87110   0.00000  Uiso   1.00
C601   C     0.90711   0.12514   0.50959   0.00000  Uiso   1.00
C602   C     0.85976   0.14318   0.58126   0.00000  Uiso   1.00
C603   C     0.76116   0.19649   0.94511   0.00000  Uiso   1.00
C604   C     0.77380   0.17506   0.51179   0.00000  Uiso   1.00
C605   C     0.81746   0.17317   0.99063   0.00000  Uiso   1.00
C606   C     0.83237   0.17901   0.94438   0.00000  Uiso   1.00
C607   C     0.84562   0.16145   0.51357   0.00000  Uiso   1.00
C608   C     0.88427   0.14616   0.98836   0.00000  Uiso   1.00
C609   C     0.89979   0.15383   0.94300   0.00000  Uiso   1.00
C610   C     0.87548   0.17343   0.92277   0.00000  Uiso   1.00
H611   H     0.98571   0.13783   0.78807   0.00000  Uiso   1.00
H612   H     0.87337   0.00371   0.71076   0.00000  Uiso   1.00
H613   H     0.79211   0.33138   0.78964   0.00000  Uiso   1.00
H614   H     0.93541   0.11120   0.99090   0.00000  Uiso   1.00
H615   H     0.75992   0.16485   0.54503   0.00000  Uiso   1.00
H616   H     0.89068   0.18293   0.88949   0.00000  Uiso   1.00
I617   I     0.92931   0.08882   0.58523   0.00000  Uiso   1.00
I618   I     0.80464   0.21539   0.59988   0.00000  Uiso   1.00
I619   I     0.68248   0.19367   0.52882   0.00000  Uiso   1.00
O620   O     0.83333   0.16667   0.75000   0.00000  Uiso   1.00
O621   O     0.82118   0.12637   0.65458   0.00000  Uiso   1.00
O622   O     0.79607   0.20391   0.84968   0.00000  Uiso   1.00
O623   O     0.87491   0.17759   0.64606   0.00000  Uiso   1.00
O624   O     0.84118   0.15880   0.84968   0.00000  Uiso   1.00
O625   O     0.84597   0.08019   0.78213   0.00000  Uiso   1.00
O626   O     0.81298   0.26085   0.77013   0.00000  Uiso   1.00
O627   O     0.74078   0.13291   0.73413   0.00000  Uiso   1.00
O628   O     0.93360   0.19272   0.71360   0.00000  Uiso   1.00
O629   O     0.73738   0.18878   0.78213   0.00000  Uiso   1.00
O630   O     0.92158   0.15226   0.77013   0.00000  Uiso   1.00
O631   O     0.80426   0.06944   0.73413   0.00000  Uiso   1.00
O632   O     0.87012   0.25620   0.71360   0.00000  Uiso   1.00
Zn633  Zn    0.86005   0.13994   0.78734   0.00000  Uiso   1.00
Zn634  Zn    0.80046   0.12458   0.71875   0.00000  Uiso   1.00
Zn635  Zn    0.87723   0.19775   0.70657   0.00000  Uiso   1.00
Zn636  Zn    0.79560   0.20439   0.78733   0.00000  Uiso   1.00
Br637  Br    0.28817   0.47366   0.90719   0.00000  Uiso   1.00
Br638  Br    0.05394   0.54774   0.91785   0.00000  Uiso   1.00
Br639  Br    0.03200   0.54631   0.69285   0.00000  Uiso   1.00
C640   C     0.05271   0.49286   0.76029   0.00000  Uiso   1.00
C641   C     0.17066   0.49853   0.56066   0.00000  Uiso   1.00
C642   C     0.22707   0.45525   0.55559   0.00000  Uiso   1.00
C643   C     0.28083   0.50743   0.74006   0.00000  Uiso   1.00
C644   C     0.13690   0.52228   0.92080   0.00000  Uiso   1.00
C645   C     0.32678   0.51135   0.73640   0.00000  Uiso   1.00
C646   C     0.00755   0.49087   0.76356   0.00000  Uiso   1.00
C647   C     0.18044   0.65584   0.73627   0.00000  Uiso   1.00
C648   C     0.15198   0.34513   0.76393   0.00000  Uiso   1.00
C649   C     0.15621   0.38925   0.76016   0.00000  Uiso   1.00
C650   C     0.17659   0.61128   0.74010   0.00000  Uiso   1.00
C651   C     0.07990   0.52190   0.99038   0.00000  Uiso   1.00
C652   C     0.18561   0.48157   0.62945   0.00000  Uiso   1.00
C653   C     0.14846   0.51815   0.87110   0.00000  Uiso   1.00
C654   C     0.24044   0.45847   0.50959   0.00000  Uiso   1.00
C655   C     0.19309   0.47651   0.58126   0.00000  Uiso   1.00
C656   C     0.09449   0.52983   0.94511   0.00000  Uiso   1.00
C657   C     0.10713   0.50839   0.51179   0.00000  Uiso   1.00
C658   C     0.15079   0.50650   0.99063   0.00000  Uiso   1.00
C659   C     0.16570   0.51234   0.94438   0.00000  Uiso   1.00
C660   C     0.17895   0.49478   0.51357   0.00000  Uiso   1.00
C661   C     0.21761   0.47950   0.98836   0.00000  Uiso   1.00
C662   C     0.23312   0.48717   0.94300   0.00000  Uiso   1.00
C663   C     0.20881   0.50676   0.92277   0.00000  Uiso   1.00
H664   H     0.31905   0.47117   0.78807   0.00000  Uiso   1.00
H665   H     0.20670   0.33704   0.71076   0.00000  Uiso   1.00
H666   H     0.12544   0.66472   0.78964   0.00000  Uiso   1.00
H667   H     0.26875   0.44454   0.99090   0.00000  Uiso   1.00
H668   H     0.09325   0.49818   0.54503   0.00000  Uiso   1.00
H669   H     0.22401   0.51626   0.88949   0.00000  Uiso   1.00
I670   I     0.26264   0.42216   0.58523   0.00000  Uiso   1.00
I671   I     0.13797   0.54872   0.59988   0.00000  Uiso   1.00
I672   I     0.01581   0.52701   0.52882   0.00000  Uiso   1.00
O673   O     0.16667   0.50000   0.75000   0.00000  Uiso   1.00
O674   O     0.15451   0.45970   0.65458   0.00000  Uiso   1.00
O675   O     0.12940   0.53724   0.84968   0.00000  Uiso   1.00
O676   O     0.20824   0.51092   0.64606   0.00000  Uiso   1.00
O677   O     0.17451   0.49213   0.84968   0.00000  Uiso   1.00
O678   O     0.17930   0.41352   0.78213   0.00000  Uiso   1.00
O679   O     0.14632   0.59418   0.77013   0.00000  Uiso   1.00
O680   O     0.07412   0.46625   0.73413   0.00000  Uiso   1.00
O681   O     0.26693   0.52605   0.71360   0.00000  Uiso   1.00
O682   O     0.07071   0.52211   0.78213   0.00000  Uiso   1.00
O683   O     0.25491   0.48559   0.77013   0.00000  Uiso   1.00
O684   O     0.13760   0.40277   0.73413   0.00000  Uiso   1.00
O685   O     0.20345   0.58953   0.71360   0.00000  Uiso   1.00
Zn686  Zn    0.19338   0.47327   0.78734   0.00000  Uiso   1.00
Zn687  Zn    0.13379   0.45791   0.71875   0.00000  Uiso   1.00
Zn688  Zn    0.21056   0.53109   0.70657   0.00000  Uiso   1.00
Zn689  Zn    0.12893   0.53773   0.78733   0.00000  Uiso   1.00
Br690  Br    0.62150   0.47366   0.90719   0.00000  Uiso   1.00
Br691  Br    0.38727   0.54774   0.91785   0.00000  Uiso   1.00
Br692  Br    0.36533   0.54631   0.69285   0.00000  Uiso   1.00
C693   C     0.38604   0.49286   0.76029   0.00000  Uiso   1.00
C694   C     0.50399   0.49853   0.56066   0.00000  Uiso   1.00
C695   C     0.56041   0.45525   0.55559   0.00000  Uiso   1.00
C696   C     0.61416   0.50743   0.74006   0.00000  Uiso   1.00
C697   C     0.47023   0.52228   0.92080   0.00000  Uiso   1.00
C698   C     0.66011   0.51135   0.73640   0.00000  Uiso   1.00
C699   C     0.34089   0.49087   0.76356   0.00000  Uiso   1.00
C700   C     0.51378   0.65584   0.73627   0.00000  Uiso   1.00
C701   C     0.48532   0.34513   0.76393   0.00000  Uiso   1.00
C702   C     0.48955   0.38925   0.76016   0.00000  Uiso   1.00
C703   C     0.50992   0.61128   0.74010   0.00000  Uiso   1.00
C704   C     0.41324   0.52190   0.99038   0.00000  Uiso   1.00
C705   C     0.51894   0.48157   0.62945   0.00000  Uiso   1.00
C706   C     0.48180   0.51815   0.87110   0.00000  Uiso   1.00
C707   C     0.57378   0.45847   0.50959   0.00000  Uiso   1.00
C708   C     0.52643   0.47651   0.58126   0.00000  Uiso   1.00
C709   C     0.42783   0.52983   0.94511   0.00000  Uiso   1.00
C710   C     0.44047   0.50839   0.51179   0.00000  Uiso   1.00
C711   C     0.48412   0.50650   0.99063   0.00000  Uiso   1.00
C712   C     0.49903   0.51234   0.94438   0.00000  Uiso   1.00
C713   C     0.51228   0.49478   0.51357   0.00000  Uiso   1.00
C714   C     0.55094   0.47950   0.98836   0.00000  Uiso   1.00
C715   C     0.56645   0.48717   0.94300   0.00000  Uiso   1.00
C716   C     0.54214   0.50676   0.92277   0.00000  Uiso   1.00
H717   H     0.65238   0.47117   0.78807   0.00000  Uiso   1.00
H718   H     0.54003   0.33704   0.71076   0.00000  Uiso   1.00
H719   H     0.45878   0.66472   0.78964   0.00000  Uiso   1.00
H720   H     0.60208   0.44454   0.99090   0.00000  Uiso   1.00
H721   H     0.42659   0.49818   0.54503   0.00000  Uiso   1.00
H722   H     0.55734   0.51626   0.88949   0.00000  Uiso   1.00
I723   I     0.59598   0.42216   0.58523   0.00000  Uiso   1.00
I724   I     0.47131   0.54872   0.59988   0.00000  Uiso   1.00
I725   I     0.34915   0.52701   0.52882   0.00000  Uiso   1.00
O726   O     0.50000   0.50000   0.75000   0.00000  Uiso   1.00
O727   O     0.48784   0.45970   0.65458   0.00000  Uiso   1.00
O728   O     0.46274   0.53724   0.84968   0.00000  Uiso   1.00
O729   O     0.54157   0.51092   0.64606   0.00000  Uiso   1.00
O730   O     0.50785   0.49213   0.84968   0.00000  Uiso   1.00
O731   O     0.51264   0.41352   0.78213   0.00000  Uiso   1.00
O732   O     0.47965   0.59418   0.77013   0.00000  Uiso   1.00
O733   O     0.40745   0.46625   0.73413   0.00000  Uiso   1.00
O734   O     0.60026   0.52605   0.71360   0.00000  Uiso   1.00
O735   O     0.40405   0.52211   0.78213   0.00000  Uiso   1.00
O736   O     0.58824   0.48559   0.77013   0.00000  Uiso   1.00
O737   O     0.47093   0.40277   0.73413   0.00000  Uiso   1.00
O738   O     0.53678   0.58953   0.71360   0.00000  Uiso   1.00
Zn739  Zn    0.52672   0.47327   0.78734   0.00000  Uiso   1.00
Zn740  Zn    0.46713   0.45791   0.71875   0.00000  Uiso   1.00
Zn741  Zn    0.54389   0.53109   0.70657   0.00000  Uiso   1.00
Zn742  Zn    0.46226   0.53773   0.78733   0.00000  Uiso   1.00
Br743  Br    0.95484   0.47366   0.90719   0.00000  Uiso   1.00
Br744  Br    0.72061   0.54774   0.91785   0.00000  Uiso   1.00
Br745  Br    0.69866   0.54631   0.69285   0.00000  Uiso   1.00
C746   C     0.71938   0.49286   0.76029   0.00000  Uiso   1.00
C747   C     0.83732   0.49853   0.56066   0.00000  Uiso   1.00
C748   C     0.89374   0.45525   0.55559   0.00000  Uiso   1.00
C749   C     0.94750   0.50743   0.74006   0.00000  Uiso   1.00
C750   C     0.80357   0.52228   0.92080   0.00000  Uiso   1.00
C751   C     0.99344   0.51135   0.73640   0.00000  Uiso   1.00
C752   C     0.67422   0.49087   0.76356   0.00000  Uiso   1.00
C753   C     0.84711   0.65584   0.73627   0.00000  Uiso   1.00
C754   C     0.81865   0.34513   0.76393   0.00000  Uiso   1.00
C755   C     0.82288   0.38925   0.76016   0.00000  Uiso   1.00
C756   C     0.84326   0.61128   0.74010   0.00000  Uiso   1.00
C757   C     0.74657   0.52190   0.99038   0.00000  Uiso   1.00
C758   C     0.85227   0.48157   0.62945   0.00000  Uiso   1.00
C759   C     0.81513   0.51815   0.87110   0.00000  Uiso   1.00
C760   C     0.90711   0.45847   0.50959   0.00000  Uiso   1.00
C761   C     0.85976   0.47651   0.58126   0.00000  Uiso   1.00
C762   C     0.76116   0.52983   0.94511   0.00000  Uiso   1.00
C763   C     0.77380   0.50839   0.51179   0.00000  Uiso   1.00
C764   C     0.81746   0.50650   0.99063   0.00000  Uiso   1.00
C765   C     0.83237   0.51234   0.94438   0.00000  Uiso   1.00
C766   C     0.84562   0.49478   0.51357   0.00000  Uiso   1.00
C767   C     0.88427   0.47950   0.98836   0.00000  Uiso   1.00
C768   C     0.89979   0.48717   0.94300   0.00000  Uiso   1.00
C769   C     0.87548   0.50676   0.92277   0.00000  Uiso   1.00
H770   H     0.98571   0.47117   0.78807   0.00000  Uiso   1.00
H771   H     0.87337   0.33704   0.71076   0.00000  Uiso   1.00
H772   H     0.79211   0.66472   0.78964   0.00000  Uiso   1.00
H773   H     0.93541   0.44454   0.99090   0.00000  Uiso   1.00
H774   H     0.75992   0.49818   0.54503   0.00000  Uiso   1.00
H775   H     0.89068   0.51626   0.88949   0.00000  Uiso   1.00
I776   I     0.92931   0.42216   0.58523   0.00000  Uiso   1.00
I777   I     0.80464   0.54872   0.59988   0.00000  Uiso   1.00
I778   I     0.68248   0.52701   0.52882   0.00000  Uiso   1.00
O779   O     0.83333   0.50000   0.75000   0.00000  Uiso   1.00
O780   O     0.82118   0.45970   0.65458   0.00000  Uiso   1.00
O781   O     0.79607   0.53724   0.84968   0.00000  Uiso   1.00
O782   O     0.87491   0.51092   0.64606   0.00000  Uiso   1.00
O783   O     0.84118   0.49213   0.84968   0.00000  Uiso   1.00
O784   O     0.84597   0.41352   0.78213   0.00000  Uiso   1.00
O785   O     0.81298   0.59418   0.77013   0.00000  Uiso   1.00
O786   O     0.74078   0.46625   0.73413   0.00000  Uiso   1.00
O787   O     0.93360   0.52605   0.71360   0.00000  Uiso   1.00
O788   O     0.73738   0.52211   0.78213   0.00000  Uiso   1.00
O789   O     0.92158   0.48559   0.77013   0.00000  Uiso   1.00
O790   O     0.80426   0.40277   0.73413   0.00000  Uiso   1.00
O791   O     0.87012   0.58953   0.71360   0.00000  Uiso   1.00
Zn792  Zn    0.86005   0.47327   0.78734   0.00000  Uiso   1.00
Zn793  Zn    0.80046   0.45791   0.71875   0.00000  Uiso   1.00
Zn794  Zn    0.87723   0.53109   0.70657   0.00000  Uiso   1.00
Zn795  Zn    0.79560   0.53773   0.78733   0.00000  Uiso   1.00
Br796  Br    0.28817   0.80700   0.90719   0.00000  Uiso   1.00
Br797  Br    0.05394   0.88107   0.91785   0.00000  Uiso   1.00
Br798  Br    0.03200   0.87964   0.69285   0.00000  Uiso   1.00
C799   C     0.05271   0.82619   0.76029   0.00000  Uiso   1.00
C800   C     0.17066   0.83187   0.56066   0.00000  Uiso   1.00
C801   C     0.22707   0.78859   0.55559   0.00000  Uiso   1.00
C802   C     0.28083   0.84077   0.74006   0.00000  Uiso   1.00
C803   C     0.13690   0.85562   0.92080   0.00000  Uiso   1.00
C804   C     0.32678   0.84469   0.73640   0.00000  Uiso   1.00
C805   C     0.00755   0.82420   0.76356   0.00000  Uiso   1.00
C806   C     0.18044   0.98918   0.73627   0.00000  Uiso   1.00
C807   C     0.15198   0.67846   0.76393   0.00000  Uiso   1.00
C808   C     0.15621   0.72258   0.76016   0.00000  Uiso   1.00
C809   C     0.17659   0.94461   0.74010   0.00000  Uiso   1.00
C810   C     0.07990   0.85523   0.99038   0.00000  Uiso   1.00
C811   C     0.18561   0.81491   0.62945   0.00000  Uiso   1.00
C812   C     0.14846   0.85149   0.87110   0.00000  Uiso   1.00
C813   C     0.24044   0.79181   0.50959   0.00000  Uiso   1.00
C814   C     0.19309   0.80984   0.58126   0.00000  Uiso   1.00
C815   C     0.09449   0.86316   0.94511   0.00000  Uiso   1.00
C816   C     0.10713   0.84172   0.51179   0.00000  Uiso   1.00
C817   C     0.15079   0.83983   0.99063   0.00000  Uiso   1.00
C818   C     0.16570   0.84568   0.94438   0.00000  Uiso   1.00
C819   C     0.17895   0.82812   0.51357   0.00000  Uiso   1.00
C820   C     0.21761   0.81283   0.98836   0.00000  Uiso   1.00
C821   C     0.23312   0.82050   0.94300   0.00000  Uiso   1.00
C822   C     0.20881   0.84009   0.92277   0.00000  Uiso   1.00
H823   H     0.31905   0.80450   0.78807   0.00000  Uiso   1.00
H824   H     0.20670   0.67037   0.71076   0.00000  Uiso   1.00
H825   H     0.12544   0.99805   0.78964   0.00000  Uiso   1.00
H826   H     0.26875   0.77787   0.99090   0.00000  Uiso   1.00
H827   H     0.09325   0.83152   0.54503   0.00000  Uiso   1.00
H828   H     0.22401   0.84959   0.88949   0.00000  Uiso   1.00
I829   I     0.26264   0.75549   0.58523   0.00000  Uiso   1.00
I830   I     0.13797   0.88206   0.59988   0.00000  Uiso   1.00
I831   I     0.01581   0.86034   0.52882   0.00000  Uiso   1.00
O832   O     0.16667   0.83333   0.75000   0.00000  Uiso   1.00
O833   O     0.15451   0.79304   0.65458   0.00000  Uiso   1.00
O834   O     0.12940   0.87058   0.84968   0.00000  Uiso   1.00
O835   O     0.20824   0.84425   0.64606   0.00000  Uiso   1.00
O836   O     0.17451   0.82546   0.84968   0.00000  Uiso   1.00
O837   O     0.17930   0.74686   0.78213   0.00000  Uiso   1.00
O838   O     0.14632   0.92751   0.77013   0.00000  Uiso   1.00
O839   O     0.07412   0.79958   0.73413   0.00000  Uiso   1.00
O840   O     0.26693   0.85939   0.71360   0.00000  Uiso   1.00
O841   O     0.07071   0.85544   0.78213   0.00000  Uiso   1.00
O842   O     0.25491   0.81892   0.77013   0.00000  Uiso   1.00
O843   O     0.13760   0.73610   0.73413   0.00000  Uiso   1.00
O844   O     0.20345   0.92286   0.71360   0.00000  Uiso   1.00
Zn845  Zn    0.19338   0.80661   0.78734   0.00000  Uiso   1.00
Zn846  Zn    0.13379   0.79124   0.71875   0.00000  Uiso   1.00
Zn847  Zn    0.21056   0.86442   0.70657   0.00000  Uiso   1.00
Zn848  Zn    0.12893   0.87106   0.78733   0.00000  Uiso   1.00
Br849  Br    0.62150   0.80700   0.90719   0.00000  Uiso   1.00
Br850  Br    0.38727   0.88107   0.91785   0.00000  Uiso   1.00
Br851  Br    0.36533   0.87964   0.69285   0.00000  Uiso   1.00
C852   C     0.38604   0.82619   0.76029   0.00000  Uiso   1.00
C853   C     0.50399   0.83187   0.56066   0.00000  Uiso   1.00
C854   C     0.56041   0.78859   0.55559   0.00000  Uiso   1.00
C855   C     0.61416   0.84077   0.74006   0.00000  Uiso   1.00
C856   C     0.47023   0.85562   0.92080   0.00000  Uiso   1.00
C857   C     0.66011   0.84469   0.73640   0.00000  Uiso   1.00
C858   C     0.34089   0.82420   0.76356   0.00000  Uiso   1.00
C859   C     0.51378   0.98918   0.73627   0.00000  Uiso   1.00
C860   C     0.48532   0.67846   0.76393   0.00000  Uiso   1.00
C861   C     0.48955   0.72258   0.76016   0.00000  Uiso   1.00
C862   C     0.50992   0.94461   0.74010   0.00000  Uiso   1.00
C863   C     0.41324   0.85523   0.99038   0.00000  Uiso   1.00
C864   C     0.51894   0.81491   0.62945   0.00000  Uiso   1.00
C865   C     0.48180   0.85149   0.87110   0.00000  Uiso   1.00
C866   C     0.57378   0.79181   0.50959   0.00000  Uiso   1.00
C867   C     0.52643   0.80984   0.58126   0.00000  Uiso   1.00
C868   C     0.42783   0.86316   0.94511   0.00000  Uiso   1.00
C869   C     0.44047   0.84172   0.51179   0.00000  Uiso   1.00
C870   C     0.48412   0.83983   0.99063   0.00000  Uiso   1.00
C871   C     0.49903   0.84568   0.94438   0.00000  Uiso   1.00
C872   C     0.51228   0.82812   0.51357   0.00000  Uiso   1.00
C873   C     0.55094   0.81283   0.98836   0.00000  Uiso   1.00
C874   C     0.56645   0.82050   0.94300   0.00000  Uiso   1.00
C875   C     0.54214   0.84009   0.92277   0.00000  Uiso   1.00
H876   H     0.65238   0.80450   0.78807   0.00000  Uiso   1.00
H877   H     0.54003   0.67037   0.71076   0.00000  Uiso   1.00
H878   H     0.45878   0.99805   0.78964   0.00000  Uiso   1.00
H879   H     0.60208   0.77787   0.99090   0.00000  Uiso   1.00
H880   H     0.42659   0.83152   0.54503   0.00000  Uiso   1.00
H881   H     0.55734   0.84959   0.88949   0.00000  Uiso   1.00
I882   I     0.59598   0.75549   0.58523   0.00000  Uiso   1.00
I883   I     0.47131   0.88206   0.59988   0.00000  Uiso   1.00
I884   I     0.34915   0.86034   0.52882   0.00000  Uiso   1.00
O885   O     0.50000   0.83333   0.75000   0.00000  Uiso   1.00
O886   O     0.48784   0.79304   0.65458   0.00000  Uiso   1.00
O887   O     0.46274   0.87058   0.84968   0.00000  Uiso   1.00
O888   O     0.54157   0.84425   0.64606   0.00000  Uiso   1.00
O889   O     0.50785   0.82546   0.84968   0.00000  Uiso   1.00
O890   O     0.51264   0.74686   0.78213   0.00000  Uiso   1.00
O891   O     0.47965   0.92751   0.77013   0.00000  Uiso   1.00
O892   O     0.40745   0.79958   0.73413   0.00000  Uiso   1.00
O893   O     0.60026   0.85939   0.71360   0.00000  Uiso   1.00
O894   O     0.40405   0.85544   0.78213   0.00000  Uiso   1.00
O895   O     0.58824   0.81892   0.77013   0.00000  Uiso   1.00
O896   O     0.47093   0.73610   0.73413   0.00000  Uiso   1.00
O897   O     0.53678   0.92286   0.71360   0.00000  Uiso   1.00
Zn898  Zn    0.52672   0.80661   0.78734   0.00000  Uiso   1.00
Zn899  Zn    0.46713   0.79124   0.71875   0.00000  Uiso   1.00
Zn900  Zn    0.54389   0.86442   0.70657   0.00000  Uiso   1.00
Zn901  Zn    0.46226   0.87106   0.78733   0.00000  Uiso   1.00
Br902  Br    0.95484   0.80700   0.90719   0.00000  Uiso   1.00
Br903  Br    0.72061   0.88107   0.91785   0.00000  Uiso   1.00
Br904  Br    0.69866   0.87964   0.69285   0.00000  Uiso   1.00
C905   C     0.71938   0.82619   0.76029   0.00000  Uiso   1.00
C906   C     0.83732   0.83187   0.56066   0.00000  Uiso   1.00
C907   C     0.89374   0.78859   0.55559   0.00000  Uiso   1.00
C908   C     0.94750   0.84077   0.74006   0.00000  Uiso   1.00
C909   C     0.80357   0.85562   0.92080   0.00000  Uiso   1.00
C910   C     0.99344   0.84469   0.73640   0.00000  Uiso   1.00
C911   C     0.67422   0.82420   0.76356   0.00000  Uiso   1.00
C912   C     0.84711   0.98918   0.73627   0.00000  Uiso   1.00
C913   C     0.81865   0.67846   0.76393   0.00000  Uiso   1.00
C914   C     0.82288   0.72258   0.76016   0.00000  Uiso   1.00
C915   C     0.84326   0.94461   0.74010   0.00000  Uiso   1.00
C916   C     0.74657   0.85523   0.99038   0.00000  Uiso   1.00
C917   C     0.85227   0.81491   0.62945   0.00000  Uiso   1.00
C918   C     0.81513   0.85149   0.87110   0.00000  Uiso   1.00
C919   C     0.90711   0.79181   0.50959   0.00000  Uiso   1.00
C920   C     0.85976   0.80984   0.58126   0.00000  Uiso   1.00
C921   C     0.76116   0.86316   0.94511   0.00000  Uiso   1.00
C922   C     0.77380   0.84172   0.51179   0.00000  Uiso   1.00
C923   C     0.81746   0.83983   0.99063   0.00000  Uiso   1.00
C924   C     0.83237   0.84568   0.94438   0.00000  Uiso   1.00
C925   C     0.84562   0.82812   0.51357   0.00000  Uiso   1.00
C926   C     0.88427   0.81283   0.98836   0.00000  Uiso   1.00
C927   C     0.89979   0.82050   0.94300   0.00000  Uiso   1.00
C928   C     0.87548   0.84009   0.92277   0.00000  Uiso   1.00
H929   H     0.98571   0.80450   0.78807   0.00000  Uiso   1.00
H930   H     0.87337   0.67037   0.71076   0.00000  Uiso   1.00
H931   H     0.79211   0.99805   0.78964   0.00000  Uiso   1.00
H932   H     0.93541   0.77787   0.99090   0.00000  Uiso   1.00
H933   H     0.75992   0.83152   0.54503   0.00000  Uiso   1.00
H934   H     0.89068   0.84959   0.88949   0.00000  Uiso   1.00
I935   I     0.92931   0.75549   0.58523   0.00000  Uiso   1.00
I936   I     0.80464   0.88206   0.59988   0.00000  Uiso   1.00
I937   I     0.68248   0.86034   0.52882   0.00000  Uiso   1.00
O938   O     0.83333   0.83333   0.75000   0.00000  Uiso   1.00
O939   O     0.82118   0.79304   0.65458   0.00000  Uiso   1.00
O940   O     0.79607   0.87058   0.84968   0.00000  Uiso   1.00
O941   O     0.87491   0.84425   0.64606   0.00000  Uiso   1.00
O942   O     0.84118   0.82546   0.84968   0.00000  Uiso   1.00
O943   O     0.84597   0.74686   0.78213   0.00000  Uiso   1.00
O944   O     0.81298   0.92751   0.77013   0.00000  Uiso   1.00
O945   O     0.74078   0.79958   0.73413   0.00000  Uiso   1.00
O946   O     0.93360   0.85939   0.71360   0.00000  Uiso   1.00
O947   O     0.73738   0.85544   0.78213   0.00000  Uiso   1.00
O948   O     0.92158   0.81892   0.77013   0.00000  Uiso   1.00
O949   O     0.80426   0.73610   0.73413   0.00000  Uiso   1.00
O950   O     0.87012   0.92286   0.71360   0.00000  Uiso   1.00
Zn951  Zn    0.86005   0.80661   0.78734   0.00000  Uiso   1.00
Zn952  Zn    0.80046   0.79124   0.71875   0.00000  Uiso   1.00
Zn953  Zn    0.87723   0.86442   0.70657   0.00000  Uiso   1.00
Zn954  Zn    0.79560   0.87106   0.78733   0.00000  Uiso   1.00
loop_
_geom_bond_atom_site_label_1
_geom_bond_atom_site_label_2
_geom_bond_distance
_geom_bond_site_symmetry_2
_ccdc_geom_bond_type
Br1    C26     1.923   .     S
Br2    C20     1.934   .     S
Br3    C115    1.926   1_455 S
C4     O46     1.272   .     A
C4     O44     1.271   .     A
C4     C10     1.438   .     S
C5     C24     1.413   .     A
C5     C19     1.402   .     A
C5     I35     2.158   .     S
C6     C19     1.403   .     A
C6     C18     1.392   .     A
C6     I34     2.124   .     S
C7     O45     1.281   .     A
C7     C9      1.457   .     S
C7     O47     1.280   .     A
C8     C17     1.487   .     S
C8     C20     1.427   .     A
C8     C23     1.426   .     A
C9     Br56    1.926   .     S
C9     C63     1.339   .     S
C10    C115    1.339   1_455 S
C10    H134    1.086   1_455 S
C11    C14     1.451   .     S
C11    C171    1.331   .     S
C11    H188    1.088   .     S
C12    C13     1.435   .     S
C12    C329    1.331   1_545 S
C12    H348    1.086   1_545 S
C13    O48     1.280   .     A
C13    O42     1.280   .     A
C14    O49     1.269   .     A
C14    O43     1.270   .     A
C15    C20     1.401   .     A
C15    C498    1.386   .     S
C15    I513    2.128   .     S
C16    C19     1.449   .     S
C16    O40     1.269   .     A
C16    O38     1.276   .     A
C17    O41     1.289   .     A
C17    O39     1.281   .     A
C18    C502    1.404   1_554 S
C18    H508    1.081   1_554 S
C21    H32     1.080   .     S
C21    C492    1.386   1_554 S
C21    C499    1.404   1_554 S
C22    C23     1.415   .     A
C22    C498    1.404   .     S
C22    C501    1.418   .     S
C23    C27     1.413   .     A
C24    C499    1.418   1_554 S
C24    C502    1.419   1_554 S
C25    C26     1.403   .     A
C25    C495    1.404   .     S
C25    C501    1.419   .     S
C26    C27     1.391   .     A
C27    H33     1.079   .     S
H28    C63     1.086   .     S
H29    C329    1.088   1_545 S
H30    C171    1.086   .     S
H31    C495    1.081   .     S
I36    C492    2.128   1_554 S
O37    Zn53    1.930   .     S
O37    Zn50    1.963   .     S
O37    Zn51    1.949   .     S
O37    Zn52    1.931   .     S
O38    Zn51    1.934   .     S
O39    Zn53    1.947   .     S
O40    Zn52    1.943   .     S
O41    Zn50    1.931   .     S
O42    Zn50    1.928   .     S
O43    Zn53    1.929   .     S
O44    Zn51    1.924   .     S
O45    Zn52    1.938   .     S
O46    Zn53    1.934   .     S
O47    Zn50    1.922   .     S
O48    Zn51    1.935   .     S
O49    Zn52    1.929   .     S
Br54   C79     1.923   .     S
Br55   C73     1.934   .     S
C57    O99     1.272   .     A
C57    O97     1.271   .     A
C57    C63     1.438   .     S
C58    C77     1.413   .     A
C58    C72     1.402   .     A
C58    I88     2.158   .     S
C59    C72     1.403   .     A
C59    C71     1.392   .     A
C59    I87     2.124   .     S
C60    O98     1.281   .     A
C60    C62     1.457   .     S
C60    O100    1.280   .     A
C61    C70     1.487   .     S
C61    C73     1.427   .     A
C61    C76     1.426   .     A
C62    Br109   1.926   .     S
C62    C116    1.339   .     S
C64    C67     1.451   .     S
C64    C224    1.331   .     S
C64    H241    1.088   .     S
C65    C66     1.435   .     S
C65    C382    1.331   1_545 S
C65    H401    1.086   1_545 S
C66    O101    1.280   .     A
C66    O95     1.280   .     A
C67    O102    1.269   .     A
C67    O96     1.270   .     A
C68    C73     1.401   .     A
C68    C551    1.386   .     S
C68    I566    2.128   .     S
C69    C72     1.449   .     S
C69    O93     1.269   .     A
C69    O91     1.276   .     A
C70    O94     1.289   .     A
C70    O92     1.281   .     A
C71    C555    1.404   1_554 S
C71    H561    1.081   1_554 S
C74    H85     1.080   .     S
C74    C545    1.386   1_554 S
C74    C552    1.404   1_554 S
C75    C76     1.415   .     A
C75    C551    1.404   .     S
C75    C554    1.418   .     S
C76    C80     1.413   .     A
C77    C552    1.418   1_554 S
C77    C555    1.419   1_554 S
C78    C79     1.403   .     A
C78    C548    1.404   .     S
C78    C554    1.419   .     S
C79    C80     1.391   .     A
C80    H86     1.079   .     S
H81    C116    1.086   .     S
H82    C382    1.088   1_545 S
H83    C224    1.086   .     S
H84    C548    1.081   .     S
I89    C545    2.128   1_554 S
O90    Zn106   1.930   .     S
O90    Zn103   1.963   .     S
O90    Zn104   1.949   .     S
O90    Zn105   1.931   .     S
O91    Zn104   1.934   .     S
O92    Zn106   1.947   .     S
O93    Zn105   1.943   .     S
O94    Zn103   1.931   .     S
O95    Zn103   1.928   .     S
O96    Zn106   1.929   .     S
O97    Zn104   1.924   .     S
O98    Zn105   1.938   .     S
O99    Zn106   1.934   .     S
O100   Zn103   1.922   .     S
O101   Zn104   1.935   .     S
O102   Zn105   1.929   .     S
Br107  C132    1.923   .     S
Br108  C126    1.934   .     S
C110   O152    1.272   .     A
C110   O150    1.271   .     A
C110   C116    1.438   .     S
C111   C130    1.413   .     A
C111   C125    1.402   .     A
C111   I141    2.158   .     S
C112   C125    1.403   .     A
C112   C124    1.392   .     A
C112   I140    2.124   .     S
C113   O151    1.281   .     A
C113   C115    1.457   .     S
C113   O153    1.280   .     A
C114   C123    1.487   .     S
C114   C126    1.427   .     A
C114   C129    1.426   .     A
C115   Br3     1.926   1_655 S
C115   C10     1.339   1_655 S
C117   C120    1.451   .     S
C117   C277    1.331   .     S
C117   H294    1.088   .     S
C118   C119    1.435   .     S
C118   C435    1.331   1_545 S
C118   H454    1.086   1_545 S
C119   O154    1.280   .     A
C119   O148    1.280   .     A
C120   O155    1.269   .     A
C120   O149    1.270   .     A
C121   C126    1.401   .     A
C121   C604    1.386   .     S
C121   I619    2.128   .     S
C122   C125    1.449   .     S
C122   O146    1.269   .     A
C122   O144    1.276   .     A
C123   O147    1.289   .     A
C123   O145    1.281   .     A
C124   C608    1.404   1_554 S
C124   H614    1.081   1_554 S
C127   H138    1.080   .     S
C127   C598    1.386   1_554 S
C127   C605    1.404   1_554 S
C128   C129    1.415   .     A
C128   C604    1.404   .     S
C128   C607    1.418   .     S
C129   C133    1.413   .     A
C130   C605    1.418   1_554 S
C130   C608    1.419   1_554 S
C131   C132    1.403   .     A
C131   C601    1.404   .     S
C131   C607    1.419   .     S
C132   C133    1.391   .     A
C133   H139    1.079   .     S
H134   C10     1.086   1_655 S
H135   C435    1.088   1_545 S
H136   C277    1.086   .     S
H137   C601    1.081   .     S
I142   C598    2.128   1_554 S
O143   Zn159   1.930   .     S
O143   Zn156   1.963   .     S
O143   Zn157   1.949   .     S
O143   Zn158   1.931   .     S
O144   Zn157   1.934   .     S
O145   Zn159   1.947   .     S
O146   Zn158   1.943   .     S
O147   Zn156   1.931   .     S
O148   Zn156   1.928   .     S
O149   Zn159   1.929   .     S
O150   Zn157   1.924   .     S
O151   Zn158   1.938   .     S
O152   Zn159   1.934   .     S
O153   Zn156   1.922   .     S
O154   Zn157   1.935   .     S
O155   Zn158   1.929   .     S
Br160  C185    1.923   .     S
Br161  C179    1.934   .     S
Br162  C274    1.926   1_455 S
C163   O205    1.272   .     A
C163   O203    1.271   .     A
C163   C169    1.438   .     S
C164   C183    1.413   .     A
C164   C178    1.402   .     A
C164   I194    2.158   .     S
C165   C178    1.403   .     A
C165   C177    1.392   .     A
C165   I193    2.124   .     S
C166   O204    1.281   .     A
C166   C168    1.457   .     S
C166   O206    1.280   .     A
C167   C176    1.487   .     S
C167   C179    1.427   .     A
C167   C182    1.426   .     A
C168   Br215   1.926   .     S
C168   C222    1.339   .     S
C169   C274    1.339   1_455 S
C169   H293    1.086   1_455 S
C170   C173    1.451   .     S
C170   C330    1.331   .     S
C170   H347    1.088   .     S
C171   C172    1.435   .     S
C172   O207    1.280   .     A
C172   O201    1.280   .     A
C173   O208    1.269   .     A
C173   O202    1.270   .     A
C174   C179    1.401   .     A
C174   C657    1.386   .     S
C174   I672    2.128   .     S
C175   C178    1.449   .     S
C175   O199    1.269   .     A
C175   O197    1.276   .     A
C176   O200    1.289   .     A
C176   O198    1.281   .     A
C177   C661    1.404   1_554 S
C177   H667    1.081   1_554 S
C180   H191    1.080   .     S
C180   C651    1.386   1_554 S
C180   C658    1.404   1_554 S
C181   C182    1.415   .     A
C181   C657    1.404   .     S
C181   C660    1.418   .     S
C182   C186    1.413   .     A
C183   C658    1.418   1_554 S
C183   C661    1.419   1_554 S
C184   C185    1.403   .     A
C184   C654    1.404   .     S
C184   C660    1.419   .     S
C185   C186    1.391   .     A
C186   H192    1.079   .     S
H187   C222    1.086   .     S
H189   C330    1.086   .     S
H190   C654    1.081   .     S
I195   C651    2.128   1_554 S
O196   Zn212   1.930   .     S
O196   Zn209   1.963   .     S
O196   Zn210   1.949   .     S
O196   Zn211   1.931   .     S
O197   Zn210   1.934   .     S
O198   Zn212   1.947   .     S
O199   Zn211   1.943   .     S
O200   Zn209   1.931   .     S
O201   Zn209   1.928   .     S
O202   Zn212   1.929   .     S
O203   Zn210   1.924   .     S
O204   Zn211   1.938   .     S
O205   Zn212   1.934   .     S
O206   Zn209   1.922   .     S
O207   Zn210   1.935   .     S
O208   Zn211   1.929   .     S
Br213  C238    1.923   .     S
Br214  C232    1.934   .     S
C216   O258    1.272   .     A
C216   O256    1.271   .     A
C216   C222    1.438   .     S
C217   C236    1.413   .     A
C217   C231    1.402   .     A
C217   I247    2.158   .     S
C218   C231    1.403   .     A
C218   C230    1.392   .     A
C218   I246    2.124   .     S
C219   O257    1.281   .     A
C219   C221    1.457   .     S
C219   O259    1.280   .     A
C220   C229    1.487   .     S
C220   C232    1.427   .     A
C220   C235    1.426   .     A
C221   Br268   1.926   .     S
C221   C275    1.339   .     S
C223   C226    1.451   .     S
C223   C383    1.331   .     S
C223   H400    1.088   .     S
C224   C225    1.435   .     S
C225   O260    1.280   .     A
C225   O254    1.280   .     A
C226   O261    1.269   .     A
C226   O255    1.270   .     A
C227   C232    1.401   .     A
C227   C710    1.386   .     S
C227   I725    2.128   .     S
C228   C231    1.449   .     S
C228   O252    1.269   .     A
C228   O250    1.276   .     A
C229   O253    1.289   .     A
C229   O251    1.281   .     A
C230   C714    1.404   1_554 S
C230   H720    1.081   1_554 S
C233   H244    1.080   .     S
C233   C704    1.386   1_554 S
C233   C711    1.404   1_554 S
C234   C235    1.415   .     A
C234   C710    1.404   .     S
C234   C713    1.418   .     S
C235   C239    1.413   .     A
C236   C711    1.418   1_554 S
C236   C714    1.419   1_554 S
C237   C238    1.403   .     A
C237   C707    1.404   .     S
C237   C713    1.419   .     S
C238   C239    1.391   .     A
C239   H245    1.079   .     S
H240   C275    1.086   .     S
H242   C383    1.086   .     S
H243   C707    1.081   .     S
I248   C704    2.128   1_554 S
O249   Zn265   1.930   .     S
O249   Zn262   1.963   .     S
O249   Zn263   1.949   .     S
O249   Zn264   1.931   .     S
O250   Zn263   1.934   .     S
O251   Zn265   1.947   .     S
O252   Zn264   1.943   .     S
O253   Zn262   1.931   .     S
O254   Zn262   1.928   .     S
O255   Zn265   1.929   .     S
O256   Zn263   1.924   .     S
O257   Zn264   1.938   .     S
O258   Zn265   1.934   .     S
O259   Zn262   1.922   .     S
O260   Zn263   1.935   .     S
O261   Zn264   1.929   .     S
Br266  C291    1.923   .     S
Br267  C285    1.934   .     S
C269   O311    1.272   .     A
C269   O309    1.271   .     A
C269   C275    1.438   .     S
C270   C289    1.413   .     A
C270   C284    1.402   .     A
C270   I300    2.158   .     S
C271   C284    1.403   .     A
C271   C283    1.392   .     A
C271   I299    2.124   .     S
C272   O310    1.281   .     A
C272   C274    1.457   .     S
C272   O312    1.280   .     A
C273   C282    1.487   .     S
C273   C285    1.427   .     A
C273   C288    1.426   .     A
C274   Br162   1.926   1_655 S
C274   C169    1.339   1_655 S
C276   C279    1.451   .     S
C276   C436    1.331   .     S
C276   H453    1.088   .     S
C277   C278    1.435   .     S
C278   O313    1.280   .     A
C278   O307    1.280   .     A
C279   O314    1.269   .     A
C279   O308    1.270   .     A
C280   C285    1.401   .     A
C280   C763    1.386   .     S
C280   I778    2.128   .     S
C281   C284    1.449   .     S
C281   O305    1.269   .     A
C281   O303    1.276   .     A
C282   O306    1.289   .     A
C282   O304    1.281   .     A
C283   C767    1.404   1_554 S
C283   H773    1.081   1_554 S
C286   H297    1.080   .     S
C286   C757    1.386   1_554 S
C286   C764    1.404   1_554 S
C287   C288    1.415   .     A
C287   C763    1.404   .     S
C287   C766    1.418   .     S
C288   C292    1.413   .     A
C289   C764    1.418   1_554 S
C289   C767    1.419   1_554 S
C290   C291    1.403   .     A
C290   C760    1.404   .     S
C290   C766    1.419   .     S
C291   C292    1.391   .     A
C292   H298    1.079   .     S
H293   C169    1.086   1_655 S
H295   C436    1.086   .     S
H296   C760    1.081   .     S
I301   C757    2.128   1_554 S
O302   Zn318   1.930   .     S
O302   Zn315   1.963   .     S
O302   Zn316   1.949   .     S
O302   Zn317   1.931   .     S
O303   Zn316   1.934   .     S
O304   Zn318   1.947   .     S
O305   Zn317   1.943   .     S
O306   Zn315   1.931   .     S
O307   Zn315   1.928   .     S
O308   Zn318   1.929   .     S
O309   Zn316   1.924   .     S
O310   Zn317   1.938   .     S
O311   Zn318   1.934   .     S
O312   Zn315   1.922   .     S
O313   Zn316   1.935   .     S
O314   Zn317   1.929   .     S
Br319  C344    1.923   .     S
Br320  C338    1.934   .     S
Br321  C433    1.926   1_455 S
C322   O364    1.272   .     A
C322   O362    1.271   .     A
C322   C328    1.438   .     S
C323   C342    1.413   .     A
C323   C337    1.402   .     A
C323   I353    2.158   .     S
C324   C337    1.403   .     A
C324   C336    1.392   .     A
C324   I352    2.124   .     S
C325   O363    1.281   .     A
C325   C327    1.457   .     S
C325   O365    1.280   .     A
C326   C335    1.487   .     S
C326   C338    1.427   .     A
C326   C341    1.426   .     A
C327   Br374   1.926   .     S
C327   C381    1.339   .     S
C328   C433    1.339   1_455 S
C328   H452    1.086   1_455 S
C329   C332    1.451   .     S
C329   C12     1.331   1_565 S
C329   H29     1.088   1_565 S
C330   C331    1.435   .     S
C331   O366    1.280   .     A
C331   O360    1.280   .     A
C332   O367    1.269   .     A
C332   O361    1.270   .     A
C333   C338    1.401   .     A
C333   C816    1.386   .     S
C333   I831    2.128   .     S
C334   C337    1.449   .     S
C334   O358    1.269   .     A
C334   O356    1.276   .     A
C335   O359    1.289   .     A
C335   O357    1.281   .     A
C336   C820    1.404   1_554 S
C336   H826    1.081   1_554 S
C339   H350    1.080   .     S
C339   C810    1.386   1_554 S
C339   C817    1.404   1_554 S
C340   C341    1.415   .     A
C340   C816    1.404   .     S
C340   C819    1.418   .     S
C341   C345    1.413   .     A
C342   C817    1.418   1_554 S
C342   C820    1.419   1_554 S
C343   C344    1.403   .     A
C343   C813    1.404   .     S
C343   C819    1.419   .     S
C344   C345    1.391   .     A
C345   H351    1.079   .     S
H346   C381    1.086   .     S
H348   C12     1.086   1_565 S
H349   C813    1.081   .     S
I354   C810    2.128   1_554 S
O355   Zn371   1.930   .     S
O355   Zn368   1.963   .     S
O355   Zn369   1.949   .     S
O355   Zn370   1.931   .     S
O356   Zn369   1.934   .     S
O357   Zn371   1.947   .     S
O358   Zn370   1.943   .     S
O359   Zn368   1.931   .     S
O360   Zn368   1.928   .     S
O361   Zn371   1.929   .     S
O362   Zn369   1.924   .     S
O363   Zn370   1.938   .     S
O364   Zn371   1.934   .     S
O365   Zn368   1.922   .     S
O366   Zn369   1.935   .     S
O367   Zn370   1.929   .     S
Br372  C397    1.923   .     S
Br373  C391    1.934   .     S
C375   O417    1.272   .     A
C375   O415    1.271   .     A
C375   C381    1.438   .     S
C376   C395    1.413   .     A
C376   C390    1.402   .     A
C376   I406    2.158   .     S
C377   C390    1.403   .     A
C377   C389    1.392   .     A
C377   I405    2.124   .     S
C378   O416    1.281   .     A
C378   C380    1.457   .     S
C378   O418    1.280   .     A
C379   C388    1.487   .     S
C379   C391    1.427   .     A
C379   C394    1.426   .     A
C380   Br427   1.926   .     S
C380   C434    1.339   .     S
C382   C385    1.451   .     S
C382   C65     1.331   1_565 S
C382   H82     1.088   1_565 S
C383   C384    1.435   .     S
C384   O419    1.280   .     A
C384   O413    1.280   .     A
C385   O420    1.269   .     A
C385   O414    1.270   .     A
C386   C391    1.401   .     A
C386   C869    1.386   .     S
C386   I884    2.128   .     S
C387   C390    1.449   .     S
C387   O411    1.269   .     A
C387   O409    1.276   .     A
C388   O412    1.289   .     A
C388   O410    1.281   .     A
C389   C873    1.404   1_554 S
C389   H879    1.081   1_554 S
C392   H403    1.080   .     S
C392   C863    1.386   1_554 S
C392   C870    1.404   1_554 S
C393   C394    1.415   .     A
C393   C869    1.404   .     S
C393   C872    1.418   .     S
C394   C398    1.413   .     A
C395   C870    1.418   1_554 S
C395   C873    1.419   1_554 S
C396   C397    1.403   .     A
C396   C866    1.404   .     S
C396   C872    1.419   .     S
C397   C398    1.391   .     A
C398   H404    1.079   .     S
H399   C434    1.086   .     S
H401   C65     1.086   1_565 S
H402   C866    1.081   .     S
I407   C863    2.128   1_554 S
O408   Zn424   1.930   .     S
O408   Zn421   1.963   .     S
O408   Zn422   1.949   .     S
O408   Zn423   1.931   .     S
O409   Zn422   1.934   .     S
O410   Zn424   1.947   .     S
O411   Zn423   1.943   .     S
O412   Zn421   1.931   .     S
O413   Zn421   1.928   .     S
O414   Zn424   1.929   .     S
O415   Zn422   1.924   .     S
O416   Zn423   1.938   .     S
O417   Zn424   1.934   .     S
O418   Zn421   1.922   .     S
O419   Zn422   1.935   .     S
O420   Zn423   1.929   .     S
Br425  C450    1.923   .     S
Br426  C444    1.934   .     S
C428   O470    1.272   .     A
C428   O468    1.271   .     A
C428   C434    1.438   .     S
C429   C448    1.413   .     A
C429   C443    1.402   .     A
C429   I459    2.158   .     S
C430   C443    1.403   .     A
C430   C442    1.392   .     A
C430   I458    2.124   .     S
C431   O469    1.281   .     A
C431   C433    1.457   .     S
C431   O471    1.280   .     A
C432   C441    1.487   .     S
C432   C444    1.427   .     A
C432   C447    1.426   .     A
C433   Br321   1.926   1_655 S
C433   C328    1.339   1_655 S
C435   C438    1.451   .     S
C435   C118    1.331   1_565 S
C435   H135    1.088   1_565 S
C436   C437    1.435   .     S
C437   O472    1.280   .     A
C437   O466    1.280   .     A
C438   O473    1.269   .     A
C438   O467    1.270   .     A
C439   C444    1.401   .     A
C439   C922    1.386   .     S
C439   I937    2.128   .     S
C440   C443    1.449   .     S
C440   O464    1.269   .     A
C440   O462    1.276   .     A
C441   O465    1.289   .     A
C441   O463    1.281   .     A
C442   C926    1.404   1_554 S
C442   H932    1.081   1_554 S
C445   H456    1.080   .     S
C445   C916    1.386   1_554 S
C445   C923    1.404   1_554 S
C446   C447    1.415   .     A
C446   C922    1.404   .     S
C446   C925    1.418   .     S
C447   C451    1.413   .     A
C448   C923    1.418   1_554 S
C448   C926    1.419   1_554 S
C449   C450    1.403   .     A
C449   C919    1.404   .     S
C449   C925    1.419   .     S
C450   C451    1.391   .     A
C451   H457    1.079   .     S
H452   C328    1.086   1_655 S
H454   C118    1.086   1_565 S
H455   C919    1.081   .     S
I460   C916    2.128   1_554 S
O461   Zn477   1.930   .     S
O461   Zn474   1.963   .     S
O461   Zn475   1.949   .     S
O461   Zn476   1.931   .     S
O462   Zn475   1.934   .     S
O463   Zn477   1.947   .     S
O464   Zn476   1.943   .     S
O465   Zn474   1.931   .     S
O466   Zn474   1.928   .     S
O467   Zn477   1.929   .     S
O468   Zn475   1.924   .     S
O469   Zn476   1.938   .     S
O470   Zn477   1.934   .     S
O471   Zn474   1.922   .     S
O472   Zn475   1.935   .     S
O473   Zn476   1.929   .     S
Br478  C503    1.923   .     S
Br479  C497    1.934   .     S
Br480  C592    1.926   1_455 S
C481   O523    1.272   .     A
C481   O521    1.271   .     A
C481   C487    1.438   .     S
C482   C501    1.413   .     A
C482   C496    1.402   .     A
C482   I512    2.158   .     S
C483   C496    1.403   .     A
C483   C495    1.392   .     A
C483   I511    2.124   .     S
C484   O522    1.281   .     A
C484   C486    1.457   .     S
C484   O524    1.280   .     A
C485   C494    1.487   .     S
C485   C497    1.427   .     A
C485   C500    1.426   .     A
C486   Br533   1.926   .     S
C486   C540    1.339   .     S
C487   C592    1.339   1_455 S
C487   H611    1.086   1_455 S
C488   C491    1.451   .     S
C488   C648    1.331   .     S
C488   H665    1.088   .     S
C489   C490    1.435   .     S
C489   C806    1.331   1_545 S
C489   H825    1.086   1_545 S
C490   O525    1.280   .     A
C490   O519    1.280   .     A
C491   O526    1.269   .     A
C491   O520    1.270   .     A
C492   C497    1.401   .     A
C492   C21     1.386   1_556 S
C492   I36     2.128   1_556 S
C493   C496    1.449   .     S
C493   O517    1.269   .     A
C493   O515    1.276   .     A
C494   O518    1.289   .     A
C494   O516    1.281   .     A
C498   H509    1.080   .     S
C499   C500    1.415   .     A
C499   C21     1.404   1_556 S
C499   C24     1.418   1_556 S
C500   C504    1.413   .     A
C502   C503    1.403   .     A
C502   C18     1.404   1_556 S
C502   C24     1.419   1_556 S
C503   C504    1.391   .     A
C504   H510    1.079   .     S
H505   C540    1.086   .     S
H506   C806    1.088   1_545 S
H507   C648    1.086   .     S
H508   C18     1.081   1_556 S
O514   Zn530   1.930   .     S
O514   Zn527   1.963   .     S
O514   Zn528   1.949   .     S
O514   Zn529   1.931   .     S
O515   Zn528   1.934   .     S
O516   Zn530   1.947   .     S
O517   Zn529   1.943   .     S
O518   Zn527   1.931   .     S
O519   Zn527   1.928   .     S
O520   Zn530   1.929   .     S
O521   Zn528   1.924   .     S
O522   Zn529   1.938   .     S
O523   Zn530   1.934   .     S
O524   Zn527   1.922   .     S
O525   Zn528   1.935   .     S
O526   Zn529   1.929   .     S
Br531  C556    1.923   .     S
Br532  C550    1.934   .     S
C534   O576    1.272   .     A
C534   O574    1.271   .     A
C534   C540    1.438   .     S
C535   C554    1.413   .     A
C535   C549    1.402   .     A
C535   I565    2.158   .     S
C536   C549    1.403   .     A
C536   C548    1.392   .     A
C536   I564    2.124   .     S
C537   O575    1.281   .     A
C537   C539    1.457   .     S
C537   O577    1.280   .     A
C538   C547    1.487   .     S
C538   C550    1.427   .     A
C538   C553    1.426   .     A
C539   Br586   1.926   .     S
C539   C593    1.339   .     S
C541   C544    1.451   .     S
C541   C701    1.331   .     S
C541   H718    1.088   .     S
C542   C543    1.435   .     S
C542   C859    1.331   1_545 S
C542   H878    1.086   1_545 S
C543   O578    1.280   .     A
C543   O572    1.280   .     A
C544   O579    1.269   .     A
C544   O573    1.270   .     A
C545   C550    1.401   .     A
C545   C74     1.386   1_556 S
C545   I89     2.128   1_556 S
C546   C549    1.449   .     S
C546   O570    1.269   .     A
C546   O568    1.276   .     A
C547   O571    1.289   .     A
C547   O569    1.281   .     A
C551   H562    1.080   .     S
C552   C553    1.415   .     A
C552   C74     1.404   1_556 S
C552   C77     1.418   1_556 S
C553   C557    1.413   .     A
C555   C556    1.403   .     A
C555   C71     1.404   1_556 S
C555   C77     1.419   1_556 S
C556   C557    1.391   .     A
C557   H563    1.079   .     S
H558   C593    1.086   .     S
H559   C859    1.088   1_545 S
H560   C701    1.086   .     S
H561   C71     1.081   1_556 S
O567   Zn583   1.930   .     S
O567   Zn580   1.963   .     S
O567   Zn581   1.949   .     S
O567   Zn582   1.931   .     S
O568   Zn581   1.934   .     S
O569   Zn583   1.947   .     S
O570   Zn582   1.943   .     S
O571   Zn580   1.931   .     S
O572   Zn580   1.928   .     S
O573   Zn583   1.929   .     S
O574   Zn581   1.924   .     S
O575   Zn582   1.938   .     S
O576   Zn583   1.934   .     S
O577   Zn580   1.922   .     S
O578   Zn581   1.935   .     S
O579   Zn582   1.929   .     S
Br584  C609    1.923   .     S
Br585  C603    1.934   .     S
C587   O629    1.272   .     A
C587   O627    1.271   .     A
C587   C593    1.438   .     S
C588   C607    1.413   .     A
C588   C602    1.402   .     A
C588   I618    2.158   .     S
C589   C602    1.403   .     A
C589   C601    1.392   .     A
C589   I617    2.124   .     S
C590   O628    1.281   .     A
C590   C592    1.457   .     S
C590   O630    1.280   .     A
C591   C600    1.487   .     S
C591   C603    1.427   .     A
C591   C606    1.426   .     A
C592   Br480   1.926   1_655 S
C592   C487    1.339   1_655 S
C594   C597    1.451   .     S
C594   C754    1.331   .     S
C594   H771    1.088   .     S
C595   C596    1.435   .     S
C595   C912    1.331   1_545 S
C595   H931    1.086   1_545 S
C596   O631    1.280   .     A
C596   O625    1.280   .     A
C597   O632    1.269   .     A
C597   O626    1.270   .     A
C598   C603    1.401   .     A
C598   C127    1.386   1_556 S
C598   I142    2.128   1_556 S
C599   C602    1.449   .     S
C599   O623    1.269   .     A
C599   O621    1.276   .     A
C600   O624    1.289   .     A
C600   O622    1.281   .     A
C604   H615    1.080   .     S
C605   C606    1.415   .     A
C605   C127    1.404   1_556 S
C605   C130    1.418   1_556 S
C606   C610    1.413   .     A
C608   C609    1.403   .     A
C608   C124    1.404   1_556 S
C608   C130    1.419   1_556 S
C609   C610    1.391   .     A
C610   H616    1.079   .     S
H611   C487    1.086   1_655 S
H612   C912    1.088   1_545 S
H613   C754    1.086   .     S
H614   C124    1.081   1_556 S
O620   Zn636   1.930   .     S
O620   Zn633   1.963   .     S
O620   Zn634   1.949   .     S
O620   Zn635   1.931   .     S
O621   Zn634   1.934   .     S
O622   Zn636   1.947   .     S
O623   Zn635   1.943   .     S
O624   Zn633   1.931   .     S
O625   Zn633   1.928   .     S
O626   Zn636   1.929   .     S
O627   Zn634   1.924   .     S
O628   Zn635   1.938   .     S
O629   Zn636   1.934   .     S
O630   Zn633   1.922   .     S
O631   Zn634   1.935   .     S
O632   Zn635   1.929   .     S
Br637  C662    1.923   .     S
Br638  C656    1.934   .     S
Br639  C751    1.926   1_455 S
C640   O682    1.272   .     A
C640   O680    1.271   .     A
C640   C646    1.438   .     S
C641   C660    1.413   .     A
C641   C655    1.402   .     A
C641   I671    2.158   .     S
C642   C655    1.403   .     A
C642   C654    1.392   .     A
C642   I670    2.124   .     S
C643   O681    1.281   .     A
C643   C645    1.457   .     S
C643   O683    1.280   .     A
C644   C653    1.487   .     S
C644   C656    1.427   .     A
C644   C659    1.426   .     A
C645   Br692   1.926   .     S
C645   C699    1.339   .     S
C646   C751    1.339   1_455 S
C646   H770    1.086   1_455 S
C647   C650    1.451   .     S
C647   C807    1.331   .     S
C647   H824    1.088   .     S
C648   C649    1.435   .     S
C649   O684    1.280   .     A
C649   O678    1.280   .     A
C650   O685    1.269   .     A
C650   O679    1.270   .     A
C651   C656    1.401   .     A
C651   C180    1.386   1_556 S
C651   I195    2.128   1_556 S
C652   C655    1.449   .     S
C652   O676    1.269   .     A
C652   O674    1.276   .     A
C653   O677    1.289   .     A
C653   O675    1.281   .     A
C657   H668    1.080   .     S
C658   C659    1.415   .     A
C658   C180    1.404   1_556 S
C658   C183    1.418   1_556 S
C659   C663    1.413   .     A
C661   C662    1.403   .     A
C661   C177    1.404   1_556 S
C661   C183    1.419   1_556 S
C662   C663    1.391   .     A
C663   H669    1.079   .     S
H664   C699    1.086   .     S
H666   C807    1.086   .     S
H667   C177    1.081   1_556 S
O673   Zn689   1.930   .     S
O673   Zn686   1.963   .     S
O673   Zn687   1.949   .     S
O673   Zn688   1.931   .     S
O674   Zn687   1.934   .     S
O675   Zn689   1.947   .     S
O676   Zn688   1.943   .     S
O677   Zn686   1.931   .     S
O678   Zn686   1.928   .     S
O679   Zn689   1.929   .     S
O680   Zn687   1.924   .     S
O681   Zn688   1.938   .     S
O682   Zn689   1.934   .     S
O683   Zn686   1.922   .     S
O684   Zn687   1.935   .     S
O685   Zn688   1.929   .     S
Br690  C715    1.923   .     S
Br691  C709    1.934   .     S
C693   O735    1.272   .     A
C693   O733    1.271   .     A
C693   C699    1.438   .     S
C694   C713    1.413   .     A
C694   C708    1.402   .     A
C694   I724    2.158   .     S
C695   C708    1.403   .     A
C695   C707    1.392   .     A
C695   I723    2.124   .     S
C696   O734    1.281   .     A
C696   C698    1.457   .     S
C696   O736    1.280   .     A
C697   C706    1.487   .     S
C697   C709    1.427   .     A
C697   C712    1.426   .     A
C698   Br745   1.926   .     S
C698   C752    1.339   .     S
C700   C703    1.451   .     S
C700   C860    1.331   .     S
C700   H877    1.088   .     S
C701   C702    1.435   .     S
C702   O737    1.280   .     A
C702   O731    1.280   .     A
C703   O738    1.269   .     A
C703   O732    1.270   .     A
C704   C709    1.401   .     A
C704   C233    1.386   1_556 S
C704   I248    2.128   1_556 S
C705   C708    1.449   .     S
C705   O729    1.269   .     A
C705   O727    1.276   .     A
C706   O730    1.289   .     A
C706   O728    1.281   .     A
C710   H721    1.080   .     S
C711   C712    1.415   .     A
C711   C233    1.404   1_556 S
C711   C236    1.418   1_556 S
C712   C716    1.413   .     A
C714   C715    1.403   .     A
C714   C230    1.404   1_556 S
C714   C236    1.419   1_556 S
C715   C716    1.391   .     A
C716   H722    1.079   .     S
H717   C752    1.086   .     S
H719   C860    1.086   .     S
H720   C230    1.081   1_556 S
O726   Zn742   1.930   .     S
O726   Zn739   1.963   .     S
O726   Zn740   1.949   .     S
O726   Zn741   1.931   .     S
O727   Zn740   1.934   .     S
O728   Zn742   1.947   .     S
O729   Zn741   1.943   .     S
O730   Zn739   1.931   .     S
O731   Zn739   1.928   .     S
O732   Zn742   1.929   .     S
O733   Zn740   1.924   .     S
O734   Zn741   1.938   .     S
O735   Zn742   1.934   .     S
O736   Zn739   1.922   .     S
O737   Zn740   1.935   .     S
O738   Zn741   1.929   .     S
Br743  C768    1.923   .     S
Br744  C762    1.934   .     S
C746   O788    1.272   .     A
C746   O786    1.271   .     A
C746   C752    1.438   .     S
C747   C766    1.413   .     A
C747   C761    1.402   .     A
C747   I777    2.158   .     S
C748   C761    1.403   .     A
C748   C760    1.392   .     A
C748   I776    2.124   .     S
C749   O787    1.281   .     A
C749   C751    1.457   .     S
C749   O789    1.280   .     A
C750   C759    1.487   .     S
C750   C762    1.427   .     A
C750   C765    1.426   .     A
C751   Br639   1.926   1_655 S
C751   C646    1.339   1_655 S
C753   C756    1.451   .     S
C753   C913    1.331   .     S
C753   H930    1.088   .     S
C754   C755    1.435   .     S
C755   O790    1.280   .     A
C755   O784    1.280   .     A
C756   O791    1.269   .     A
C756   O785    1.270   .     A
C757   C762    1.401   .     A
C757   C286    1.386   1_556 S
C757   I301    2.128   1_556 S
C758   C761    1.449   .     S
C758   O782    1.269   .     A
C758   O780    1.276   .     A
C759   O783    1.289   .     A
C759   O781    1.281   .     A
C763   H774    1.080   .     S
C764   C765    1.415   .     A
C764   C286    1.404   1_556 S
C764   C289    1.418   1_556 S
C765   C769    1.413   .     A
C767   C768    1.403   .     A
C767   C283    1.404   1_556 S
C767   C289    1.419   1_556 S
C768   C769    1.391   .     A
C769   H775    1.079   .     S
H770   C646    1.086   1_655 S
H772   C913    1.086   .     S
H773   C283    1.081   1_556 S
O779   Zn795   1.930   .     S
O779   Zn792   1.963   .     S
O779   Zn793   1.949   .     S
O779   Zn794   1.931   .     S
O780   Zn793   1.934   .     S
O781   Zn795   1.947   .     S
O782   Zn794   1.943   .     S
O783   Zn792   1.931   .     S
O784   Zn792   1.928   .     S
O785   Zn795   1.929   .     S
O786   Zn793   1.924   .     S
O787   Zn794   1.938   .     S
O788   Zn795   1.934   .     S
O789   Zn792   1.922   .     S
O790   Zn793   1.935   .     S
O791   Zn794   1.929   .     S
Br796  C821    1.923   .     S
Br797  C815    1.934   .     S
Br798  C910    1.926   1_455 S
C799   O841    1.272   .     A
C799   O839    1.271   .     A
C799   C805    1.438   .     S
C800   C819    1.413   .     A
C800   C814    1.402   .     A
C800   I830    2.158   .     S
C801   C814    1.403   .     A
C801   C813    1.392   .     A
C801   I829    2.124   .     S
C802   O840    1.281   .     A
C802   C804    1.457   .     S
C802   O842    1.280   .     A
C803   C812    1.487   .     S
C803   C815    1.427   .     A
C803   C818    1.426   .     A
C804   Br851   1.926   .     S
C804   C858    1.339   .     S
C805   C910    1.339   1_455 S
C805   H929    1.086   1_455 S
C806   C809    1.451   .     S
C806   C489    1.331   1_565 S
C806   H506    1.088   1_565 S
C807   C808    1.435   .     S
C808   O843    1.280   .     A
C808   O837    1.280   .     A
C809   O844    1.269   .     A
C809   O838    1.270   .     A
C810   C815    1.401   .     A
C810   C339    1.386   1_556 S
C810   I354    2.128   1_556 S
C811   C814    1.449   .     S
C811   O835    1.269   .     A
C811   O833    1.276   .     A
C812   O836    1.289   .     A
C812   O834    1.281   .     A
C816   H827    1.080   .     S
C817   C818    1.415   .     A
C817   C339    1.404   1_556 S
C817   C342    1.418   1_556 S
C818   C822    1.413   .     A
C820   C821    1.403   .     A
C820   C336    1.404   1_556 S
C820   C342    1.419   1_556 S
C821   C822    1.391   .     A
C822   H828    1.079   .     S
H823   C858    1.086   .     S
H825   C489    1.086   1_565 S
H826   C336    1.081   1_556 S
O832   Zn848   1.930   .     S
O832   Zn845   1.963   .     S
O832   Zn846   1.949   .     S
O832   Zn847   1.931   .     S
O833   Zn846   1.934   .     S
O834   Zn848   1.947   .     S
O835   Zn847   1.943   .     S
O836   Zn845   1.931   .     S
O837   Zn845   1.928   .     S
O838   Zn848   1.929   .     S
O839   Zn846   1.924   .     S
O840   Zn847   1.938   .     S
O841   Zn848   1.934   .     S
O842   Zn845   1.922   .     S
O843   Zn846   1.935   .     S
O844   Zn847   1.929   .     S
Br849  C874    1.923   .     S
Br850  C868    1.934   .     S
C852   O894    1.272   .     A
C852   O892    1.271   .     A
C852   C858    1.438   .     S
C853   C872    1.413   .     A
C853   C867    1.402   .     A
C853   I883    2.158   .     S
C854   C867    1.403   .     A
C854   C866    1.392   .     A
C854   I882    2.124   .     S
C855   O893    1.281   .     A
C855   C857    1.457   .     S
C855   O895    1.280   .     A
C856   C865    1.487   .     S
C856   C868    1.427   .     A
C856   C871    1.426   .     A
C857   Br904   1.926   .     S
C857   C911    1.339   .     S
C859   C862    1.451   .     S
C859   C542    1.331   1_565 S
C859   H559    1.088   1_565 S
C860   C861    1.435   .     S
C861   O896    1.280   .     A
C861   O890    1.280   .     A
C862   O897    1.269   .     A
C862   O891    1.270   .     A
C863   C868    1.401   .     A
C863   C392    1.386   1_556 S
C863   I407    2.128   1_556 S
C864   C867    1.449   .     S
C864   O888    1.269   .     A
C864   O886    1.276   .     A
C865   O889    1.289   .     A
C865   O887    1.281   .     A
C869   H880    1.080   .     S
C870   C871    1.415   .     A
C870   C392    1.404   1_556 S
C870   C395    1.418   1_556 S
C871   C875    1.413   .     A
C873   C874    1.403   .     A
C873   C389    1.404   1_556 S
C873   C395    1.419   1_556 S
C874   C875    1.391   .     A
C875   H881    1.079   .     S
H876   C911    1.086   .     S
H878   C542    1.086   1_565 S
H879   C389    1.081   1_556 S
O885   Zn901   1.930   .     S
O885   Zn898   1.963   .     S
O885   Zn899   1.949   .     S
O885   Zn900   1.931   .     S
O886   Zn899   1.934   .     S
O887   Zn901   1.947   .     S
O888   Zn900   1.943   .     S
O889   Zn898   1.931   .     S
O890   Zn898   1.928   .     S
O891   Zn901   1.929   .     S
O892   Zn899   1.924   .     S
O893   Zn900   1.938   .     S
O894   Zn901   1.934   .     S
O895   Zn898   1.922   .     S
O896   Zn899   1.935   .     S
O897   Zn900   1.929   .     S
Br902  C927    1.923   .     S
Br903  C921    1.934   .     S
C905   O947    1.272   .     A
C905   O945    1.271   .     A
C905   C911    1.438   .     S
C906   C925    1.413   .     A
C906   C920    1.402   .     A
C906   I936    2.158   .     S
C907   C920    1.403   .     A
C907   C919    1.392   .     A
C907   I935    2.124   .     S
C908   O946    1.281   .     A
C908   C910    1.457   .     S
C908   O948    1.280   .     A
C909   C918    1.487   .     S
C909   C921    1.427   .     A
C909   C924    1.426   .     A
C910   Br798   1.926   1_655 S
C910   C805    1.339   1_655 S
C912   C915    1.451   .     S
C912   C595    1.331   1_565 S
C912   H612    1.088   1_565 S
C913   C914    1.435   .     S
C914   O949    1.280   .     A
C914   O943    1.280   .     A
C915   O950    1.269   .     A
C915   O944    1.270   .     A
C916   C921    1.401   .     A
C916   C445    1.386   1_556 S
C916   I460    2.128   1_556 S
C917   C920    1.449   .     S
C917   O941    1.269   .     A
C917   O939    1.276   .     A
C918   O942    1.289   .     A
C918   O940    1.281   .     A
C922   H933    1.080   .     S
C923   C924    1.415   .     A
C923   C445    1.404   1_556 S
C923   C448    1.418   1_556 S
C924   C928    1.413   .     A
C926   C927    1.403   .     A
C926   C442    1.404   1_556 S
C926   C448    1.419   1_556 S
C927   C928    1.391   .     A
C928   H934    1.079   .     S
H929   C805    1.086   1_655 S
H931   C595    1.086   1_565 S
H932   C442    1.081   1_556 S
O938   Zn954   1.930   .     S
O938   Zn951   1.963   .     S
O938   Zn952   1.949   .     S
O938   Zn953   1.931   .     S
O939   Zn952   1.934   .     S
O940   Zn954   1.947   .     S
O941   Zn953   1.943   .     S
O942   Zn951   1.931   .     S
O943   Zn951   1.928   .     S
O944   Zn954   1.929   .     S
O945   Zn952   1.924   .     S
O946   Zn953   1.938   .     S
O947   Zn954   1.934   .     S
O948   Zn951   1.922   .     S
O949   Zn952   1.935   .     S
O950   Zn953   1.929   .     S
