data_str_m3_o1_o1_pcu_sym.17
_audit_creation_date              2020-01-03
_audit_creation_method            'Materials Studio'
_symmetry_space_group_name_H-M    'P1'
_symmetry_Int_Tables_number       1
_symmetry_cell_setting            triclinic
loop_
_symmetry_equiv_pos_as_xyz
  x,y,z
_cell_length_a                    30.1975
_cell_length_b                    30.1526
_cell_length_c                    29.4490
_cell_angle_alpha                 89.7131
_cell_angle_beta                  89.6542
_cell_angle_gamma                 89.9221
loop_
_atom_site_label
_atom_site_type_symbol
_atom_site_fract_x
_atom_site_fract_y
_atom_site_fract_z
_atom_site_U_iso_or_equiv
_atom_site_adp_type
_atom_site_occupancy
C1     C     0.05996   0.19016   0.16665   0.00000  Uiso   1.00
C2     C     0.01363   0.21346   0.30943   0.00000  Uiso   1.00
C3     C     0.01367   0.21348   0.02408   0.00000  Uiso   1.00
C4     C     0.48601   0.28637   0.30928   0.00000  Uiso   1.00
C5     C     0.25098   0.03897   0.02380   0.00000  Uiso   1.00
C6     C     0.24885   0.46103   0.30952   0.00000  Uiso   1.00
C7     C     0.24885   0.46103   0.02421   0.00000  Uiso   1.00
C8     C     0.25106   0.03897   0.30912   0.00000  Uiso   1.00
C9     C     0.41012   0.12372   0.12566   0.00000  Uiso   1.00
C10    C     0.08846   0.37752   0.20715   0.00000  Uiso   1.00
C11    C     0.09371   0.37563   0.12408   0.00000  Uiso   1.00
C12    C     0.43991   0.30966   0.16669   0.00000  Uiso   1.00
C13    C     0.40673   0.12449   0.20891   0.00000  Uiso   1.00
C14    C     0.08102   0.11337   0.17766   0.00000  Uiso   1.00
C15    C     0.41937   0.38661   0.15676   0.00000  Uiso   1.00
C16    C     0.36288   0.33012   0.17670   0.00000  Uiso   1.00
C17    C     0.13689   0.16966   0.15547   0.00000  Uiso   1.00
C18    C     0.12300   0.41127   0.12566   0.00000  Uiso   1.00
C19    C     0.37620   0.08997   0.20785   0.00000  Uiso   1.00
C20    C     0.37521   0.09371   0.12454   0.00000  Uiso   1.00
C21    C     0.12400   0.40687   0.20888   0.00000  Uiso   1.00
C22    C     0.33067   0.36331   0.17900   0.00000  Uiso   1.00
C23    C     0.44355   0.18650   0.16691   0.00000  Uiso   1.00
C24    C     0.17002   0.13740   0.15780   0.00000  Uiso   1.00
C25    C     0.11330   0.08043   0.17538   0.00000  Uiso   1.00
C26    C     0.38638   0.41884   0.15442   0.00000  Uiso   1.00
C27    C     0.07965   0.35604   0.16563   0.00000  Uiso   1.00
C28    C     0.41953   0.14477   0.16734   0.00000  Uiso   1.00
C29    C     0.40676   0.34273   0.16674   0.00000  Uiso   1.00
C30    C     0.09324   0.15712   0.16658   0.00000  Uiso   1.00
C31    C     0.35504   0.08075   0.16613   0.00000  Uiso   1.00
C32    C     0.14399   0.42054   0.16739   0.00000  Uiso   1.00
C33    C     0.15729   0.09328   0.16665   0.00000  Uiso   1.00
C34    C     0.05605   0.31386   0.16636   0.00000  Uiso   1.00
C35    C     0.34291   0.40678   0.16667   0.00000  Uiso   1.00
C36    C     0.43796   0.13152   0.08428   0.00000  Uiso   1.00
C37    C     0.05845   0.37290   0.24730   0.00000  Uiso   1.00
C38    C     0.07614   0.36131   0.07940   0.00000  Uiso   1.00
C39    C     0.42565   0.13778   0.25327   0.00000  Uiso   1.00
C40    C     0.03471   0.10293   0.19178   0.00000  Uiso   1.00
C41    C     0.46707   0.39819   0.15054   0.00000  Uiso   1.00
C42    C     0.35133   0.28223   0.18242   0.00000  Uiso   1.00
C43    C     0.14678   0.21621   0.14112   0.00000  Uiso   1.00
C44    C     0.12864   0.44031   0.08475   0.00000  Uiso   1.00
C45    C     0.30987   0.44006   0.16666   0.00000  Uiso   1.00
C46    C     0.36766   0.06270   0.24950   0.00000  Uiso   1.00
C47    C     0.36110   0.07589   0.08002   0.00000  Uiso   1.00
C48    C     0.13789   0.42481   0.25360   0.00000  Uiso   1.00
C49    C     0.28449   0.35362   0.19450   0.00000  Uiso   1.00
C50    C     0.21792   0.14905   0.15312   0.00000  Uiso   1.00
C51    C     0.10171   0.03256   0.18046   0.00000  Uiso   1.00
C52    C     0.39648   0.46492   0.13907   0.00000  Uiso   1.00
C53    C     0.19036   0.06011   0.16667   0.00000  Uiso   1.00
C54    C     0.18616   0.44399   0.16692   0.00000  Uiso   1.00
C55    C     0.31338   0.05664   0.16646   0.00000  Uiso   1.00
C56    C     0.48614   0.28643   0.02391   0.00000  Uiso   1.00
H57    H     0.47504   0.31557   0.04198   0.00000  Uiso   1.00
H58    H     0.07139   0.37081   0.28147   0.00000  Uiso   1.00
H59    H     0.04072   0.35984   0.07390   0.00000  Uiso   1.00
H60    H     0.41502   0.16836   0.26931   0.00000  Uiso   1.00
H61    H     0.00730   0.12038   0.17639   0.00000  Uiso   1.00
H62    H     0.48937   0.37523   0.13398   0.00000  Uiso   1.00
H63    H     0.37452   0.25939   0.19804   0.00000  Uiso   1.00
H64    H     0.12851   0.24368   0.15581   0.00000  Uiso   1.00
H65    H     0.13030   0.42644   0.05093   0.00000  Uiso   1.00
H66    H     0.36545   0.02688   0.24674   0.00000  Uiso   1.00
H67    H     0.33158   0.08884   0.06383   0.00000  Uiso   1.00
H68    H     0.02441   0.18421   0.29134   0.00000  Uiso   1.00
H69    H     0.14057   0.46032   0.25855   0.00000  Uiso   1.00
H70    H     0.25674   0.37147   0.17991   0.00000  Uiso   1.00
H71    H     0.24097   0.12611   0.13736   0.00000  Uiso   1.00
H72    H     0.12424   0.01007   0.19728   0.00000  Uiso   1.00
H73    H     0.37930   0.49270   0.15417   0.00000  Uiso   1.00
H74    H     0.02462   0.18429   0.04230   0.00000  Uiso   1.00
H75    H     0.47449   0.31534   0.29114   0.00000  Uiso   1.00
H76    H     0.25165   0.07009   0.04189   0.00000  Uiso   1.00
H77    H     0.24792   0.42991   0.29142   0.00000  Uiso   1.00
H78    H     0.24791   0.42991   0.04263   0.00000  Uiso   1.00
H79    H     0.25193   0.07009   0.29070   0.00000  Uiso   1.00
H80    H     0.47369   0.13333   0.08757   0.00000  Uiso   1.00
N81    N     0.00000   0.25000   0.28573   0.00000  Uiso   1.00
N82    N    -0.00000   0.25000   0.04760   0.00000  Uiso   1.00
N83    N     0.25000   0.00000   0.28573   0.00000  Uiso   1.00
N84    N     0.25000   0.00000   0.04760   0.00000  Uiso   1.00
O85    O     0.04580   0.20419   0.20487   0.00000  Uiso   1.00
O86    O     0.20419   0.04581   0.12846   0.00000  Uiso   1.00
O87    O     0.20419   0.04581   0.20487   0.00000  Uiso   1.00
O88    O     0.29580   0.45419   0.12846   0.00000  Uiso   1.00
O89    O     0.20419   0.45419   0.12846   0.00000  Uiso   1.00
O90    O     0.29580   0.04581   0.20487   0.00000  Uiso   1.00
O91    O     0.29580   0.04581   0.12846   0.00000  Uiso   1.00
O92    O     0.20419   0.45419   0.20487   0.00000  Uiso   1.00
O93    O     0.42147   0.13742   0.04697   0.00000  Uiso   1.00
O94    O     0.01835   0.37316   0.24233   0.00000  Uiso   1.00
O95    O     0.10124   0.34985   0.04898   0.00000  Uiso   1.00
O96    O     0.45419   0.29581   0.12846   0.00000  Uiso   1.00
O97    O     0.45267   0.11414   0.27234   0.00000  Uiso   1.00
O98    O     0.02698   0.07589   0.22178   0.00000  Uiso   1.00
O99    O     0.48219   0.43266   0.16553   0.00000  Uiso   1.00
O100   O     0.31660   0.26745   0.16784   0.00000  Uiso   1.00
O101   O     0.17400   0.22411   0.11134   0.00000  Uiso   1.00
O102   O     0.12979   0.48059   0.08856   0.00000  Uiso   1.00
O103   O     0.36153   0.07985   0.28650   0.00000  Uiso   1.00
O104   O     0.38281   0.04717   0.06112   0.00000  Uiso   1.00
O105   O     0.14769   0.39987   0.28475   0.00000  Uiso   1.00
O106   O     0.27721   0.32707   0.22508   0.00000  Uiso   1.00
O107   O     0.45419   0.29581   0.20487   0.00000  Uiso   1.00
O108   O     0.23244   0.18352   0.16867   0.00000  Uiso   1.00
O109   O     0.06777   0.01758   0.16426   0.00000  Uiso   1.00
O110   O     0.42291   0.47201   0.10835   0.00000  Uiso   1.00
O111   O     0.04580   0.20419   0.12846   0.00000  Uiso   1.00
O112   O     0.45419   0.20419   0.12846   0.00000  Uiso   1.00
O113   O     0.04580   0.29581   0.20487   0.00000  Uiso   1.00
O114   O     0.04580   0.29581   0.12846   0.00000  Uiso   1.00
O115   O     0.45419   0.20419   0.20487   0.00000  Uiso   1.00
O116   O     0.29580   0.45419   0.20487   0.00000  Uiso   1.00
Zn117  Zn    0.00000   0.25000   0.21771   0.00000  Uiso   1.00
Zn118  Zn    0.00000   0.25000   0.11563   0.00000  Uiso   1.00
Zn119  Zn    0.25000   0.00000   0.21771   0.00000  Uiso   1.00
Zn120  Zn    0.25000   0.00000   0.11563   0.00000  Uiso   1.00
C121   C     0.55996   0.19016   0.16665   0.00000  Uiso   1.00
C122   C     0.51363   0.21346   0.30943   0.00000  Uiso   1.00
C123   C     0.51367   0.21348   0.02408   0.00000  Uiso   1.00
C124   C     0.98601   0.28637   0.30928   0.00000  Uiso   1.00
C125   C     0.75098   0.03897   0.02380   0.00000  Uiso   1.00
C126   C     0.74885   0.46103   0.30952   0.00000  Uiso   1.00
C127   C     0.74885   0.46103   0.02421   0.00000  Uiso   1.00
C128   C     0.75106   0.03897   0.30912   0.00000  Uiso   1.00
C129   C     0.91012   0.12372   0.12566   0.00000  Uiso   1.00
C130   C     0.58846   0.37752   0.20715   0.00000  Uiso   1.00
C131   C     0.59371   0.37563   0.12408   0.00000  Uiso   1.00
C132   C     0.93991   0.30966   0.16669   0.00000  Uiso   1.00
C133   C     0.90673   0.12449   0.20891   0.00000  Uiso   1.00
C134   C     0.58102   0.11337   0.17766   0.00000  Uiso   1.00
C135   C     0.91937   0.38661   0.15676   0.00000  Uiso   1.00
C136   C     0.86288   0.33012   0.17670   0.00000  Uiso   1.00
C137   C     0.63689   0.16966   0.15547   0.00000  Uiso   1.00
C138   C     0.62300   0.41127   0.12566   0.00000  Uiso   1.00
C139   C     0.87620   0.08997   0.20785   0.00000  Uiso   1.00
C140   C     0.87521   0.09371   0.12454   0.00000  Uiso   1.00
C141   C     0.62400   0.40687   0.20888   0.00000  Uiso   1.00
C142   C     0.83067   0.36331   0.17900   0.00000  Uiso   1.00
C143   C     0.94355   0.18650   0.16691   0.00000  Uiso   1.00
C144   C     0.67002   0.13740   0.15780   0.00000  Uiso   1.00
C145   C     0.61330   0.08043   0.17538   0.00000  Uiso   1.00
C146   C     0.88638   0.41884   0.15442   0.00000  Uiso   1.00
C147   C     0.57965   0.35604   0.16563   0.00000  Uiso   1.00
C148   C     0.91953   0.14477   0.16734   0.00000  Uiso   1.00
C149   C     0.90676   0.34273   0.16674   0.00000  Uiso   1.00
C150   C     0.59324   0.15712   0.16658   0.00000  Uiso   1.00
C151   C     0.85504   0.08075   0.16613   0.00000  Uiso   1.00
C152   C     0.64399   0.42054   0.16739   0.00000  Uiso   1.00
C153   C     0.65729   0.09328   0.16665   0.00000  Uiso   1.00
C154   C     0.55605   0.31386   0.16636   0.00000  Uiso   1.00
C155   C     0.84291   0.40678   0.16667   0.00000  Uiso   1.00
C156   C     0.93796   0.13152   0.08428   0.00000  Uiso   1.00
C157   C     0.55845   0.37290   0.24730   0.00000  Uiso   1.00
C158   C     0.57614   0.36131   0.07940   0.00000  Uiso   1.00
C159   C     0.92565   0.13778   0.25327   0.00000  Uiso   1.00
C160   C     0.53471   0.10293   0.19178   0.00000  Uiso   1.00
C161   C     0.96707   0.39819   0.15054   0.00000  Uiso   1.00
C162   C     0.85133   0.28223   0.18242   0.00000  Uiso   1.00
C163   C     0.64678   0.21621   0.14112   0.00000  Uiso   1.00
C164   C     0.62864   0.44031   0.08475   0.00000  Uiso   1.00
C165   C     0.80987   0.44006   0.16666   0.00000  Uiso   1.00
C166   C     0.86766   0.06270   0.24950   0.00000  Uiso   1.00
C167   C     0.86110   0.07589   0.08002   0.00000  Uiso   1.00
C168   C     0.63789   0.42481   0.25360   0.00000  Uiso   1.00
C169   C     0.78449   0.35362   0.19450   0.00000  Uiso   1.00
C170   C     0.71792   0.14905   0.15312   0.00000  Uiso   1.00
C171   C     0.60171   0.03256   0.18046   0.00000  Uiso   1.00
C172   C     0.89648   0.46492   0.13907   0.00000  Uiso   1.00
C173   C     0.69036   0.06011   0.16667   0.00000  Uiso   1.00
C174   C     0.68616   0.44399   0.16692   0.00000  Uiso   1.00
C175   C     0.81338   0.05664   0.16646   0.00000  Uiso   1.00
C176   C     0.98614   0.28643   0.02391   0.00000  Uiso   1.00
H177   H     0.97504   0.31557   0.04198   0.00000  Uiso   1.00
H178   H     0.57139   0.37081   0.28147   0.00000  Uiso   1.00
H179   H     0.54072   0.35984   0.07390   0.00000  Uiso   1.00
H180   H     0.91502   0.16836   0.26931   0.00000  Uiso   1.00
H181   H     0.50730   0.12038   0.17639   0.00000  Uiso   1.00
H182   H     0.98937   0.37523   0.13398   0.00000  Uiso   1.00
H183   H     0.87452   0.25939   0.19804   0.00000  Uiso   1.00
H184   H     0.62851   0.24368   0.15581   0.00000  Uiso   1.00
H185   H     0.63030   0.42644   0.05093   0.00000  Uiso   1.00
H186   H     0.86545   0.02688   0.24674   0.00000  Uiso   1.00
H187   H     0.83158   0.08884   0.06383   0.00000  Uiso   1.00
H188   H     0.52441   0.18421   0.29134   0.00000  Uiso   1.00
H189   H     0.64057   0.46032   0.25855   0.00000  Uiso   1.00
H190   H     0.75674   0.37147   0.17991   0.00000  Uiso   1.00
H191   H     0.74097   0.12611   0.13736   0.00000  Uiso   1.00
H192   H     0.62424   0.01007   0.19728   0.00000  Uiso   1.00
H193   H     0.87930   0.49270   0.15417   0.00000  Uiso   1.00
H194   H     0.52462   0.18429   0.04230   0.00000  Uiso   1.00
H195   H     0.97449   0.31534   0.29114   0.00000  Uiso   1.00
H196   H     0.75165   0.07009   0.04189   0.00000  Uiso   1.00
H197   H     0.74792   0.42991   0.29142   0.00000  Uiso   1.00
H198   H     0.74791   0.42991   0.04263   0.00000  Uiso   1.00
H199   H     0.75193   0.07009   0.29070   0.00000  Uiso   1.00
H200   H     0.97369   0.13333   0.08757   0.00000  Uiso   1.00
N201   N     0.50000   0.25000   0.28573   0.00000  Uiso   1.00
N202   N     0.50000   0.25000   0.04760   0.00000  Uiso   1.00
N203   N     0.75000   0.00000   0.28573   0.00000  Uiso   1.00
N204   N     0.75000   0.00000   0.04760   0.00000  Uiso   1.00
O205   O     0.54580   0.20419   0.20487   0.00000  Uiso   1.00
O206   O     0.70419   0.04581   0.12846   0.00000  Uiso   1.00
O207   O     0.70419   0.04581   0.20487   0.00000  Uiso   1.00
O208   O     0.79580   0.45419   0.12846   0.00000  Uiso   1.00
O209   O     0.70419   0.45419   0.12846   0.00000  Uiso   1.00
O210   O     0.79580   0.04581   0.20487   0.00000  Uiso   1.00
O211   O     0.79580   0.04581   0.12846   0.00000  Uiso   1.00
O212   O     0.70419   0.45419   0.20487   0.00000  Uiso   1.00
O213   O     0.92147   0.13742   0.04697   0.00000  Uiso   1.00
O214   O     0.51835   0.37316   0.24233   0.00000  Uiso   1.00
O215   O     0.60124   0.34985   0.04898   0.00000  Uiso   1.00
O216   O     0.95419   0.29581   0.12846   0.00000  Uiso   1.00
O217   O     0.95267   0.11414   0.27234   0.00000  Uiso   1.00
O218   O     0.52698   0.07589   0.22178   0.00000  Uiso   1.00
O219   O     0.98219   0.43266   0.16553   0.00000  Uiso   1.00
O220   O     0.81660   0.26745   0.16784   0.00000  Uiso   1.00
O221   O     0.67400   0.22411   0.11134   0.00000  Uiso   1.00
O222   O     0.62979   0.48059   0.08856   0.00000  Uiso   1.00
O223   O     0.86153   0.07985   0.28650   0.00000  Uiso   1.00
O224   O     0.88281   0.04717   0.06112   0.00000  Uiso   1.00
O225   O     0.64769   0.39987   0.28475   0.00000  Uiso   1.00
O226   O     0.77721   0.32707   0.22508   0.00000  Uiso   1.00
O227   O     0.95419   0.29581   0.20487   0.00000  Uiso   1.00
O228   O     0.73244   0.18352   0.16867   0.00000  Uiso   1.00
O229   O     0.56777   0.01758   0.16426   0.00000  Uiso   1.00
O230   O     0.92291   0.47201   0.10835   0.00000  Uiso   1.00
O231   O     0.54580   0.20419   0.12846   0.00000  Uiso   1.00
O232   O     0.95419   0.20419   0.12846   0.00000  Uiso   1.00
O233   O     0.54580   0.29581   0.20487   0.00000  Uiso   1.00
O234   O     0.54580   0.29581   0.12846   0.00000  Uiso   1.00
O235   O     0.95419   0.20419   0.20487   0.00000  Uiso   1.00
O236   O     0.79580   0.45419   0.20487   0.00000  Uiso   1.00
Zn237  Zn    0.50000   0.25000   0.21771   0.00000  Uiso   1.00
Zn238  Zn    0.50000   0.25000   0.11563   0.00000  Uiso   1.00
Zn239  Zn    0.75000   0.00000   0.21771   0.00000  Uiso   1.00
Zn240  Zn    0.75000   0.00000   0.11563   0.00000  Uiso   1.00
C241   C     0.05996   0.69016   0.16665   0.00000  Uiso   1.00
C242   C     0.01363   0.71346   0.30943   0.00000  Uiso   1.00
C243   C     0.01367   0.71348   0.02408   0.00000  Uiso   1.00
C244   C     0.48601   0.78637   0.30928   0.00000  Uiso   1.00
C245   C     0.25098   0.53897   0.02380   0.00000  Uiso   1.00
C246   C     0.24885   0.96103   0.30952   0.00000  Uiso   1.00
C247   C     0.24885   0.96103   0.02421   0.00000  Uiso   1.00
C248   C     0.25106   0.53897   0.30912   0.00000  Uiso   1.00
C249   C     0.41012   0.62372   0.12566   0.00000  Uiso   1.00
C250   C     0.08846   0.87752   0.20715   0.00000  Uiso   1.00
C251   C     0.09371   0.87563   0.12408   0.00000  Uiso   1.00
C252   C     0.43991   0.80966   0.16669   0.00000  Uiso   1.00
C253   C     0.40673   0.62449   0.20891   0.00000  Uiso   1.00
C254   C     0.08102   0.61337   0.17766   0.00000  Uiso   1.00
C255   C     0.41937   0.88661   0.15676   0.00000  Uiso   1.00
C256   C     0.36288   0.83012   0.17670   0.00000  Uiso   1.00
C257   C     0.13689   0.66966   0.15547   0.00000  Uiso   1.00
C258   C     0.12300   0.91127   0.12566   0.00000  Uiso   1.00
C259   C     0.37620   0.58997   0.20785   0.00000  Uiso   1.00
C260   C     0.37521   0.59371   0.12454   0.00000  Uiso   1.00
C261   C     0.12400   0.90687   0.20888   0.00000  Uiso   1.00
C262   C     0.33067   0.86331   0.17900   0.00000  Uiso   1.00
C263   C     0.44355   0.68650   0.16691   0.00000  Uiso   1.00
C264   C     0.17002   0.63740   0.15780   0.00000  Uiso   1.00
C265   C     0.11330   0.58043   0.17538   0.00000  Uiso   1.00
C266   C     0.38638   0.91884   0.15442   0.00000  Uiso   1.00
C267   C     0.07965   0.85604   0.16563   0.00000  Uiso   1.00
C268   C     0.41953   0.64477   0.16734   0.00000  Uiso   1.00
C269   C     0.40676   0.84273   0.16674   0.00000  Uiso   1.00
C270   C     0.09324   0.65712   0.16658   0.00000  Uiso   1.00
C271   C     0.35504   0.58075   0.16613   0.00000  Uiso   1.00
C272   C     0.14399   0.92054   0.16739   0.00000  Uiso   1.00
C273   C     0.15729   0.59328   0.16665   0.00000  Uiso   1.00
C274   C     0.05605   0.81386   0.16636   0.00000  Uiso   1.00
C275   C     0.34291   0.90678   0.16667   0.00000  Uiso   1.00
C276   C     0.43796   0.63152   0.08428   0.00000  Uiso   1.00
C277   C     0.05845   0.87290   0.24730   0.00000  Uiso   1.00
C278   C     0.07614   0.86131   0.07940   0.00000  Uiso   1.00
C279   C     0.42565   0.63778   0.25327   0.00000  Uiso   1.00
C280   C     0.03471   0.60293   0.19178   0.00000  Uiso   1.00
C281   C     0.46707   0.89819   0.15054   0.00000  Uiso   1.00
C282   C     0.35133   0.78223   0.18242   0.00000  Uiso   1.00
C283   C     0.14678   0.71621   0.14112   0.00000  Uiso   1.00
C284   C     0.12864   0.94031   0.08475   0.00000  Uiso   1.00
C285   C     0.30987   0.94006   0.16666   0.00000  Uiso   1.00
C286   C     0.36766   0.56270   0.24950   0.00000  Uiso   1.00
C287   C     0.36110   0.57589   0.08002   0.00000  Uiso   1.00
C288   C     0.13789   0.92481   0.25360   0.00000  Uiso   1.00
C289   C     0.28449   0.85362   0.19450   0.00000  Uiso   1.00
C290   C     0.21792   0.64905   0.15312   0.00000  Uiso   1.00
C291   C     0.10171   0.53256   0.18046   0.00000  Uiso   1.00
C292   C     0.39648   0.96492   0.13907   0.00000  Uiso   1.00
C293   C     0.19036   0.56011   0.16667   0.00000  Uiso   1.00
C294   C     0.18616   0.94399   0.16692   0.00000  Uiso   1.00
C295   C     0.31338   0.55664   0.16646   0.00000  Uiso   1.00
C296   C     0.48614   0.78643   0.02391   0.00000  Uiso   1.00
H297   H     0.47504   0.81557   0.04198   0.00000  Uiso   1.00
H298   H     0.07139   0.87081   0.28147   0.00000  Uiso   1.00
H299   H     0.04072   0.85984   0.07390   0.00000  Uiso   1.00
H300   H     0.41502   0.66836   0.26931   0.00000  Uiso   1.00
H301   H     0.00730   0.62038   0.17639   0.00000  Uiso   1.00
H302   H     0.48937   0.87523   0.13398   0.00000  Uiso   1.00
H303   H     0.37452   0.75939   0.19804   0.00000  Uiso   1.00
H304   H     0.12851   0.74368   0.15581   0.00000  Uiso   1.00
H305   H     0.13030   0.92644   0.05093   0.00000  Uiso   1.00
H306   H     0.36545   0.52688   0.24674   0.00000  Uiso   1.00
H307   H     0.33158   0.58884   0.06383   0.00000  Uiso   1.00
H308   H     0.02441   0.68421   0.29134   0.00000  Uiso   1.00
H309   H     0.14057   0.96032   0.25855   0.00000  Uiso   1.00
H310   H     0.25674   0.87147   0.17991   0.00000  Uiso   1.00
H311   H     0.24097   0.62611   0.13736   0.00000  Uiso   1.00
H312   H     0.12424   0.51007   0.19728   0.00000  Uiso   1.00
H313   H     0.37930   0.99270   0.15417   0.00000  Uiso   1.00
H314   H     0.02462   0.68429   0.04230   0.00000  Uiso   1.00
H315   H     0.47449   0.81534   0.29114   0.00000  Uiso   1.00
H316   H     0.25165   0.57009   0.04189   0.00000  Uiso   1.00
H317   H     0.24792   0.92991   0.29142   0.00000  Uiso   1.00
H318   H     0.24791   0.92991   0.04263   0.00000  Uiso   1.00
H319   H     0.25193   0.57009   0.29070   0.00000  Uiso   1.00
H320   H     0.47369   0.63333   0.08757   0.00000  Uiso   1.00
N321   N     0.00000   0.75000   0.28573   0.00000  Uiso   1.00
N322   N    -0.00000   0.75000   0.04760   0.00000  Uiso   1.00
N323   N     0.25000   0.50000   0.28573   0.00000  Uiso   1.00
N324   N     0.25000   0.50000   0.04760   0.00000  Uiso   1.00
O325   O     0.04580   0.70419   0.20487   0.00000  Uiso   1.00
O326   O     0.20419   0.54581   0.12846   0.00000  Uiso   1.00
O327   O     0.20419   0.54581   0.20487   0.00000  Uiso   1.00
O328   O     0.29580   0.95419   0.12846   0.00000  Uiso   1.00
O329   O     0.20419   0.95419   0.12846   0.00000  Uiso   1.00
O330   O     0.29580   0.54581   0.20487   0.00000  Uiso   1.00
O331   O     0.29580   0.54581   0.12846   0.00000  Uiso   1.00
O332   O     0.20419   0.95419   0.20487   0.00000  Uiso   1.00
O333   O     0.42147   0.63742   0.04697   0.00000  Uiso   1.00
O334   O     0.01835   0.87316   0.24233   0.00000  Uiso   1.00
O335   O     0.10124   0.84985   0.04898   0.00000  Uiso   1.00
O336   O     0.45419   0.79581   0.12846   0.00000  Uiso   1.00
O337   O     0.45267   0.61414   0.27234   0.00000  Uiso   1.00
O338   O     0.02698   0.57589   0.22178   0.00000  Uiso   1.00
O339   O     0.48219   0.93266   0.16553   0.00000  Uiso   1.00
O340   O     0.31660   0.76745   0.16784   0.00000  Uiso   1.00
O341   O     0.17400   0.72411   0.11134   0.00000  Uiso   1.00
O342   O     0.12979   0.98059   0.08856   0.00000  Uiso   1.00
O343   O     0.36153   0.57985   0.28650   0.00000  Uiso   1.00
O344   O     0.38281   0.54717   0.06112   0.00000  Uiso   1.00
O345   O     0.14769   0.89987   0.28475   0.00000  Uiso   1.00
O346   O     0.27721   0.82707   0.22508   0.00000  Uiso   1.00
O347   O     0.45419   0.79581   0.20487   0.00000  Uiso   1.00
O348   O     0.23244   0.68352   0.16867   0.00000  Uiso   1.00
O349   O     0.06777   0.51758   0.16426   0.00000  Uiso   1.00
O350   O     0.42291   0.97201   0.10835   0.00000  Uiso   1.00
O351   O     0.04580   0.70419   0.12846   0.00000  Uiso   1.00
O352   O     0.45419   0.70419   0.12846   0.00000  Uiso   1.00
O353   O     0.04580   0.79581   0.20487   0.00000  Uiso   1.00
O354   O     0.04580   0.79581   0.12846   0.00000  Uiso   1.00
O355   O     0.45419   0.70419   0.20487   0.00000  Uiso   1.00
O356   O     0.29580   0.95419   0.20487   0.00000  Uiso   1.00
Zn357  Zn    0.00000   0.75000   0.21771   0.00000  Uiso   1.00
Zn358  Zn    0.00000   0.75000   0.11563   0.00000  Uiso   1.00
Zn359  Zn    0.25000   0.50000   0.21771   0.00000  Uiso   1.00
Zn360  Zn    0.25000   0.50000   0.11563   0.00000  Uiso   1.00
C361   C     0.55996   0.69016   0.16665   0.00000  Uiso   1.00
C362   C     0.51363   0.71346   0.30943   0.00000  Uiso   1.00
C363   C     0.51367   0.71348   0.02408   0.00000  Uiso   1.00
C364   C     0.98601   0.78637   0.30928   0.00000  Uiso   1.00
C365   C     0.75098   0.53897   0.02380   0.00000  Uiso   1.00
C366   C     0.74885   0.96103   0.30952   0.00000  Uiso   1.00
C367   C     0.74885   0.96103   0.02421   0.00000  Uiso   1.00
C368   C     0.75106   0.53897   0.30912   0.00000  Uiso   1.00
C369   C     0.91012   0.62372   0.12566   0.00000  Uiso   1.00
C370   C     0.58846   0.87752   0.20715   0.00000  Uiso   1.00
C371   C     0.59371   0.87563   0.12408   0.00000  Uiso   1.00
C372   C     0.93991   0.80966   0.16669   0.00000  Uiso   1.00
C373   C     0.90673   0.62449   0.20891   0.00000  Uiso   1.00
C374   C     0.58102   0.61337   0.17766   0.00000  Uiso   1.00
C375   C     0.91937   0.88661   0.15676   0.00000  Uiso   1.00
C376   C     0.86288   0.83012   0.17670   0.00000  Uiso   1.00
C377   C     0.63689   0.66966   0.15547   0.00000  Uiso   1.00
C378   C     0.62300   0.91127   0.12566   0.00000  Uiso   1.00
C379   C     0.87620   0.58997   0.20785   0.00000  Uiso   1.00
C380   C     0.87521   0.59371   0.12454   0.00000  Uiso   1.00
C381   C     0.62400   0.90687   0.20888   0.00000  Uiso   1.00
C382   C     0.83067   0.86331   0.17900   0.00000  Uiso   1.00
C383   C     0.94355   0.68650   0.16691   0.00000  Uiso   1.00
C384   C     0.67002   0.63740   0.15780   0.00000  Uiso   1.00
C385   C     0.61330   0.58043   0.17538   0.00000  Uiso   1.00
C386   C     0.88638   0.91884   0.15442   0.00000  Uiso   1.00
C387   C     0.57965   0.85604   0.16563   0.00000  Uiso   1.00
C388   C     0.91953   0.64477   0.16734   0.00000  Uiso   1.00
C389   C     0.90676   0.84273   0.16674   0.00000  Uiso   1.00
C390   C     0.59324   0.65712   0.16658   0.00000  Uiso   1.00
C391   C     0.85504   0.58075   0.16613   0.00000  Uiso   1.00
C392   C     0.64399   0.92054   0.16739   0.00000  Uiso   1.00
C393   C     0.65729   0.59328   0.16665   0.00000  Uiso   1.00
C394   C     0.55605   0.81386   0.16636   0.00000  Uiso   1.00
C395   C     0.84291   0.90678   0.16667   0.00000  Uiso   1.00
C396   C     0.93796   0.63152   0.08428   0.00000  Uiso   1.00
C397   C     0.55845   0.87290   0.24730   0.00000  Uiso   1.00
C398   C     0.57614   0.86131   0.07940   0.00000  Uiso   1.00
C399   C     0.92565   0.63778   0.25327   0.00000  Uiso   1.00
C400   C     0.53471   0.60293   0.19178   0.00000  Uiso   1.00
C401   C     0.96707   0.89819   0.15054   0.00000  Uiso   1.00
C402   C     0.85133   0.78223   0.18242   0.00000  Uiso   1.00
C403   C     0.64678   0.71621   0.14112   0.00000  Uiso   1.00
C404   C     0.62864   0.94031   0.08475   0.00000  Uiso   1.00
C405   C     0.80987   0.94006   0.16666   0.00000  Uiso   1.00
C406   C     0.86766   0.56270   0.24950   0.00000  Uiso   1.00
C407   C     0.86110   0.57589   0.08002   0.00000  Uiso   1.00
C408   C     0.63789   0.92481   0.25360   0.00000  Uiso   1.00
C409   C     0.78449   0.85362   0.19450   0.00000  Uiso   1.00
C410   C     0.71792   0.64905   0.15312   0.00000  Uiso   1.00
C411   C     0.60171   0.53256   0.18046   0.00000  Uiso   1.00
C412   C     0.89648   0.96492   0.13907   0.00000  Uiso   1.00
C413   C     0.69036   0.56011   0.16667   0.00000  Uiso   1.00
C414   C     0.68616   0.94399   0.16692   0.00000  Uiso   1.00
C415   C     0.81338   0.55664   0.16646   0.00000  Uiso   1.00
C416   C     0.98614   0.78643   0.02391   0.00000  Uiso   1.00
H417   H     0.97504   0.81557   0.04198   0.00000  Uiso   1.00
H418   H     0.57139   0.87081   0.28147   0.00000  Uiso   1.00
H419   H     0.54072   0.85984   0.07390   0.00000  Uiso   1.00
H420   H     0.91502   0.66836   0.26931   0.00000  Uiso   1.00
H421   H     0.50730   0.62038   0.17639   0.00000  Uiso   1.00
H422   H     0.98937   0.87523   0.13398   0.00000  Uiso   1.00
H423   H     0.87452   0.75939   0.19804   0.00000  Uiso   1.00
H424   H     0.62851   0.74368   0.15581   0.00000  Uiso   1.00
H425   H     0.63030   0.92644   0.05093   0.00000  Uiso   1.00
H426   H     0.86545   0.52688   0.24674   0.00000  Uiso   1.00
H427   H     0.83158   0.58884   0.06383   0.00000  Uiso   1.00
H428   H     0.52441   0.68421   0.29134   0.00000  Uiso   1.00
H429   H     0.64057   0.96032   0.25855   0.00000  Uiso   1.00
H430   H     0.75674   0.87147   0.17991   0.00000  Uiso   1.00
H431   H     0.74097   0.62611   0.13736   0.00000  Uiso   1.00
H432   H     0.62424   0.51007   0.19728   0.00000  Uiso   1.00
H433   H     0.87930   0.99270   0.15417   0.00000  Uiso   1.00
H434   H     0.52462   0.68429   0.04230   0.00000  Uiso   1.00
H435   H     0.97449   0.81534   0.29114   0.00000  Uiso   1.00
H436   H     0.75165   0.57009   0.04189   0.00000  Uiso   1.00
H437   H     0.74792   0.92991   0.29142   0.00000  Uiso   1.00
H438   H     0.74791   0.92991   0.04263   0.00000  Uiso   1.00
H439   H     0.75193   0.57009   0.29070   0.00000  Uiso   1.00
H440   H     0.97369   0.63333   0.08757   0.00000  Uiso   1.00
N441   N     0.50000   0.75000   0.28573   0.00000  Uiso   1.00
N442   N     0.50000   0.75000   0.04760   0.00000  Uiso   1.00
N443   N     0.75000   0.50000   0.28573   0.00000  Uiso   1.00
N444   N     0.75000   0.50000   0.04760   0.00000  Uiso   1.00
O445   O     0.54580   0.70419   0.20487   0.00000  Uiso   1.00
O446   O     0.70419   0.54581   0.12846   0.00000  Uiso   1.00
O447   O     0.70419   0.54581   0.20487   0.00000  Uiso   1.00
O448   O     0.79580   0.95419   0.12846   0.00000  Uiso   1.00
O449   O     0.70419   0.95419   0.12846   0.00000  Uiso   1.00
O450   O     0.79580   0.54581   0.20487   0.00000  Uiso   1.00
O451   O     0.79580   0.54581   0.12846   0.00000  Uiso   1.00
O452   O     0.70419   0.95419   0.20487   0.00000  Uiso   1.00
O453   O     0.92147   0.63742   0.04697   0.00000  Uiso   1.00
O454   O     0.51835   0.87316   0.24233   0.00000  Uiso   1.00
O455   O     0.60124   0.84985   0.04898   0.00000  Uiso   1.00
O456   O     0.95419   0.79581   0.12846   0.00000  Uiso   1.00
O457   O     0.95267   0.61414   0.27234   0.00000  Uiso   1.00
O458   O     0.52698   0.57589   0.22178   0.00000  Uiso   1.00
O459   O     0.98219   0.93266   0.16553   0.00000  Uiso   1.00
O460   O     0.81660   0.76745   0.16784   0.00000  Uiso   1.00
O461   O     0.67400   0.72411   0.11134   0.00000  Uiso   1.00
O462   O     0.62979   0.98059   0.08856   0.00000  Uiso   1.00
O463   O     0.86153   0.57985   0.28650   0.00000  Uiso   1.00
O464   O     0.88281   0.54717   0.06112   0.00000  Uiso   1.00
O465   O     0.64769   0.89987   0.28475   0.00000  Uiso   1.00
O466   O     0.77721   0.82707   0.22508   0.00000  Uiso   1.00
O467   O     0.95419   0.79581   0.20487   0.00000  Uiso   1.00
O468   O     0.73244   0.68352   0.16867   0.00000  Uiso   1.00
O469   O     0.56777   0.51758   0.16426   0.00000  Uiso   1.00
O470   O     0.92291   0.97201   0.10835   0.00000  Uiso   1.00
O471   O     0.54580   0.70419   0.12846   0.00000  Uiso   1.00
O472   O     0.95419   0.70419   0.12846   0.00000  Uiso   1.00
O473   O     0.54580   0.79581   0.20487   0.00000  Uiso   1.00
O474   O     0.54580   0.79581   0.12846   0.00000  Uiso   1.00
O475   O     0.95419   0.70419   0.20487   0.00000  Uiso   1.00
O476   O     0.79580   0.95419   0.20487   0.00000  Uiso   1.00
Zn477  Zn    0.50000   0.75000   0.21771   0.00000  Uiso   1.00
Zn478  Zn    0.50000   0.75000   0.11563   0.00000  Uiso   1.00
Zn479  Zn    0.75000   0.50000   0.21771   0.00000  Uiso   1.00
Zn480  Zn    0.75000   0.50000   0.11563   0.00000  Uiso   1.00
C481   C     0.05996   0.19016   0.49998   0.00000  Uiso   1.00
C482   C     0.01363   0.21346   0.64276   0.00000  Uiso   1.00
C483   C     0.01367   0.21348   0.35742   0.00000  Uiso   1.00
C484   C     0.48601   0.28637   0.64261   0.00000  Uiso   1.00
C485   C     0.25098   0.03897   0.35714   0.00000  Uiso   1.00
C486   C     0.24885   0.46103   0.64285   0.00000  Uiso   1.00
C487   C     0.24885   0.46103   0.35755   0.00000  Uiso   1.00
C488   C     0.25106   0.03897   0.64245   0.00000  Uiso   1.00
C489   C     0.41012   0.12372   0.45899   0.00000  Uiso   1.00
C490   C     0.08846   0.37752   0.54048   0.00000  Uiso   1.00
C491   C     0.09371   0.37563   0.45741   0.00000  Uiso   1.00
C492   C     0.43991   0.30966   0.50002   0.00000  Uiso   1.00
C493   C     0.40673   0.12449   0.54225   0.00000  Uiso   1.00
C494   C     0.08102   0.11337   0.51099   0.00000  Uiso   1.00
C495   C     0.41937   0.38661   0.49010   0.00000  Uiso   1.00
C496   C     0.36288   0.33012   0.51003   0.00000  Uiso   1.00
C497   C     0.13689   0.16966   0.48881   0.00000  Uiso   1.00
C498   C     0.12300   0.41127   0.45899   0.00000  Uiso   1.00
C499   C     0.37620   0.08997   0.54118   0.00000  Uiso   1.00
C500   C     0.37521   0.09371   0.45788   0.00000  Uiso   1.00
C501   C     0.12400   0.40687   0.54222   0.00000  Uiso   1.00
C502   C     0.33067   0.36331   0.51233   0.00000  Uiso   1.00
C503   C     0.44355   0.18650   0.50024   0.00000  Uiso   1.00
C504   C     0.17002   0.13740   0.49114   0.00000  Uiso   1.00
C505   C     0.11330   0.08043   0.50871   0.00000  Uiso   1.00
C506   C     0.38638   0.41884   0.48775   0.00000  Uiso   1.00
C507   C     0.07965   0.35604   0.49896   0.00000  Uiso   1.00
C508   C     0.41953   0.14477   0.50067   0.00000  Uiso   1.00
C509   C     0.40676   0.34273   0.50007   0.00000  Uiso   1.00
C510   C     0.09324   0.15712   0.49992   0.00000  Uiso   1.00
C511   C     0.35504   0.08075   0.49946   0.00000  Uiso   1.00
C512   C     0.14399   0.42054   0.50072   0.00000  Uiso   1.00
C513   C     0.15729   0.09328   0.49998   0.00000  Uiso   1.00
C514   C     0.05605   0.31386   0.49969   0.00000  Uiso   1.00
C515   C     0.34291   0.40678   0.50001   0.00000  Uiso   1.00
C516   C     0.43796   0.13152   0.41761   0.00000  Uiso   1.00
C517   C     0.05845   0.37290   0.58063   0.00000  Uiso   1.00
C518   C     0.07614   0.36131   0.41274   0.00000  Uiso   1.00
C519   C     0.42565   0.13778   0.58661   0.00000  Uiso   1.00
C520   C     0.03471   0.10293   0.52511   0.00000  Uiso   1.00
C521   C     0.46707   0.39819   0.48387   0.00000  Uiso   1.00
C522   C     0.35133   0.28223   0.51575   0.00000  Uiso   1.00
C523   C     0.14678   0.21621   0.47445   0.00000  Uiso   1.00
C524   C     0.12864   0.44031   0.41808   0.00000  Uiso   1.00
C525   C     0.30987   0.44006   0.49999   0.00000  Uiso   1.00
C526   C     0.36766   0.06270   0.58284   0.00000  Uiso   1.00
C527   C     0.36110   0.07589   0.41336   0.00000  Uiso   1.00
C528   C     0.13789   0.42481   0.58693   0.00000  Uiso   1.00
C529   C     0.28449   0.35362   0.52784   0.00000  Uiso   1.00
C530   C     0.21792   0.14905   0.48645   0.00000  Uiso   1.00
C531   C     0.10171   0.03256   0.51379   0.00000  Uiso   1.00
C532   C     0.39648   0.46492   0.47240   0.00000  Uiso   1.00
C533   C     0.19036   0.06011   0.50000   0.00000  Uiso   1.00
C534   C     0.18616   0.44399   0.50026   0.00000  Uiso   1.00
C535   C     0.31338   0.05664   0.49979   0.00000  Uiso   1.00
C536   C     0.48614   0.28643   0.35725   0.00000  Uiso   1.00
H537   H     0.47504   0.31557   0.37532   0.00000  Uiso   1.00
H538   H     0.07139   0.37081   0.61481   0.00000  Uiso   1.00
H539   H     0.04072   0.35984   0.40724   0.00000  Uiso   1.00
H540   H     0.41502   0.16836   0.60264   0.00000  Uiso   1.00
H541   H     0.00730   0.12038   0.50972   0.00000  Uiso   1.00
H542   H     0.48937   0.37523   0.46732   0.00000  Uiso   1.00
H543   H     0.37452   0.25939   0.53137   0.00000  Uiso   1.00
H544   H     0.12851   0.24368   0.48915   0.00000  Uiso   1.00
H545   H     0.13030   0.42644   0.38426   0.00000  Uiso   1.00
H546   H     0.36545   0.02688   0.58008   0.00000  Uiso   1.00
H547   H     0.33158   0.08884   0.39716   0.00000  Uiso   1.00
H548   H     0.02441   0.18421   0.62467   0.00000  Uiso   1.00
H549   H     0.14057   0.46032   0.59189   0.00000  Uiso   1.00
H550   H     0.25674   0.37147   0.51325   0.00000  Uiso   1.00
H551   H     0.24097   0.12611   0.47070   0.00000  Uiso   1.00
H552   H     0.12424   0.01007   0.53062   0.00000  Uiso   1.00
H553   H     0.37930   0.49270   0.48750   0.00000  Uiso   1.00
H554   H     0.02462   0.18429   0.37563   0.00000  Uiso   1.00
H555   H     0.47449   0.31534   0.62447   0.00000  Uiso   1.00
H556   H     0.25165   0.07009   0.37523   0.00000  Uiso   1.00
H557   H     0.24792   0.42991   0.62475   0.00000  Uiso   1.00
H558   H     0.24791   0.42991   0.37597   0.00000  Uiso   1.00
H559   H     0.25193   0.07009   0.62403   0.00000  Uiso   1.00
H560   H     0.47369   0.13333   0.42090   0.00000  Uiso   1.00
N561   N     0.00000   0.25000   0.61907   0.00000  Uiso   1.00
N562   N    -0.00000   0.25000   0.38093   0.00000  Uiso   1.00
N563   N     0.25000   0.00000   0.61907   0.00000  Uiso   1.00
N564   N     0.25000   0.00000   0.38093   0.00000  Uiso   1.00
O565   O     0.04580   0.20419   0.53821   0.00000  Uiso   1.00
O566   O     0.20419   0.04581   0.46179   0.00000  Uiso   1.00
O567   O     0.20419   0.04581   0.53821   0.00000  Uiso   1.00
O568   O     0.29580   0.45419   0.46179   0.00000  Uiso   1.00
O569   O     0.20419   0.45419   0.46179   0.00000  Uiso   1.00
O570   O     0.29580   0.04581   0.53821   0.00000  Uiso   1.00
O571   O     0.29580   0.04581   0.46179   0.00000  Uiso   1.00
O572   O     0.20419   0.45419   0.53821   0.00000  Uiso   1.00
O573   O     0.42147   0.13742   0.38030   0.00000  Uiso   1.00
O574   O     0.01835   0.37316   0.57567   0.00000  Uiso   1.00
O575   O     0.10124   0.34985   0.38231   0.00000  Uiso   1.00
O576   O     0.45419   0.29581   0.46179   0.00000  Uiso   1.00
O577   O     0.45267   0.11414   0.60567   0.00000  Uiso   1.00
O578   O     0.02698   0.07589   0.55511   0.00000  Uiso   1.00
O579   O     0.48219   0.43266   0.49886   0.00000  Uiso   1.00
O580   O     0.31660   0.26745   0.50118   0.00000  Uiso   1.00
O581   O     0.17400   0.22411   0.44468   0.00000  Uiso   1.00
O582   O     0.12979   0.48059   0.42189   0.00000  Uiso   1.00
O583   O     0.36153   0.07985   0.61983   0.00000  Uiso   1.00
O584   O     0.38281   0.04717   0.39446   0.00000  Uiso   1.00
O585   O     0.14769   0.39987   0.61809   0.00000  Uiso   1.00
O586   O     0.27721   0.32707   0.55842   0.00000  Uiso   1.00
O587   O     0.45419   0.29581   0.53821   0.00000  Uiso   1.00
O588   O     0.23244   0.18352   0.50200   0.00000  Uiso   1.00
O589   O     0.06777   0.01758   0.49759   0.00000  Uiso   1.00
O590   O     0.42291   0.47201   0.44169   0.00000  Uiso   1.00
O591   O     0.04580   0.20419   0.46179   0.00000  Uiso   1.00
O592   O     0.45419   0.20419   0.46179   0.00000  Uiso   1.00
O593   O     0.04580   0.29581   0.53821   0.00000  Uiso   1.00
O594   O     0.04580   0.29581   0.46179   0.00000  Uiso   1.00
O595   O     0.45419   0.20419   0.53821   0.00000  Uiso   1.00
O596   O     0.29580   0.45419   0.53821   0.00000  Uiso   1.00
Zn597  Zn    0.00000   0.25000   0.55104   0.00000  Uiso   1.00
Zn598  Zn    0.00000   0.25000   0.44896   0.00000  Uiso   1.00
Zn599  Zn    0.25000   0.00000   0.55104   0.00000  Uiso   1.00
Zn600  Zn    0.25000   0.00000   0.44896   0.00000  Uiso   1.00
C601   C     0.55996   0.19016   0.49998   0.00000  Uiso   1.00
C602   C     0.51363   0.21346   0.64276   0.00000  Uiso   1.00
C603   C     0.51367   0.21348   0.35742   0.00000  Uiso   1.00
C604   C     0.98601   0.28637   0.64261   0.00000  Uiso   1.00
C605   C     0.75098   0.03897   0.35714   0.00000  Uiso   1.00
C606   C     0.74885   0.46103   0.64285   0.00000  Uiso   1.00
C607   C     0.74885   0.46103   0.35755   0.00000  Uiso   1.00
C608   C     0.75106   0.03897   0.64245   0.00000  Uiso   1.00
C609   C     0.91012   0.12372   0.45899   0.00000  Uiso   1.00
C610   C     0.58846   0.37752   0.54048   0.00000  Uiso   1.00
C611   C     0.59371   0.37563   0.45741   0.00000  Uiso   1.00
C612   C     0.93991   0.30966   0.50002   0.00000  Uiso   1.00
C613   C     0.90673   0.12449   0.54225   0.00000  Uiso   1.00
C614   C     0.58102   0.11337   0.51099   0.00000  Uiso   1.00
C615   C     0.91937   0.38661   0.49010   0.00000  Uiso   1.00
C616   C     0.86288   0.33012   0.51003   0.00000  Uiso   1.00
C617   C     0.63689   0.16966   0.48881   0.00000  Uiso   1.00
C618   C     0.62300   0.41127   0.45899   0.00000  Uiso   1.00
C619   C     0.87620   0.08997   0.54118   0.00000  Uiso   1.00
C620   C     0.87521   0.09371   0.45788   0.00000  Uiso   1.00
C621   C     0.62400   0.40687   0.54222   0.00000  Uiso   1.00
C622   C     0.83067   0.36331   0.51233   0.00000  Uiso   1.00
C623   C     0.94355   0.18650   0.50024   0.00000  Uiso   1.00
C624   C     0.67002   0.13740   0.49114   0.00000  Uiso   1.00
C625   C     0.61330   0.08043   0.50871   0.00000  Uiso   1.00
C626   C     0.88638   0.41884   0.48775   0.00000  Uiso   1.00
C627   C     0.57965   0.35604   0.49896   0.00000  Uiso   1.00
C628   C     0.91953   0.14477   0.50067   0.00000  Uiso   1.00
C629   C     0.90676   0.34273   0.50007   0.00000  Uiso   1.00
C630   C     0.59324   0.15712   0.49992   0.00000  Uiso   1.00
C631   C     0.85504   0.08075   0.49946   0.00000  Uiso   1.00
C632   C     0.64399   0.42054   0.50072   0.00000  Uiso   1.00
C633   C     0.65729   0.09328   0.49998   0.00000  Uiso   1.00
C634   C     0.55605   0.31386   0.49969   0.00000  Uiso   1.00
C635   C     0.84291   0.40678   0.50001   0.00000  Uiso   1.00
C636   C     0.93796   0.13152   0.41761   0.00000  Uiso   1.00
C637   C     0.55845   0.37290   0.58063   0.00000  Uiso   1.00
C638   C     0.57614   0.36131   0.41274   0.00000  Uiso   1.00
C639   C     0.92565   0.13778   0.58661   0.00000  Uiso   1.00
C640   C     0.53471   0.10293   0.52511   0.00000  Uiso   1.00
C641   C     0.96707   0.39819   0.48387   0.00000  Uiso   1.00
C642   C     0.85133   0.28223   0.51575   0.00000  Uiso   1.00
C643   C     0.64678   0.21621   0.47445   0.00000  Uiso   1.00
C644   C     0.62864   0.44031   0.41808   0.00000  Uiso   1.00
C645   C     0.80987   0.44006   0.49999   0.00000  Uiso   1.00
C646   C     0.86766   0.06270   0.58284   0.00000  Uiso   1.00
C647   C     0.86110   0.07589   0.41336   0.00000  Uiso   1.00
C648   C     0.63789   0.42481   0.58693   0.00000  Uiso   1.00
C649   C     0.78449   0.35362   0.52784   0.00000  Uiso   1.00
C650   C     0.71792   0.14905   0.48645   0.00000  Uiso   1.00
C651   C     0.60171   0.03256   0.51379   0.00000  Uiso   1.00
C652   C     0.89648   0.46492   0.47240   0.00000  Uiso   1.00
C653   C     0.69036   0.06011   0.50000   0.00000  Uiso   1.00
C654   C     0.68616   0.44399   0.50026   0.00000  Uiso   1.00
C655   C     0.81338   0.05664   0.49979   0.00000  Uiso   1.00
C656   C     0.98614   0.28643   0.35725   0.00000  Uiso   1.00
H657   H     0.97504   0.31557   0.37532   0.00000  Uiso   1.00
H658   H     0.57139   0.37081   0.61481   0.00000  Uiso   1.00
H659   H     0.54072   0.35984   0.40724   0.00000  Uiso   1.00
H660   H     0.91502   0.16836   0.60264   0.00000  Uiso   1.00
H661   H     0.50730   0.12038   0.50972   0.00000  Uiso   1.00
H662   H     0.98937   0.37523   0.46732   0.00000  Uiso   1.00
H663   H     0.87452   0.25939   0.53137   0.00000  Uiso   1.00
H664   H     0.62851   0.24368   0.48915   0.00000  Uiso   1.00
H665   H     0.63030   0.42644   0.38426   0.00000  Uiso   1.00
H666   H     0.86545   0.02688   0.58008   0.00000  Uiso   1.00
H667   H     0.83158   0.08884   0.39716   0.00000  Uiso   1.00
H668   H     0.52441   0.18421   0.62467   0.00000  Uiso   1.00
H669   H     0.64057   0.46032   0.59189   0.00000  Uiso   1.00
H670   H     0.75674   0.37147   0.51325   0.00000  Uiso   1.00
H671   H     0.74097   0.12611   0.47070   0.00000  Uiso   1.00
H672   H     0.62424   0.01007   0.53062   0.00000  Uiso   1.00
H673   H     0.87930   0.49270   0.48750   0.00000  Uiso   1.00
H674   H     0.52462   0.18429   0.37563   0.00000  Uiso   1.00
H675   H     0.97449   0.31534   0.62447   0.00000  Uiso   1.00
H676   H     0.75165   0.07009   0.37523   0.00000  Uiso   1.00
H677   H     0.74792   0.42991   0.62475   0.00000  Uiso   1.00
H678   H     0.74791   0.42991   0.37597   0.00000  Uiso   1.00
H679   H     0.75193   0.07009   0.62403   0.00000  Uiso   1.00
H680   H     0.97369   0.13333   0.42090   0.00000  Uiso   1.00
N681   N     0.50000   0.25000   0.61907   0.00000  Uiso   1.00
N682   N     0.50000   0.25000   0.38093   0.00000  Uiso   1.00
N683   N     0.75000   0.00000   0.61907   0.00000  Uiso   1.00
N684   N     0.75000   0.00000   0.38093   0.00000  Uiso   1.00
O685   O     0.54580   0.20419   0.53821   0.00000  Uiso   1.00
O686   O     0.70419   0.04581   0.46179   0.00000  Uiso   1.00
O687   O     0.70419   0.04581   0.53821   0.00000  Uiso   1.00
O688   O     0.79580   0.45419   0.46179   0.00000  Uiso   1.00
O689   O     0.70419   0.45419   0.46179   0.00000  Uiso   1.00
O690   O     0.79580   0.04581   0.53821   0.00000  Uiso   1.00
O691   O     0.79580   0.04581   0.46179   0.00000  Uiso   1.00
O692   O     0.70419   0.45419   0.53821   0.00000  Uiso   1.00
O693   O     0.92147   0.13742   0.38030   0.00000  Uiso   1.00
O694   O     0.51835   0.37316   0.57567   0.00000  Uiso   1.00
O695   O     0.60124   0.34985   0.38231   0.00000  Uiso   1.00
O696   O     0.95419   0.29581   0.46179   0.00000  Uiso   1.00
O697   O     0.95267   0.11414   0.60567   0.00000  Uiso   1.00
O698   O     0.52698   0.07589   0.55511   0.00000  Uiso   1.00
O699   O     0.98219   0.43266   0.49886   0.00000  Uiso   1.00
O700   O     0.81660   0.26745   0.50118   0.00000  Uiso   1.00
O701   O     0.67400   0.22411   0.44468   0.00000  Uiso   1.00
O702   O     0.62979   0.48059   0.42189   0.00000  Uiso   1.00
O703   O     0.86153   0.07985   0.61983   0.00000  Uiso   1.00
O704   O     0.88281   0.04717   0.39446   0.00000  Uiso   1.00
O705   O     0.64769   0.39987   0.61809   0.00000  Uiso   1.00
O706   O     0.77721   0.32707   0.55842   0.00000  Uiso   1.00
O707   O     0.95419   0.29581   0.53821   0.00000  Uiso   1.00
O708   O     0.73244   0.18352   0.50200   0.00000  Uiso   1.00
O709   O     0.56777   0.01758   0.49759   0.00000  Uiso   1.00
O710   O     0.92291   0.47201   0.44169   0.00000  Uiso   1.00
O711   O     0.54580   0.20419   0.46179   0.00000  Uiso   1.00
O712   O     0.95419   0.20419   0.46179   0.00000  Uiso   1.00
O713   O     0.54580   0.29581   0.53821   0.00000  Uiso   1.00
O714   O     0.54580   0.29581   0.46179   0.00000  Uiso   1.00
O715   O     0.95419   0.20419   0.53821   0.00000  Uiso   1.00
O716   O     0.79580   0.45419   0.53821   0.00000  Uiso   1.00
Zn717  Zn    0.50000   0.25000   0.55104   0.00000  Uiso   1.00
Zn718  Zn    0.50000   0.25000   0.44896   0.00000  Uiso   1.00
Zn719  Zn    0.75000   0.00000   0.55104   0.00000  Uiso   1.00
Zn720  Zn    0.75000   0.00000   0.44896   0.00000  Uiso   1.00
C721   C     0.05996   0.69016   0.49998   0.00000  Uiso   1.00
C722   C     0.01363   0.71346   0.64276   0.00000  Uiso   1.00
C723   C     0.01367   0.71348   0.35742   0.00000  Uiso   1.00
C724   C     0.48601   0.78637   0.64261   0.00000  Uiso   1.00
C725   C     0.25098   0.53897   0.35714   0.00000  Uiso   1.00
C726   C     0.24885   0.96103   0.64285   0.00000  Uiso   1.00
C727   C     0.24885   0.96103   0.35755   0.00000  Uiso   1.00
C728   C     0.25106   0.53897   0.64245   0.00000  Uiso   1.00
C729   C     0.41012   0.62372   0.45899   0.00000  Uiso   1.00
C730   C     0.08846   0.87752   0.54048   0.00000  Uiso   1.00
C731   C     0.09371   0.87563   0.45741   0.00000  Uiso   1.00
C732   C     0.43991   0.80966   0.50002   0.00000  Uiso   1.00
C733   C     0.40673   0.62449   0.54225   0.00000  Uiso   1.00
C734   C     0.08102   0.61337   0.51099   0.00000  Uiso   1.00
C735   C     0.41937   0.88661   0.49010   0.00000  Uiso   1.00
C736   C     0.36288   0.83012   0.51003   0.00000  Uiso   1.00
C737   C     0.13689   0.66966   0.48881   0.00000  Uiso   1.00
C738   C     0.12300   0.91127   0.45899   0.00000  Uiso   1.00
C739   C     0.37620   0.58997   0.54118   0.00000  Uiso   1.00
C740   C     0.37521   0.59371   0.45788   0.00000  Uiso   1.00
C741   C     0.12400   0.90687   0.54222   0.00000  Uiso   1.00
C742   C     0.33067   0.86331   0.51233   0.00000  Uiso   1.00
C743   C     0.44355   0.68650   0.50024   0.00000  Uiso   1.00
C744   C     0.17002   0.63740   0.49114   0.00000  Uiso   1.00
C745   C     0.11330   0.58043   0.50871   0.00000  Uiso   1.00
C746   C     0.38638   0.91884   0.48775   0.00000  Uiso   1.00
C747   C     0.07965   0.85604   0.49896   0.00000  Uiso   1.00
C748   C     0.41953   0.64477   0.50067   0.00000  Uiso   1.00
C749   C     0.40676   0.84273   0.50007   0.00000  Uiso   1.00
C750   C     0.09324   0.65712   0.49992   0.00000  Uiso   1.00
C751   C     0.35504   0.58075   0.49946   0.00000  Uiso   1.00
C752   C     0.14399   0.92054   0.50072   0.00000  Uiso   1.00
C753   C     0.15729   0.59328   0.49998   0.00000  Uiso   1.00
C754   C     0.05605   0.81386   0.49969   0.00000  Uiso   1.00
C755   C     0.34291   0.90678   0.50001   0.00000  Uiso   1.00
C756   C     0.43796   0.63152   0.41761   0.00000  Uiso   1.00
C757   C     0.05845   0.87290   0.58063   0.00000  Uiso   1.00
C758   C     0.07614   0.86131   0.41274   0.00000  Uiso   1.00
C759   C     0.42565   0.63778   0.58661   0.00000  Uiso   1.00
C760   C     0.03471   0.60293   0.52511   0.00000  Uiso   1.00
C761   C     0.46707   0.89819   0.48387   0.00000  Uiso   1.00
C762   C     0.35133   0.78223   0.51575   0.00000  Uiso   1.00
C763   C     0.14678   0.71621   0.47445   0.00000  Uiso   1.00
C764   C     0.12864   0.94031   0.41808   0.00000  Uiso   1.00
C765   C     0.30987   0.94006   0.49999   0.00000  Uiso   1.00
C766   C     0.36766   0.56270   0.58284   0.00000  Uiso   1.00
C767   C     0.36110   0.57589   0.41336   0.00000  Uiso   1.00
C768   C     0.13789   0.92481   0.58693   0.00000  Uiso   1.00
C769   C     0.28449   0.85362   0.52784   0.00000  Uiso   1.00
C770   C     0.21792   0.64905   0.48645   0.00000  Uiso   1.00
C771   C     0.10171   0.53256   0.51379   0.00000  Uiso   1.00
C772   C     0.39648   0.96492   0.47240   0.00000  Uiso   1.00
C773   C     0.19036   0.56011   0.50000   0.00000  Uiso   1.00
C774   C     0.18616   0.94399   0.50026   0.00000  Uiso   1.00
C775   C     0.31338   0.55664   0.49979   0.00000  Uiso   1.00
C776   C     0.48614   0.78643   0.35725   0.00000  Uiso   1.00
H777   H     0.47504   0.81557   0.37532   0.00000  Uiso   1.00
H778   H     0.07139   0.87081   0.61481   0.00000  Uiso   1.00
H779   H     0.04072   0.85984   0.40724   0.00000  Uiso   1.00
H780   H     0.41502   0.66836   0.60264   0.00000  Uiso   1.00
H781   H     0.00730   0.62038   0.50972   0.00000  Uiso   1.00
H782   H     0.48937   0.87523   0.46732   0.00000  Uiso   1.00
H783   H     0.37452   0.75939   0.53137   0.00000  Uiso   1.00
H784   H     0.12851   0.74368   0.48915   0.00000  Uiso   1.00
H785   H     0.13030   0.92644   0.38426   0.00000  Uiso   1.00
H786   H     0.36545   0.52688   0.58008   0.00000  Uiso   1.00
H787   H     0.33158   0.58884   0.39716   0.00000  Uiso   1.00
H788   H     0.02441   0.68421   0.62467   0.00000  Uiso   1.00
H789   H     0.14057   0.96032   0.59189   0.00000  Uiso   1.00
H790   H     0.25674   0.87147   0.51325   0.00000  Uiso   1.00
H791   H     0.24097   0.62611   0.47070   0.00000  Uiso   1.00
H792   H     0.12424   0.51007   0.53062   0.00000  Uiso   1.00
H793   H     0.37930   0.99270   0.48750   0.00000  Uiso   1.00
H794   H     0.02462   0.68429   0.37563   0.00000  Uiso   1.00
H795   H     0.47449   0.81534   0.62447   0.00000  Uiso   1.00
H796   H     0.25165   0.57009   0.37523   0.00000  Uiso   1.00
H797   H     0.24792   0.92991   0.62475   0.00000  Uiso   1.00
H798   H     0.24791   0.92991   0.37597   0.00000  Uiso   1.00
H799   H     0.25193   0.57009   0.62403   0.00000  Uiso   1.00
H800   H     0.47369   0.63333   0.42090   0.00000  Uiso   1.00
N801   N     0.00000   0.75000   0.61907   0.00000  Uiso   1.00
N802   N    -0.00000   0.75000   0.38093   0.00000  Uiso   1.00
N803   N     0.25000   0.50000   0.61907   0.00000  Uiso   1.00
N804   N     0.25000   0.50000   0.38093   0.00000  Uiso   1.00
O805   O     0.04580   0.70419   0.53821   0.00000  Uiso   1.00
O806   O     0.20419   0.54581   0.46179   0.00000  Uiso   1.00
O807   O     0.20419   0.54581   0.53821   0.00000  Uiso   1.00
O808   O     0.29580   0.95419   0.46179   0.00000  Uiso   1.00
O809   O     0.20419   0.95419   0.46179   0.00000  Uiso   1.00
O810   O     0.29580   0.54581   0.53821   0.00000  Uiso   1.00
O811   O     0.29580   0.54581   0.46179   0.00000  Uiso   1.00
O812   O     0.20419   0.95419   0.53821   0.00000  Uiso   1.00
O813   O     0.42147   0.63742   0.38030   0.00000  Uiso   1.00
O814   O     0.01835   0.87316   0.57567   0.00000  Uiso   1.00
O815   O     0.10124   0.84985   0.38231   0.00000  Uiso   1.00
O816   O     0.45419   0.79581   0.46179   0.00000  Uiso   1.00
O817   O     0.45267   0.61414   0.60567   0.00000  Uiso   1.00
O818   O     0.02698   0.57589   0.55511   0.00000  Uiso   1.00
O819   O     0.48219   0.93266   0.49886   0.00000  Uiso   1.00
O820   O     0.31660   0.76745   0.50118   0.00000  Uiso   1.00
O821   O     0.17400   0.72411   0.44468   0.00000  Uiso   1.00
O822   O     0.12979   0.98059   0.42189   0.00000  Uiso   1.00
O823   O     0.36153   0.57985   0.61983   0.00000  Uiso   1.00
O824   O     0.38281   0.54717   0.39446   0.00000  Uiso   1.00
O825   O     0.14769   0.89987   0.61809   0.00000  Uiso   1.00
O826   O     0.27721   0.82707   0.55842   0.00000  Uiso   1.00
O827   O     0.45419   0.79581   0.53821   0.00000  Uiso   1.00
O828   O     0.23244   0.68352   0.50200   0.00000  Uiso   1.00
O829   O     0.06777   0.51758   0.49759   0.00000  Uiso   1.00
O830   O     0.42291   0.97201   0.44169   0.00000  Uiso   1.00
O831   O     0.04580   0.70419   0.46179   0.00000  Uiso   1.00
O832   O     0.45419   0.70419   0.46179   0.00000  Uiso   1.00
O833   O     0.04580   0.79581   0.53821   0.00000  Uiso   1.00
O834   O     0.04580   0.79581   0.46179   0.00000  Uiso   1.00
O835   O     0.45419   0.70419   0.53821   0.00000  Uiso   1.00
O836   O     0.29580   0.95419   0.53821   0.00000  Uiso   1.00
Zn837  Zn    0.00000   0.75000   0.55104   0.00000  Uiso   1.00
Zn838  Zn    0.00000   0.75000   0.44896   0.00000  Uiso   1.00
Zn839  Zn    0.25000   0.50000   0.55104   0.00000  Uiso   1.00
Zn840  Zn    0.25000   0.50000   0.44896   0.00000  Uiso   1.00
C841   C     0.55996   0.69016   0.49998   0.00000  Uiso   1.00
C842   C     0.51363   0.71346   0.64276   0.00000  Uiso   1.00
C843   C     0.51367   0.71348   0.35742   0.00000  Uiso   1.00
C844   C     0.98601   0.78637   0.64261   0.00000  Uiso   1.00
C845   C     0.75098   0.53897   0.35714   0.00000  Uiso   1.00
C846   C     0.74885   0.96103   0.64285   0.00000  Uiso   1.00
C847   C     0.74885   0.96103   0.35755   0.00000  Uiso   1.00
C848   C     0.75106   0.53897   0.64245   0.00000  Uiso   1.00
C849   C     0.91012   0.62372   0.45899   0.00000  Uiso   1.00
C850   C     0.58846   0.87752   0.54048   0.00000  Uiso   1.00
C851   C     0.59371   0.87563   0.45741   0.00000  Uiso   1.00
C852   C     0.93991   0.80966   0.50002   0.00000  Uiso   1.00
C853   C     0.90673   0.62449   0.54225   0.00000  Uiso   1.00
C854   C     0.58102   0.61337   0.51099   0.00000  Uiso   1.00
C855   C     0.91937   0.88661   0.49010   0.00000  Uiso   1.00
C856   C     0.86288   0.83012   0.51003   0.00000  Uiso   1.00
C857   C     0.63689   0.66966   0.48881   0.00000  Uiso   1.00
C858   C     0.62300   0.91127   0.45899   0.00000  Uiso   1.00
C859   C     0.87620   0.58997   0.54118   0.00000  Uiso   1.00
C860   C     0.87521   0.59371   0.45788   0.00000  Uiso   1.00
C861   C     0.62400   0.90687   0.54222   0.00000  Uiso   1.00
C862   C     0.83067   0.86331   0.51233   0.00000  Uiso   1.00
C863   C     0.94355   0.68650   0.50024   0.00000  Uiso   1.00
C864   C     0.67002   0.63740   0.49114   0.00000  Uiso   1.00
C865   C     0.61330   0.58043   0.50871   0.00000  Uiso   1.00
C866   C     0.88638   0.91884   0.48775   0.00000  Uiso   1.00
C867   C     0.57965   0.85604   0.49896   0.00000  Uiso   1.00
C868   C     0.91953   0.64477   0.50067   0.00000  Uiso   1.00
C869   C     0.90676   0.84273   0.50007   0.00000  Uiso   1.00
C870   C     0.59324   0.65712   0.49992   0.00000  Uiso   1.00
C871   C     0.85504   0.58075   0.49946   0.00000  Uiso   1.00
C872   C     0.64399   0.92054   0.50072   0.00000  Uiso   1.00
C873   C     0.65729   0.59328   0.49998   0.00000  Uiso   1.00
C874   C     0.55605   0.81386   0.49969   0.00000  Uiso   1.00
C875   C     0.84291   0.90678   0.50001   0.00000  Uiso   1.00
C876   C     0.93796   0.63152   0.41761   0.00000  Uiso   1.00
C877   C     0.55845   0.87290   0.58063   0.00000  Uiso   1.00
C878   C     0.57614   0.86131   0.41274   0.00000  Uiso   1.00
C879   C     0.92565   0.63778   0.58661   0.00000  Uiso   1.00
C880   C     0.53471   0.60293   0.52511   0.00000  Uiso   1.00
C881   C     0.96707   0.89819   0.48387   0.00000  Uiso   1.00
C882   C     0.85133   0.78223   0.51575   0.00000  Uiso   1.00
C883   C     0.64678   0.71621   0.47445   0.00000  Uiso   1.00
C884   C     0.62864   0.94031   0.41808   0.00000  Uiso   1.00
C885   C     0.80987   0.94006   0.49999   0.00000  Uiso   1.00
C886   C     0.86766   0.56270   0.58284   0.00000  Uiso   1.00
C887   C     0.86110   0.57589   0.41336   0.00000  Uiso   1.00
C888   C     0.63789   0.92481   0.58693   0.00000  Uiso   1.00
C889   C     0.78449   0.85362   0.52784   0.00000  Uiso   1.00
C890   C     0.71792   0.64905   0.48645   0.00000  Uiso   1.00
C891   C     0.60171   0.53256   0.51379   0.00000  Uiso   1.00
C892   C     0.89648   0.96492   0.47240   0.00000  Uiso   1.00
C893   C     0.69036   0.56011   0.50000   0.00000  Uiso   1.00
C894   C     0.68616   0.94399   0.50026   0.00000  Uiso   1.00
C895   C     0.81338   0.55664   0.49979   0.00000  Uiso   1.00
C896   C     0.98614   0.78643   0.35725   0.00000  Uiso   1.00
H897   H     0.97504   0.81557   0.37532   0.00000  Uiso   1.00
H898   H     0.57139   0.87081   0.61481   0.00000  Uiso   1.00
H899   H     0.54072   0.85984   0.40724   0.00000  Uiso   1.00
H900   H     0.91502   0.66836   0.60264   0.00000  Uiso   1.00
H901   H     0.50730   0.62038   0.50972   0.00000  Uiso   1.00
H902   H     0.98937   0.87523   0.46732   0.00000  Uiso   1.00
H903   H     0.87452   0.75939   0.53137   0.00000  Uiso   1.00
H904   H     0.62851   0.74368   0.48915   0.00000  Uiso   1.00
H905   H     0.63030   0.92644   0.38426   0.00000  Uiso   1.00
H906   H     0.86545   0.52688   0.58008   0.00000  Uiso   1.00
H907   H     0.83158   0.58884   0.39716   0.00000  Uiso   1.00
H908   H     0.52441   0.68421   0.62467   0.00000  Uiso   1.00
H909   H     0.64057   0.96032   0.59189   0.00000  Uiso   1.00
H910   H     0.75674   0.87147   0.51325   0.00000  Uiso   1.00
H911   H     0.74097   0.62611   0.47070   0.00000  Uiso   1.00
H912   H     0.62424   0.51007   0.53062   0.00000  Uiso   1.00
H913   H     0.87930   0.99270   0.48750   0.00000  Uiso   1.00
H914   H     0.52462   0.68429   0.37563   0.00000  Uiso   1.00
H915   H     0.97449   0.81534   0.62447   0.00000  Uiso   1.00
H916   H     0.75165   0.57009   0.37523   0.00000  Uiso   1.00
H917   H     0.74792   0.92991   0.62475   0.00000  Uiso   1.00
H918   H     0.74791   0.92991   0.37597   0.00000  Uiso   1.00
H919   H     0.75193   0.57009   0.62403   0.00000  Uiso   1.00
H920   H     0.97369   0.63333   0.42090   0.00000  Uiso   1.00
N921   N     0.50000   0.75000   0.61907   0.00000  Uiso   1.00
N922   N     0.50000   0.75000   0.38093   0.00000  Uiso   1.00
N923   N     0.75000   0.50000   0.61907   0.00000  Uiso   1.00
N924   N     0.75000   0.50000   0.38093   0.00000  Uiso   1.00
O925   O     0.54580   0.70419   0.53821   0.00000  Uiso   1.00
O926   O     0.70419   0.54581   0.46179   0.00000  Uiso   1.00
O927   O     0.70419   0.54581   0.53821   0.00000  Uiso   1.00
O928   O     0.79580   0.95419   0.46179   0.00000  Uiso   1.00
O929   O     0.70419   0.95419   0.46179   0.00000  Uiso   1.00
O930   O     0.79580   0.54581   0.53821   0.00000  Uiso   1.00
O931   O     0.79580   0.54581   0.46179   0.00000  Uiso   1.00
O932   O     0.70419   0.95419   0.53821   0.00000  Uiso   1.00
O933   O     0.92147   0.63742   0.38030   0.00000  Uiso   1.00
O934   O     0.51835   0.87316   0.57567   0.00000  Uiso   1.00
O935   O     0.60124   0.84985   0.38231   0.00000  Uiso   1.00
O936   O     0.95419   0.79581   0.46179   0.00000  Uiso   1.00
O937   O     0.95267   0.61414   0.60567   0.00000  Uiso   1.00
O938   O     0.52698   0.57589   0.55511   0.00000  Uiso   1.00
O939   O     0.98219   0.93266   0.49886   0.00000  Uiso   1.00
O940   O     0.81660   0.76745   0.50118   0.00000  Uiso   1.00
O941   O     0.67400   0.72411   0.44468   0.00000  Uiso   1.00
O942   O     0.62979   0.98059   0.42189   0.00000  Uiso   1.00
O943   O     0.86153   0.57985   0.61983   0.00000  Uiso   1.00
O944   O     0.88281   0.54717   0.39446   0.00000  Uiso   1.00
O945   O     0.64769   0.89987   0.61809   0.00000  Uiso   1.00
O946   O     0.77721   0.82707   0.55842   0.00000  Uiso   1.00
O947   O     0.95419   0.79581   0.53821   0.00000  Uiso   1.00
O948   O     0.73244   0.68352   0.50200   0.00000  Uiso   1.00
O949   O     0.56777   0.51758   0.49759   0.00000  Uiso   1.00
O950   O     0.92291   0.97201   0.44169   0.00000  Uiso   1.00
O951   O     0.54580   0.70419   0.46179   0.00000  Uiso   1.00
O952   O     0.95419   0.70419   0.46179   0.00000  Uiso   1.00
O953   O     0.54580   0.79581   0.53821   0.00000  Uiso   1.00
O954   O     0.54580   0.79581   0.46179   0.00000  Uiso   1.00
O955   O     0.95419   0.70419   0.53821   0.00000  Uiso   1.00
O956   O     0.79580   0.95419   0.53821   0.00000  Uiso   1.00
Zn957  Zn    0.50000   0.75000   0.55104   0.00000  Uiso   1.00
Zn958  Zn    0.50000   0.75000   0.44896   0.00000  Uiso   1.00
Zn959  Zn    0.75000   0.50000   0.55104   0.00000  Uiso   1.00
Zn960  Zn    0.75000   0.50000   0.44896   0.00000  Uiso   1.00
C961   C     0.05996   0.19016   0.83331   0.00000  Uiso   1.00
C962   C     0.01363   0.21346   0.97609   0.00000  Uiso   1.00
C963   C     0.01367   0.21348   0.69075   0.00000  Uiso   1.00
C964   C     0.48601   0.28637   0.97595   0.00000  Uiso   1.00
C965   C     0.25098   0.03897   0.69047   0.00000  Uiso   1.00
C966   C     0.24885   0.46103   0.97619   0.00000  Uiso   1.00
C967   C     0.24885   0.46103   0.69088   0.00000  Uiso   1.00
C968   C     0.25106   0.03897   0.97578   0.00000  Uiso   1.00
C969   C     0.41012   0.12372   0.79233   0.00000  Uiso   1.00
C970   C     0.08846   0.37752   0.87382   0.00000  Uiso   1.00
C971   C     0.09371   0.37563   0.79074   0.00000  Uiso   1.00
C972   C     0.43991   0.30966   0.83336   0.00000  Uiso   1.00
C973   C     0.40673   0.12449   0.87558   0.00000  Uiso   1.00
C974   C     0.08102   0.11337   0.84432   0.00000  Uiso   1.00
C975   C     0.41937   0.38661   0.82343   0.00000  Uiso   1.00
C976   C     0.36288   0.33012   0.84336   0.00000  Uiso   1.00
C977   C     0.13689   0.16966   0.82214   0.00000  Uiso   1.00
C978   C     0.12300   0.41127   0.79232   0.00000  Uiso   1.00
C979   C     0.37620   0.08997   0.87451   0.00000  Uiso   1.00
C980   C     0.37521   0.09371   0.79121   0.00000  Uiso   1.00
C981   C     0.12400   0.40687   0.87555   0.00000  Uiso   1.00
C982   C     0.33067   0.36331   0.84567   0.00000  Uiso   1.00
C983   C     0.44355   0.18650   0.83357   0.00000  Uiso   1.00
C984   C     0.17002   0.13740   0.82447   0.00000  Uiso   1.00
C985   C     0.11330   0.08043   0.84205   0.00000  Uiso   1.00
C986   C     0.38638   0.41884   0.82109   0.00000  Uiso   1.00
C987   C     0.07965   0.35604   0.83230   0.00000  Uiso   1.00
C988   C     0.41953   0.14477   0.83401   0.00000  Uiso   1.00
C989   C     0.40676   0.34273   0.83341   0.00000  Uiso   1.00
C990   C     0.09324   0.15712   0.83325   0.00000  Uiso   1.00
C991   C     0.35504   0.08075   0.83280   0.00000  Uiso   1.00
C992   C     0.14399   0.42054   0.83405   0.00000  Uiso   1.00
C993   C     0.15729   0.09328   0.83332   0.00000  Uiso   1.00
C994   C     0.05605   0.31386   0.83302   0.00000  Uiso   1.00
C995   C     0.34291   0.40678   0.83334   0.00000  Uiso   1.00
C996   C     0.43796   0.13152   0.75095   0.00000  Uiso   1.00
C997   C     0.05845   0.37290   0.91397   0.00000  Uiso   1.00
C998   C     0.07614   0.36131   0.74607   0.00000  Uiso   1.00
C999   C     0.42565   0.13778   0.91994   0.00000  Uiso   1.00
C1000  C     0.03471   0.10293   0.85844   0.00000  Uiso   1.00
C1001  C     0.46707   0.39819   0.81720   0.00000  Uiso   1.00
C1002  C     0.35133   0.28223   0.84908   0.00000  Uiso   1.00
C1003  C     0.14678   0.21621   0.80778   0.00000  Uiso   1.00
C1004  C     0.12864   0.44031   0.75142   0.00000  Uiso   1.00
C1005  C     0.30987   0.44006   0.83333   0.00000  Uiso   1.00
C1006  C     0.36766   0.06270   0.91617   0.00000  Uiso   1.00
C1007  C     0.36110   0.07589   0.74669   0.00000  Uiso   1.00
C1008  C     0.13789   0.42481   0.92026   0.00000  Uiso   1.00
C1009  C     0.28449   0.35362   0.86117   0.00000  Uiso   1.00
C1010  C     0.21792   0.14905   0.81978   0.00000  Uiso   1.00
C1011  C     0.10171   0.03256   0.84712   0.00000  Uiso   1.00
C1012  C     0.39648   0.46492   0.80574   0.00000  Uiso   1.00
C1013  C     0.19036   0.06011   0.83334   0.00000  Uiso   1.00
C1014  C     0.18616   0.44399   0.83359   0.00000  Uiso   1.00
C1015  C     0.31338   0.05664   0.83312   0.00000  Uiso   1.00
C1016  C     0.48614   0.28643   0.69058   0.00000  Uiso   1.00
H1017  H     0.47504   0.31557   0.70865   0.00000  Uiso   1.00
H1018  H     0.07139   0.37081   0.94814   0.00000  Uiso   1.00
H1019  H     0.04072   0.35984   0.74057   0.00000  Uiso   1.00
H1020  H     0.41502   0.16836   0.93598   0.00000  Uiso   1.00
H1021  H     0.00730   0.12038   0.84306   0.00000  Uiso   1.00
H1022  H     0.48937   0.37523   0.80065   0.00000  Uiso   1.00
H1023  H     0.37452   0.25939   0.86470   0.00000  Uiso   1.00
H1024  H     0.12851   0.24368   0.82248   0.00000  Uiso   1.00
H1025  H     0.13030   0.42644   0.71760   0.00000  Uiso   1.00
H1026  H     0.36545   0.02688   0.91341   0.00000  Uiso   1.00
H1027  H     0.33158   0.08884   0.73050   0.00000  Uiso   1.00
H1028  H     0.02441   0.18421   0.95800   0.00000  Uiso   1.00
H1029  H     0.14057   0.46032   0.92522   0.00000  Uiso   1.00
H1030  H     0.25674   0.37147   0.84658   0.00000  Uiso   1.00
H1031  H     0.24097   0.12611   0.80403   0.00000  Uiso   1.00
H1032  H     0.12424   0.01007   0.86395   0.00000  Uiso   1.00
H1033  H     0.37930   0.49270   0.82084   0.00000  Uiso   1.00
H1034  H     0.02462   0.18429   0.70897   0.00000  Uiso   1.00
H1035  H     0.47449   0.31534   0.95781   0.00000  Uiso   1.00
H1036  H     0.25165   0.07009   0.70856   0.00000  Uiso   1.00
H1037  H     0.24792   0.42991   0.95809   0.00000  Uiso   1.00
H1038  H     0.24791   0.42991   0.70930   0.00000  Uiso   1.00
H1039  H     0.25193   0.07009   0.95736   0.00000  Uiso   1.00
H1040  H     0.47369   0.13333   0.75424   0.00000  Uiso   1.00
N1041  N     0.00000   0.25000   0.95240   0.00000  Uiso   1.00
N1042  N    -0.00000   0.25000   0.71427   0.00000  Uiso   1.00
N1043  N     0.25000   0.00000   0.95240   0.00000  Uiso   1.00
N1044  N     0.25000   0.00000   0.71427   0.00000  Uiso   1.00
O1045  O     0.04580   0.20419   0.87154   0.00000  Uiso   1.00
O1046  O     0.20419   0.04581   0.79513   0.00000  Uiso   1.00
O1047  O     0.20419   0.04581   0.87154   0.00000  Uiso   1.00
O1048  O     0.29580   0.45419   0.79513   0.00000  Uiso   1.00
O1049  O     0.20419   0.45419   0.79513   0.00000  Uiso   1.00
O1050  O     0.29580   0.04581   0.87154   0.00000  Uiso   1.00
O1051  O     0.29580   0.04581   0.79513   0.00000  Uiso   1.00
O1052  O     0.20419   0.45419   0.87154   0.00000  Uiso   1.00
O1053  O     0.42147   0.13742   0.71363   0.00000  Uiso   1.00
O1054  O     0.01835   0.37316   0.90900   0.00000  Uiso   1.00
O1055  O     0.10124   0.34985   0.71564   0.00000  Uiso   1.00
O1056  O     0.45419   0.29581   0.79513   0.00000  Uiso   1.00
O1057  O     0.45267   0.11414   0.93900   0.00000  Uiso   1.00
O1058  O     0.02698   0.07589   0.88845   0.00000  Uiso   1.00
O1059  O     0.48219   0.43266   0.83220   0.00000  Uiso   1.00
O1060  O     0.31660   0.26745   0.83451   0.00000  Uiso   1.00
O1061  O     0.17400   0.22411   0.77801   0.00000  Uiso   1.00
O1062  O     0.12979   0.48059   0.75523   0.00000  Uiso   1.00
O1063  O     0.36153   0.07985   0.95317   0.00000  Uiso   1.00
O1064  O     0.38281   0.04717   0.72779   0.00000  Uiso   1.00
O1065  O     0.14769   0.39987   0.95142   0.00000  Uiso   1.00
O1066  O     0.27721   0.32707   0.89175   0.00000  Uiso   1.00
O1067  O     0.45419   0.29581   0.87154   0.00000  Uiso   1.00
O1068  O     0.23244   0.18352   0.83534   0.00000  Uiso   1.00
O1069  O     0.06777   0.01758   0.83093   0.00000  Uiso   1.00
O1070  O     0.42291   0.47201   0.77502   0.00000  Uiso   1.00
O1071  O     0.04580   0.20419   0.79513   0.00000  Uiso   1.00
O1072  O     0.45419   0.20419   0.79513   0.00000  Uiso   1.00
O1073  O     0.04580   0.29581   0.87154   0.00000  Uiso   1.00
O1074  O     0.04580   0.29581   0.79513   0.00000  Uiso   1.00
O1075  O     0.45419   0.20419   0.87154   0.00000  Uiso   1.00
O1076  O     0.29580   0.45419   0.87154   0.00000  Uiso   1.00
Zn1077 Zn    0.00000   0.25000   0.88437   0.00000  Uiso   1.00
Zn1078 Zn    0.00000   0.25000   0.78229   0.00000  Uiso   1.00
Zn1079 Zn    0.25000   0.00000   0.88437   0.00000  Uiso   1.00
Zn1080 Zn    0.25000   0.00000   0.78229   0.00000  Uiso   1.00
C1081  C     0.55996   0.19016   0.83331   0.00000  Uiso   1.00
C1082  C     0.51363   0.21346   0.97609   0.00000  Uiso   1.00
C1083  C     0.51367   0.21348   0.69075   0.00000  Uiso   1.00
C1084  C     0.98601   0.28637   0.97595   0.00000  Uiso   1.00
C1085  C     0.75098   0.03897   0.69047   0.00000  Uiso   1.00
C1086  C     0.74885   0.46103   0.97619   0.00000  Uiso   1.00
C1087  C     0.74885   0.46103   0.69088   0.00000  Uiso   1.00
C1088  C     0.75106   0.03897   0.97578   0.00000  Uiso   1.00
C1089  C     0.91012   0.12372   0.79233   0.00000  Uiso   1.00
C1090  C     0.58846   0.37752   0.87382   0.00000  Uiso   1.00
C1091  C     0.59371   0.37563   0.79074   0.00000  Uiso   1.00
C1092  C     0.93991   0.30966   0.83336   0.00000  Uiso   1.00
C1093  C     0.90673   0.12449   0.87558   0.00000  Uiso   1.00
C1094  C     0.58102   0.11337   0.84432   0.00000  Uiso   1.00
C1095  C     0.91937   0.38661   0.82343   0.00000  Uiso   1.00
C1096  C     0.86288   0.33012   0.84336   0.00000  Uiso   1.00
C1097  C     0.63689   0.16966   0.82214   0.00000  Uiso   1.00
C1098  C     0.62300   0.41127   0.79232   0.00000  Uiso   1.00
C1099  C     0.87620   0.08997   0.87451   0.00000  Uiso   1.00
C1100  C     0.87521   0.09371   0.79121   0.00000  Uiso   1.00
C1101  C     0.62400   0.40687   0.87555   0.00000  Uiso   1.00
C1102  C     0.83067   0.36331   0.84567   0.00000  Uiso   1.00
C1103  C     0.94355   0.18650   0.83357   0.00000  Uiso   1.00
C1104  C     0.67002   0.13740   0.82447   0.00000  Uiso   1.00
C1105  C     0.61330   0.08043   0.84205   0.00000  Uiso   1.00
C1106  C     0.88638   0.41884   0.82109   0.00000  Uiso   1.00
C1107  C     0.57965   0.35604   0.83230   0.00000  Uiso   1.00
C1108  C     0.91953   0.14477   0.83401   0.00000  Uiso   1.00
C1109  C     0.90676   0.34273   0.83341   0.00000  Uiso   1.00
C1110  C     0.59324   0.15712   0.83325   0.00000  Uiso   1.00
C1111  C     0.85504   0.08075   0.83280   0.00000  Uiso   1.00
C1112  C     0.64399   0.42054   0.83405   0.00000  Uiso   1.00
C1113  C     0.65729   0.09328   0.83332   0.00000  Uiso   1.00
C1114  C     0.55605   0.31386   0.83302   0.00000  Uiso   1.00
C1115  C     0.84291   0.40678   0.83334   0.00000  Uiso   1.00
C1116  C     0.93796   0.13152   0.75095   0.00000  Uiso   1.00
C1117  C     0.55845   0.37290   0.91397   0.00000  Uiso   1.00
C1118  C     0.57614   0.36131   0.74607   0.00000  Uiso   1.00
C1119  C     0.92565   0.13778   0.91994   0.00000  Uiso   1.00
C1120  C     0.53471   0.10293   0.85844   0.00000  Uiso   1.00
C1121  C     0.96707   0.39819   0.81720   0.00000  Uiso   1.00
C1122  C     0.85133   0.28223   0.84908   0.00000  Uiso   1.00
C1123  C     0.64678   0.21621   0.80778   0.00000  Uiso   1.00
C1124  C     0.62864   0.44031   0.75142   0.00000  Uiso   1.00
C1125  C     0.80987   0.44006   0.83333   0.00000  Uiso   1.00
C1126  C     0.86766   0.06270   0.91617   0.00000  Uiso   1.00
C1127  C     0.86110   0.07589   0.74669   0.00000  Uiso   1.00
C1128  C     0.63789   0.42481   0.92026   0.00000  Uiso   1.00
C1129  C     0.78449   0.35362   0.86117   0.00000  Uiso   1.00
C1130  C     0.71792   0.14905   0.81978   0.00000  Uiso   1.00
C1131  C     0.60171   0.03256   0.84712   0.00000  Uiso   1.00
C1132  C     0.89648   0.46492   0.80574   0.00000  Uiso   1.00
C1133  C     0.69036   0.06011   0.83334   0.00000  Uiso   1.00
C1134  C     0.68616   0.44399   0.83359   0.00000  Uiso   1.00
C1135  C     0.81338   0.05664   0.83312   0.00000  Uiso   1.00
C1136  C     0.98614   0.28643   0.69058   0.00000  Uiso   1.00
H1137  H     0.97504   0.31557   0.70865   0.00000  Uiso   1.00
H1138  H     0.57139   0.37081   0.94814   0.00000  Uiso   1.00
H1139  H     0.54072   0.35984   0.74057   0.00000  Uiso   1.00
H1140  H     0.91502   0.16836   0.93598   0.00000  Uiso   1.00
H1141  H     0.50730   0.12038   0.84306   0.00000  Uiso   1.00
H1142  H     0.98937   0.37523   0.80065   0.00000  Uiso   1.00
H1143  H     0.87452   0.25939   0.86470   0.00000  Uiso   1.00
H1144  H     0.62851   0.24368   0.82248   0.00000  Uiso   1.00
H1145  H     0.63030   0.42644   0.71760   0.00000  Uiso   1.00
H1146  H     0.86545   0.02688   0.91341   0.00000  Uiso   1.00
H1147  H     0.83158   0.08884   0.73050   0.00000  Uiso   1.00
H1148  H     0.52441   0.18421   0.95800   0.00000  Uiso   1.00
H1149  H     0.64057   0.46032   0.92522   0.00000  Uiso   1.00
H1150  H     0.75674   0.37147   0.84658   0.00000  Uiso   1.00
H1151  H     0.74097   0.12611   0.80403   0.00000  Uiso   1.00
H1152  H     0.62424   0.01007   0.86395   0.00000  Uiso   1.00
H1153  H     0.87930   0.49270   0.82084   0.00000  Uiso   1.00
H1154  H     0.52462   0.18429   0.70897   0.00000  Uiso   1.00
H1155  H     0.97449   0.31534   0.95781   0.00000  Uiso   1.00
H1156  H     0.75165   0.07009   0.70856   0.00000  Uiso   1.00
H1157  H     0.74792   0.42991   0.95809   0.00000  Uiso   1.00
H1158  H     0.74791   0.42991   0.70930   0.00000  Uiso   1.00
H1159  H     0.75193   0.07009   0.95736   0.00000  Uiso   1.00
H1160  H     0.97369   0.13333   0.75424   0.00000  Uiso   1.00
N1161  N     0.50000   0.25000   0.95240   0.00000  Uiso   1.00
N1162  N     0.50000   0.25000   0.71427   0.00000  Uiso   1.00
N1163  N     0.75000   0.00000   0.95240   0.00000  Uiso   1.00
N1164  N     0.75000   0.00000   0.71427   0.00000  Uiso   1.00
O1165  O     0.54580   0.20419   0.87154   0.00000  Uiso   1.00
O1166  O     0.70419   0.04581   0.79513   0.00000  Uiso   1.00
O1167  O     0.70419   0.04581   0.87154   0.00000  Uiso   1.00
O1168  O     0.79580   0.45419   0.79513   0.00000  Uiso   1.00
O1169  O     0.70419   0.45419   0.79513   0.00000  Uiso   1.00
O1170  O     0.79580   0.04581   0.87154   0.00000  Uiso   1.00
O1171  O     0.79580   0.04581   0.79513   0.00000  Uiso   1.00
O1172  O     0.70419   0.45419   0.87154   0.00000  Uiso   1.00
O1173  O     0.92147   0.13742   0.71363   0.00000  Uiso   1.00
O1174  O     0.51835   0.37316   0.90900   0.00000  Uiso   1.00
O1175  O     0.60124   0.34985   0.71564   0.00000  Uiso   1.00
O1176  O     0.95419   0.29581   0.79513   0.00000  Uiso   1.00
O1177  O     0.95267   0.11414   0.93900   0.00000  Uiso   1.00
O1178  O     0.52698   0.07589   0.88845   0.00000  Uiso   1.00
O1179  O     0.98219   0.43266   0.83220   0.00000  Uiso   1.00
O1180  O     0.81660   0.26745   0.83451   0.00000  Uiso   1.00
O1181  O     0.67400   0.22411   0.77801   0.00000  Uiso   1.00
O1182  O     0.62979   0.48059   0.75523   0.00000  Uiso   1.00
O1183  O     0.86153   0.07985   0.95317   0.00000  Uiso   1.00
O1184  O     0.88281   0.04717   0.72779   0.00000  Uiso   1.00
O1185  O     0.64769   0.39987   0.95142   0.00000  Uiso   1.00
O1186  O     0.77721   0.32707   0.89175   0.00000  Uiso   1.00
O1187  O     0.95419   0.29581   0.87154   0.00000  Uiso   1.00
O1188  O     0.73244   0.18352   0.83534   0.00000  Uiso   1.00
O1189  O     0.56777   0.01758   0.83093   0.00000  Uiso   1.00
O1190  O     0.92291   0.47201   0.77502   0.00000  Uiso   1.00
O1191  O     0.54580   0.20419   0.79513   0.00000  Uiso   1.00
O1192  O     0.95419   0.20419   0.79513   0.00000  Uiso   1.00
O1193  O     0.54580   0.29581   0.87154   0.00000  Uiso   1.00
O1194  O     0.54580   0.29581   0.79513   0.00000  Uiso   1.00
O1195  O     0.95419   0.20419   0.87154   0.00000  Uiso   1.00
O1196  O     0.79580   0.45419   0.87154   0.00000  Uiso   1.00
Zn1197 Zn    0.50000   0.25000   0.88437   0.00000  Uiso   1.00
Zn1198 Zn    0.50000   0.25000   0.78229   0.00000  Uiso   1.00
Zn1199 Zn    0.75000   0.00000   0.88437   0.00000  Uiso   1.00
Zn1200 Zn    0.75000   0.00000   0.78229   0.00000  Uiso   1.00
C1201  C     0.05996   0.69016   0.83331   0.00000  Uiso   1.00
C1202  C     0.01363   0.71346   0.97609   0.00000  Uiso   1.00
C1203  C     0.01367   0.71348   0.69075   0.00000  Uiso   1.00
C1204  C     0.48601   0.78637   0.97595   0.00000  Uiso   1.00
C1205  C     0.25098   0.53897   0.69047   0.00000  Uiso   1.00
C1206  C     0.24885   0.96103   0.97619   0.00000  Uiso   1.00
C1207  C     0.24885   0.96103   0.69088   0.00000  Uiso   1.00
C1208  C     0.25106   0.53897   0.97578   0.00000  Uiso   1.00
C1209  C     0.41012   0.62372   0.79233   0.00000  Uiso   1.00
C1210  C     0.08846   0.87752   0.87382   0.00000  Uiso   1.00
C1211  C     0.09371   0.87563   0.79074   0.00000  Uiso   1.00
C1212  C     0.43991   0.80966   0.83336   0.00000  Uiso   1.00
C1213  C     0.40673   0.62449   0.87558   0.00000  Uiso   1.00
C1214  C     0.08102   0.61337   0.84432   0.00000  Uiso   1.00
C1215  C     0.41937   0.88661   0.82343   0.00000  Uiso   1.00
C1216  C     0.36288   0.83012   0.84336   0.00000  Uiso   1.00
C1217  C     0.13689   0.66966   0.82214   0.00000  Uiso   1.00
C1218  C     0.12300   0.91127   0.79232   0.00000  Uiso   1.00
C1219  C     0.37620   0.58997   0.87451   0.00000  Uiso   1.00
C1220  C     0.37521   0.59371   0.79121   0.00000  Uiso   1.00
C1221  C     0.12400   0.90687   0.87555   0.00000  Uiso   1.00
C1222  C     0.33067   0.86331   0.84567   0.00000  Uiso   1.00
C1223  C     0.44355   0.68650   0.83357   0.00000  Uiso   1.00
C1224  C     0.17002   0.63740   0.82447   0.00000  Uiso   1.00
C1225  C     0.11330   0.58043   0.84205   0.00000  Uiso   1.00
C1226  C     0.38638   0.91884   0.82109   0.00000  Uiso   1.00
C1227  C     0.07965   0.85604   0.83230   0.00000  Uiso   1.00
C1228  C     0.41953   0.64477   0.83401   0.00000  Uiso   1.00
C1229  C     0.40676   0.84273   0.83341   0.00000  Uiso   1.00
C1230  C     0.09324   0.65712   0.83325   0.00000  Uiso   1.00
C1231  C     0.35504   0.58075   0.83280   0.00000  Uiso   1.00
C1232  C     0.14399   0.92054   0.83405   0.00000  Uiso   1.00
C1233  C     0.15729   0.59328   0.83332   0.00000  Uiso   1.00
C1234  C     0.05605   0.81386   0.83302   0.00000  Uiso   1.00
C1235  C     0.34291   0.90678   0.83334   0.00000  Uiso   1.00
C1236  C     0.43796   0.63152   0.75095   0.00000  Uiso   1.00
C1237  C     0.05845   0.87290   0.91397   0.00000  Uiso   1.00
C1238  C     0.07614   0.86131   0.74607   0.00000  Uiso   1.00
C1239  C     0.42565   0.63778   0.91994   0.00000  Uiso   1.00
C1240  C     0.03471   0.60293   0.85844   0.00000  Uiso   1.00
C1241  C     0.46707   0.89819   0.81720   0.00000  Uiso   1.00
C1242  C     0.35133   0.78223   0.84908   0.00000  Uiso   1.00
C1243  C     0.14678   0.71621   0.80778   0.00000  Uiso   1.00
C1244  C     0.12864   0.94031   0.75142   0.00000  Uiso   1.00
C1245  C     0.30987   0.94006   0.83333   0.00000  Uiso   1.00
C1246  C     0.36766   0.56270   0.91617   0.00000  Uiso   1.00
C1247  C     0.36110   0.57589   0.74669   0.00000  Uiso   1.00
C1248  C     0.13789   0.92481   0.92026   0.00000  Uiso   1.00
C1249  C     0.28449   0.85362   0.86117   0.00000  Uiso   1.00
C1250  C     0.21792   0.64905   0.81978   0.00000  Uiso   1.00
C1251  C     0.10171   0.53256   0.84712   0.00000  Uiso   1.00
C1252  C     0.39648   0.96492   0.80574   0.00000  Uiso   1.00
C1253  C     0.19036   0.56011   0.83334   0.00000  Uiso   1.00
C1254  C     0.18616   0.94399   0.83359   0.00000  Uiso   1.00
C1255  C     0.31338   0.55664   0.83312   0.00000  Uiso   1.00
C1256  C     0.48614   0.78643   0.69058   0.00000  Uiso   1.00
H1257  H     0.47504   0.81557   0.70865   0.00000  Uiso   1.00
H1258  H     0.07139   0.87081   0.94814   0.00000  Uiso   1.00
H1259  H     0.04072   0.85984   0.74057   0.00000  Uiso   1.00
H1260  H     0.41502   0.66836   0.93598   0.00000  Uiso   1.00
H1261  H     0.00730   0.62038   0.84306   0.00000  Uiso   1.00
H1262  H     0.48937   0.87523   0.80065   0.00000  Uiso   1.00
H1263  H     0.37452   0.75939   0.86470   0.00000  Uiso   1.00
H1264  H     0.12851   0.74368   0.82248   0.00000  Uiso   1.00
H1265  H     0.13030   0.92644   0.71760   0.00000  Uiso   1.00
H1266  H     0.36545   0.52688   0.91341   0.00000  Uiso   1.00
H1267  H     0.33158   0.58884   0.73050   0.00000  Uiso   1.00
H1268  H     0.02441   0.68421   0.95800   0.00000  Uiso   1.00
H1269  H     0.14057   0.96032   0.92522   0.00000  Uiso   1.00
H1270  H     0.25674   0.87147   0.84658   0.00000  Uiso   1.00
H1271  H     0.24097   0.62611   0.80403   0.00000  Uiso   1.00
H1272  H     0.12424   0.51007   0.86395   0.00000  Uiso   1.00
H1273  H     0.37930   0.99270   0.82084   0.00000  Uiso   1.00
H1274  H     0.02462   0.68429   0.70897   0.00000  Uiso   1.00
H1275  H     0.47449   0.81534   0.95781   0.00000  Uiso   1.00
H1276  H     0.25165   0.57009   0.70856   0.00000  Uiso   1.00
H1277  H     0.24792   0.92991   0.95809   0.00000  Uiso   1.00
H1278  H     0.24791   0.92991   0.70930   0.00000  Uiso   1.00
H1279  H     0.25193   0.57009   0.95736   0.00000  Uiso   1.00
H1280  H     0.47369   0.63333   0.75424   0.00000  Uiso   1.00
N1281  N     0.00000   0.75000   0.95240   0.00000  Uiso   1.00
N1282  N    -0.00000   0.75000   0.71427   0.00000  Uiso   1.00
N1283  N     0.25000   0.50000   0.95240   0.00000  Uiso   1.00
N1284  N     0.25000   0.50000   0.71427   0.00000  Uiso   1.00
O1285  O     0.04580   0.70419   0.87154   0.00000  Uiso   1.00
O1286  O     0.20419   0.54581   0.79513   0.00000  Uiso   1.00
O1287  O     0.20419   0.54581   0.87154   0.00000  Uiso   1.00
O1288  O     0.29580   0.95419   0.79513   0.00000  Uiso   1.00
O1289  O     0.20419   0.95419   0.79513   0.00000  Uiso   1.00
O1290  O     0.29580   0.54581   0.87154   0.00000  Uiso   1.00
O1291  O     0.29580   0.54581   0.79513   0.00000  Uiso   1.00
O1292  O     0.20419   0.95419   0.87154   0.00000  Uiso   1.00
O1293  O     0.42147   0.63742   0.71363   0.00000  Uiso   1.00
O1294  O     0.01835   0.87316   0.90900   0.00000  Uiso   1.00
O1295  O     0.10124   0.84985   0.71564   0.00000  Uiso   1.00
O1296  O     0.45419   0.79581   0.79513   0.00000  Uiso   1.00
O1297  O     0.45267   0.61414   0.93900   0.00000  Uiso   1.00
O1298  O     0.02698   0.57589   0.88845   0.00000  Uiso   1.00
O1299  O     0.48219   0.93266   0.83220   0.00000  Uiso   1.00
O1300  O     0.31660   0.76745   0.83451   0.00000  Uiso   1.00
O1301  O     0.17400   0.72411   0.77801   0.00000  Uiso   1.00
O1302  O     0.12979   0.98059   0.75523   0.00000  Uiso   1.00
O1303  O     0.36153   0.57985   0.95317   0.00000  Uiso   1.00
O1304  O     0.38281   0.54717   0.72779   0.00000  Uiso   1.00
O1305  O     0.14769   0.89987   0.95142   0.00000  Uiso   1.00
O1306  O     0.27721   0.82707   0.89175   0.00000  Uiso   1.00
O1307  O     0.45419   0.79581   0.87154   0.00000  Uiso   1.00
O1308  O     0.23244   0.68352   0.83534   0.00000  Uiso   1.00
O1309  O     0.06777   0.51758   0.83093   0.00000  Uiso   1.00
O1310  O     0.42291   0.97201   0.77502   0.00000  Uiso   1.00
O1311  O     0.04580   0.70419   0.79513   0.00000  Uiso   1.00
O1312  O     0.45419   0.70419   0.79513   0.00000  Uiso   1.00
O1313  O     0.04580   0.79581   0.87154   0.00000  Uiso   1.00
O1314  O     0.04580   0.79581   0.79513   0.00000  Uiso   1.00
O1315  O     0.45419   0.70419   0.87154   0.00000  Uiso   1.00
O1316  O     0.29580   0.95419   0.87154   0.00000  Uiso   1.00
Zn1317 Zn    0.00000   0.75000   0.88437   0.00000  Uiso   1.00
Zn1318 Zn    0.00000   0.75000   0.78229   0.00000  Uiso   1.00
Zn1319 Zn    0.25000   0.50000   0.88437   0.00000  Uiso   1.00
Zn1320 Zn    0.25000   0.50000   0.78229   0.00000  Uiso   1.00
C1321  C     0.55996   0.69016   0.83331   0.00000  Uiso   1.00
C1322  C     0.51363   0.71346   0.97609   0.00000  Uiso   1.00
C1323  C     0.51367   0.71348   0.69075   0.00000  Uiso   1.00
C1324  C     0.98601   0.78637   0.97595   0.00000  Uiso   1.00
C1325  C     0.75098   0.53897   0.69047   0.00000  Uiso   1.00
C1326  C     0.74885   0.96103   0.97619   0.00000  Uiso   1.00
C1327  C     0.74885   0.96103   0.69088   0.00000  Uiso   1.00
C1328  C     0.75106   0.53897   0.97578   0.00000  Uiso   1.00
C1329  C     0.91012   0.62372   0.79233   0.00000  Uiso   1.00
C1330  C     0.58846   0.87752   0.87382   0.00000  Uiso   1.00
C1331  C     0.59371   0.87563   0.79074   0.00000  Uiso   1.00
C1332  C     0.93991   0.80966   0.83336   0.00000  Uiso   1.00
C1333  C     0.90673   0.62449   0.87558   0.00000  Uiso   1.00
C1334  C     0.58102   0.61337   0.84432   0.00000  Uiso   1.00
C1335  C     0.91937   0.88661   0.82343   0.00000  Uiso   1.00
C1336  C     0.86288   0.83012   0.84336   0.00000  Uiso   1.00
C1337  C     0.63689   0.66966   0.82214   0.00000  Uiso   1.00
C1338  C     0.62300   0.91127   0.79232   0.00000  Uiso   1.00
C1339  C     0.87620   0.58997   0.87451   0.00000  Uiso   1.00
C1340  C     0.87521   0.59371   0.79121   0.00000  Uiso   1.00
C1341  C     0.62400   0.90687   0.87555   0.00000  Uiso   1.00
C1342  C     0.83067   0.86331   0.84567   0.00000  Uiso   1.00
C1343  C     0.94355   0.68650   0.83357   0.00000  Uiso   1.00
C1344  C     0.67002   0.63740   0.82447   0.00000  Uiso   1.00
C1345  C     0.61330   0.58043   0.84205   0.00000  Uiso   1.00
C1346  C     0.88638   0.91884   0.82109   0.00000  Uiso   1.00
C1347  C     0.57965   0.85604   0.83230   0.00000  Uiso   1.00
C1348  C     0.91953   0.64477   0.83401   0.00000  Uiso   1.00
C1349  C     0.90676   0.84273   0.83341   0.00000  Uiso   1.00
C1350  C     0.59324   0.65712   0.83325   0.00000  Uiso   1.00
C1351  C     0.85504   0.58075   0.83280   0.00000  Uiso   1.00
C1352  C     0.64399   0.92054   0.83405   0.00000  Uiso   1.00
C1353  C     0.65729   0.59328   0.83332   0.00000  Uiso   1.00
C1354  C     0.55605   0.81386   0.83302   0.00000  Uiso   1.00
C1355  C     0.84291   0.90678   0.83334   0.00000  Uiso   1.00
C1356  C     0.93796   0.63152   0.75095   0.00000  Uiso   1.00
C1357  C     0.55845   0.87290   0.91397   0.00000  Uiso   1.00
C1358  C     0.57614   0.86131   0.74607   0.00000  Uiso   1.00
C1359  C     0.92565   0.63778   0.91994   0.00000  Uiso   1.00
C1360  C     0.53471   0.60293   0.85844   0.00000  Uiso   1.00
C1361  C     0.96707   0.89819   0.81720   0.00000  Uiso   1.00
C1362  C     0.85133   0.78223   0.84908   0.00000  Uiso   1.00
C1363  C     0.64678   0.71621   0.80778   0.00000  Uiso   1.00
C1364  C     0.62864   0.94031   0.75142   0.00000  Uiso   1.00
C1365  C     0.80987   0.94006   0.83333   0.00000  Uiso   1.00
C1366  C     0.86766   0.56270   0.91617   0.00000  Uiso   1.00
C1367  C     0.86110   0.57589   0.74669   0.00000  Uiso   1.00
C1368  C     0.63789   0.92481   0.92026   0.00000  Uiso   1.00
C1369  C     0.78449   0.85362   0.86117   0.00000  Uiso   1.00
C1370  C     0.71792   0.64905   0.81978   0.00000  Uiso   1.00
C1371  C     0.60171   0.53256   0.84712   0.00000  Uiso   1.00
C1372  C     0.89648   0.96492   0.80574   0.00000  Uiso   1.00
C1373  C     0.69036   0.56011   0.83334   0.00000  Uiso   1.00
C1374  C     0.68616   0.94399   0.83359   0.00000  Uiso   1.00
C1375  C     0.81338   0.55664   0.83312   0.00000  Uiso   1.00
C1376  C     0.98614   0.78643   0.69058   0.00000  Uiso   1.00
H1377  H     0.97504   0.81557   0.70865   0.00000  Uiso   1.00
H1378  H     0.57139   0.87081   0.94814   0.00000  Uiso   1.00
H1379  H     0.54072   0.85984   0.74057   0.00000  Uiso   1.00
H1380  H     0.91502   0.66836   0.93598   0.00000  Uiso   1.00
H1381  H     0.50730   0.62038   0.84306   0.00000  Uiso   1.00
H1382  H     0.98937   0.87523   0.80065   0.00000  Uiso   1.00
H1383  H     0.87452   0.75939   0.86470   0.00000  Uiso   1.00
H1384  H     0.62851   0.74368   0.82248   0.00000  Uiso   1.00
H1385  H     0.63030   0.92644   0.71760   0.00000  Uiso   1.00
H1386  H     0.86545   0.52688   0.91341   0.00000  Uiso   1.00
H1387  H     0.83158   0.58884   0.73050   0.00000  Uiso   1.00
H1388  H     0.52441   0.68421   0.95800   0.00000  Uiso   1.00
H1389  H     0.64057   0.96032   0.92522   0.00000  Uiso   1.00
H1390  H     0.75674   0.87147   0.84658   0.00000  Uiso   1.00
H1391  H     0.74097   0.62611   0.80403   0.00000  Uiso   1.00
H1392  H     0.62424   0.51007   0.86395   0.00000  Uiso   1.00
H1393  H     0.87930   0.99270   0.82084   0.00000  Uiso   1.00
H1394  H     0.52462   0.68429   0.70897   0.00000  Uiso   1.00
H1395  H     0.97449   0.81534   0.95781   0.00000  Uiso   1.00
H1396  H     0.75165   0.57009   0.70856   0.00000  Uiso   1.00
H1397  H     0.74792   0.92991   0.95809   0.00000  Uiso   1.00
H1398  H     0.74791   0.92991   0.70930   0.00000  Uiso   1.00
H1399  H     0.75193   0.57009   0.95736   0.00000  Uiso   1.00
H1400  H     0.97369   0.63333   0.75424   0.00000  Uiso   1.00
N1401  N     0.50000   0.75000   0.95240   0.00000  Uiso   1.00
N1402  N     0.50000   0.75000   0.71427   0.00000  Uiso   1.00
N1403  N     0.75000   0.50000   0.95240   0.00000  Uiso   1.00
N1404  N     0.75000   0.50000   0.71427   0.00000  Uiso   1.00
O1405  O     0.54580   0.70419   0.87154   0.00000  Uiso   1.00
O1406  O     0.70419   0.54581   0.79513   0.00000  Uiso   1.00
O1407  O     0.70419   0.54581   0.87154   0.00000  Uiso   1.00
O1408  O     0.79580   0.95419   0.79513   0.00000  Uiso   1.00
O1409  O     0.70419   0.95419   0.79513   0.00000  Uiso   1.00
O1410  O     0.79580   0.54581   0.87154   0.00000  Uiso   1.00
O1411  O     0.79580   0.54581   0.79513   0.00000  Uiso   1.00
O1412  O     0.70419   0.95419   0.87154   0.00000  Uiso   1.00
O1413  O     0.92147   0.63742   0.71363   0.00000  Uiso   1.00
O1414  O     0.51835   0.87316   0.90900   0.00000  Uiso   1.00
O1415  O     0.60124   0.84985   0.71564   0.00000  Uiso   1.00
O1416  O     0.95419   0.79581   0.79513   0.00000  Uiso   1.00
O1417  O     0.95267   0.61414   0.93900   0.00000  Uiso   1.00
O1418  O     0.52698   0.57589   0.88845   0.00000  Uiso   1.00
O1419  O     0.98219   0.93266   0.83220   0.00000  Uiso   1.00
O1420  O     0.81660   0.76745   0.83451   0.00000  Uiso   1.00
O1421  O     0.67400   0.72411   0.77801   0.00000  Uiso   1.00
O1422  O     0.62979   0.98059   0.75523   0.00000  Uiso   1.00
O1423  O     0.86153   0.57985   0.95317   0.00000  Uiso   1.00
O1424  O     0.88281   0.54717   0.72779   0.00000  Uiso   1.00
O1425  O     0.64769   0.89987   0.95142   0.00000  Uiso   1.00
O1426  O     0.77721   0.82707   0.89175   0.00000  Uiso   1.00
O1427  O     0.95419   0.79581   0.87154   0.00000  Uiso   1.00
O1428  O     0.73244   0.68352   0.83534   0.00000  Uiso   1.00
O1429  O     0.56777   0.51758   0.83093   0.00000  Uiso   1.00
O1430  O     0.92291   0.97201   0.77502   0.00000  Uiso   1.00
O1431  O     0.54580   0.70419   0.79513   0.00000  Uiso   1.00
O1432  O     0.95419   0.70419   0.79513   0.00000  Uiso   1.00
O1433  O     0.54580   0.79581   0.87154   0.00000  Uiso   1.00
O1434  O     0.54580   0.79581   0.79513   0.00000  Uiso   1.00
O1435  O     0.95419   0.70419   0.87154   0.00000  Uiso   1.00
O1436  O     0.79580   0.95419   0.87154   0.00000  Uiso   1.00
Zn1437 Zn    0.50000   0.75000   0.88437   0.00000  Uiso   1.00
Zn1438 Zn    0.50000   0.75000   0.78229   0.00000  Uiso   1.00
Zn1439 Zn    0.75000   0.50000   0.88437   0.00000  Uiso   1.00
Zn1440 Zn    0.75000   0.50000   0.78229   0.00000  Uiso   1.00
loop_
_geom_bond_atom_site_label_1
_geom_bond_atom_site_label_2
_geom_bond_distance
_geom_bond_site_symmetry_2
_ccdc_geom_bond_type
C1     O85     1.276   .     A
C1     O111    1.275   .     A
C1     C30     1.414   .     S
C2     H68     1.081   .     S
C2     N81     1.365   .     A
C2     C483    1.413   .     S
C3     H74     1.081   .     S
C3     C962    1.413   1_554 S
C3     N82     1.366   .     S
C4     H75     1.080   .     S
C4     C536    1.413   .     S
C4     N201    1.366   .     S
C5     N84     1.365   .     A
C5     H76     1.082   .     S
C5     C968    1.414   1_554 S
C6     H77     1.082   .     S
C6     C487    1.414   .     S
C6     N323    1.366   .     S
C7     H78     1.082   .     S
C7     C966    1.414   1_554 S
C7     N324    1.366   .     S
C8     N83     1.366   .     A
C8     H79     1.082   .     S
C8     C485    1.414   .     S
C9     C36     1.494   .     S
C9     C20     1.391   .     A
C9     C28     1.415   .     A
C10    C27     1.413   .     A
C10    C37     1.491   .     S
C10    C21     1.393   .     A
C11    C18     1.394   .     A
C11    C38     1.488   .     S
C11    C27     1.419   .     A
C12    C29     1.412   .     S
C12    O107    1.275   .     A
C12    O96     1.275   .     A
C13    C28     1.418   .     A
C13    C19     1.392   .     A
C13    C39     1.486   .     S
C14    C30     1.407   .     A
C14    C25     1.392   .     A
C14    C40     1.490   .     S
C15    C29     1.406   .     A
C15    C41     1.493   .     S
C15    C26     1.392   .     A
C16    C29     1.408   .     A
C16    C42     1.495   .     S
C16    C22     1.396   .     A
C17    C30     1.408   .     A
C17    C24     1.396   .     A
C17    C43     1.494   .     S
C18    C32     1.415   .     A
C18    C44     1.495   .     S
C19    C31     1.417   .     A
C19    C46     1.495   .     S
C20    C47     1.485   .     S
C20    C31     1.418   .     A
C21    C48     1.489   .     S
C21    C32     1.419   .     A
C22    C35     1.408   .     A
C22    C49     1.494   .     S
C23    O115    1.284   .     A
C23    O112    1.288   .     A
C23    C28     1.453   .     S
C24    C50     1.495   .     S
C24    C33     1.408   .     A
C25    C51     1.492   .     S
C25    C33     1.406   .     A
C26    C52     1.490   .     S
C26    C35     1.407   .     A
C27    C34     1.459   .     S
C31    C55     1.454   .     S
C32    C54     1.458   .     S
C33    C53     1.412   .     S
C34    O113    1.292   .     A
C34    O114    1.284   .     A
C35    C45     1.414   .     S
C36    O93     1.221   .     D
C36    H80     1.085   .     S
C37    H58     1.083   .     S
C37    O94     1.221   .     D
C38    O95     1.221   .     D
C38    H59     1.084   .     S
C39    O97     1.220   .     D
C39    H60     1.085   .     S
C40    O98     1.221   .     D
C40    H61     1.081   .     S
C41    O99     1.221   .     D
C41    H62     1.081   .     S
C42    O100    1.221   .     D
C42    H63     1.084   .     S
C43    O101    1.221   .     D
C43    H64     1.085   .     S
C44    H65     1.083   .     S
C44    O102    1.221   .     D
C45    O88     1.276   .     A
C45    O116    1.275   .     A
C46    H66     1.086   .     S
C46    O103    1.221   .     D
C47    H67     1.085   .     S
C47    O104    1.220   .     D
C48    H69     1.085   .     S
C48    O105    1.221   .     D
C49    H70     1.085   .     S
C49    O106    1.221   .     D
C50    O108    1.221   .     D
C50    H71     1.085   .     S
C51    O109    1.221   .     D
C51    H72     1.081   .     S
C52    O110    1.221   .     D
C52    H73     1.081   .     S
C53    O86     1.275   .     A
C53    O87     1.275   .     A
C54    O92     1.285   .     A
C54    O89     1.290   .     A
C55    O90     1.288   .     A
C55    O91     1.285   .     A
C56    H57     1.081   .     S
C56    N202    1.365   .     A
C56    C964    1.413   1_554 S
N81    Zn117   2.003   .     S
N81    C124    1.366   1_455 S
N82    C176    1.365   1_455 A
N82    Zn118   2.003   .     S
N83    Zn119   2.003   .     S
N83    C246    1.366   1_545 S
N84    Zn120   2.003   .     S
N84    C247    1.366   1_545 S
O85    Zn117   1.989   .     S
O86    Zn120   1.989   .     S
O87    Zn119   1.990   .     S
O88    Zn360   1.990   .     S
O89    Zn360   1.989   .     S
O90    Zn119   1.989   .     S
O91    Zn120   1.995   .     S
O92    Zn359   1.995   .     S
O96    Zn238   1.989   .     S
O107   Zn237   1.990   .     S
O111   Zn118   1.990   .     S
O112   Zn238   1.989   .     S
O113   Zn117   1.989   .     S
O114   Zn118   1.995   .     S
O115   Zn237   1.995   .     S
O116   Zn359   1.989   .     S
Zn117  O235    1.995   1_455 S
Zn117  O227    1.990   1_455 S
Zn118  O232    1.989   1_455 S
Zn118  O216    1.989   1_455 S
Zn119  O332    1.995   1_545 S
Zn119  O356    1.989   1_545 S
Zn120  O329    1.989   1_545 S
Zn120  O328    1.990   1_545 S
C121   O205    1.276   .     A
C121   O231    1.275   .     A
C121   C150    1.414   .     S
C122   H188    1.081   .     S
C122   N201    1.365   .     A
C122   C603    1.413   .     S
C123   H194    1.081   .     S
C123   C1082   1.413   1_554 S
C123   N202    1.366   .     S
C124   H195    1.080   .     S
C124   C656    1.413   .     S
C124   N81     1.366   1_655 S
C125   N204    1.365   .     A
C125   H196    1.082   .     S
C125   C1088   1.414   1_554 S
C126   H197    1.082   .     S
C126   C607    1.414   .     S
C126   N443    1.366   .     S
C127   H198    1.082   .     S
C127   C1086   1.414   1_554 S
C127   N444    1.366   .     S
C128   N203    1.366   .     A
C128   H199    1.082   .     S
C128   C605    1.414   .     S
C129   C156    1.494   .     S
C129   C140    1.391   .     A
C129   C148    1.415   .     A
C130   C147    1.413   .     A
C130   C157    1.491   .     S
C130   C141    1.393   .     A
C131   C138    1.394   .     A
C131   C158    1.488   .     S
C131   C147    1.419   .     A
C132   C149    1.412   .     S
C132   O227    1.275   .     A
C132   O216    1.275   .     A
C133   C148    1.418   .     A
C133   C139    1.392   .     A
C133   C159    1.486   .     S
C134   C150    1.407   .     A
C134   C145    1.392   .     A
C134   C160    1.490   .     S
C135   C149    1.406   .     A
C135   C161    1.493   .     S
C135   C146    1.392   .     A
C136   C149    1.408   .     A
C136   C162    1.495   .     S
C136   C142    1.396   .     A
C137   C150    1.408   .     A
C137   C144    1.396   .     A
C137   C163    1.494   .     S
C138   C152    1.415   .     A
C138   C164    1.495   .     S
C139   C151    1.417   .     A
C139   C166    1.495   .     S
C140   C167    1.485   .     S
C140   C151    1.418   .     A
C141   C168    1.489   .     S
C141   C152    1.419   .     A
C142   C155    1.408   .     A
C142   C169    1.494   .     S
C143   O235    1.284   .     A
C143   O232    1.288   .     A
C143   C148    1.453   .     S
C144   C170    1.495   .     S
C144   C153    1.408   .     A
C145   C171    1.492   .     S
C145   C153    1.406   .     A
C146   C172    1.490   .     S
C146   C155    1.407   .     A
C147   C154    1.459   .     S
C151   C175    1.454   .     S
C152   C174    1.458   .     S
C153   C173    1.412   .     S
C154   O233    1.292   .     A
C154   O234    1.284   .     A
C155   C165    1.414   .     S
C156   O213    1.221   .     D
C156   H200    1.085   .     S
C157   H178    1.083   .     S
C157   O214    1.221   .     D
C158   O215    1.221   .     D
C158   H179    1.084   .     S
C159   O217    1.220   .     D
C159   H180    1.085   .     S
C160   O218    1.221   .     D
C160   H181    1.081   .     S
C161   O219    1.221   .     D
C161   H182    1.081   .     S
C162   O220    1.221   .     D
C162   H183    1.084   .     S
C163   O221    1.221   .     D
C163   H184    1.085   .     S
C164   H185    1.083   .     S
C164   O222    1.221   .     D
C165   O208    1.276   .     A
C165   O236    1.275   .     A
C166   H186    1.086   .     S
C166   O223    1.221   .     D
C167   H187    1.085   .     S
C167   O224    1.220   .     D
C168   H189    1.085   .     S
C168   O225    1.221   .     D
C169   H190    1.085   .     S
C169   O226    1.221   .     D
C170   O228    1.221   .     D
C170   H191    1.085   .     S
C171   O229    1.221   .     D
C171   H192    1.081   .     S
C172   O230    1.221   .     D
C172   H193    1.081   .     S
C173   O206    1.275   .     A
C173   O207    1.275   .     A
C174   O212    1.285   .     A
C174   O209    1.290   .     A
C175   O210    1.288   .     A
C175   O211    1.285   .     A
C176   H177    1.081   .     S
C176   N82     1.365   1_655 A
C176   C1084   1.413   1_554 S
N201   Zn237   2.003   .     S
N202   Zn238   2.003   .     S
N203   Zn239   2.003   .     S
N203   C366    1.366   1_545 S
N204   Zn240   2.003   .     S
N204   C367    1.366   1_545 S
O205   Zn237   1.989   .     S
O206   Zn240   1.989   .     S
O207   Zn239   1.990   .     S
O208   Zn480   1.990   .     S
O209   Zn480   1.989   .     S
O210   Zn239   1.989   .     S
O211   Zn240   1.995   .     S
O212   Zn479   1.995   .     S
O216   Zn118   1.989   1_655 S
O227   Zn117   1.990   1_655 S
O231   Zn238   1.990   .     S
O232   Zn118   1.989   1_655 S
O233   Zn237   1.989   .     S
O234   Zn238   1.995   .     S
O235   Zn117   1.995   1_655 S
O236   Zn479   1.989   .     S
Zn239  O452    1.995   1_545 S
Zn239  O476    1.989   1_545 S
Zn240  O449    1.989   1_545 S
Zn240  O448    1.990   1_545 S
C241   O325    1.276   .     A
C241   O351    1.275   .     A
C241   C270    1.414   .     S
C242   H308    1.081   .     S
C242   N321    1.365   .     A
C242   C723    1.413   .     S
C243   H314    1.081   .     S
C243   C1202   1.413   1_554 S
C243   N322    1.366   .     S
C244   H315    1.080   .     S
C244   C776    1.413   .     S
C244   N441    1.366   .     S
C245   N324    1.365   .     A
C245   H316    1.082   .     S
C245   C1208   1.414   1_554 S
C246   H317    1.082   .     S
C246   C727    1.414   .     S
C246   N83     1.366   1_565 S
C247   H318    1.082   .     S
C247   C1206   1.414   1_554 S
C247   N84     1.366   1_565 S
C248   N323    1.366   .     A
C248   H319    1.082   .     S
C248   C725    1.414   .     S
C249   C276    1.494   .     S
C249   C260    1.391   .     A
C249   C268    1.415   .     A
C250   C267    1.413   .     A
C250   C277    1.491   .     S
C250   C261    1.393   .     A
C251   C258    1.394   .     A
C251   C278    1.488   .     S
C251   C267    1.419   .     A
C252   C269    1.412   .     S
C252   O347    1.275   .     A
C252   O336    1.275   .     A
C253   C268    1.418   .     A
C253   C259    1.392   .     A
C253   C279    1.486   .     S
C254   C270    1.407   .     A
C254   C265    1.392   .     A
C254   C280    1.490   .     S
C255   C269    1.406   .     A
C255   C281    1.493   .     S
C255   C266    1.392   .     A
C256   C269    1.408   .     A
C256   C282    1.495   .     S
C256   C262    1.396   .     A
C257   C270    1.408   .     A
C257   C264    1.396   .     A
C257   C283    1.494   .     S
C258   C272    1.415   .     A
C258   C284    1.495   .     S
C259   C271    1.417   .     A
C259   C286    1.495   .     S
C260   C287    1.485   .     S
C260   C271    1.418   .     A
C261   C288    1.489   .     S
C261   C272    1.419   .     A
C262   C275    1.408   .     A
C262   C289    1.494   .     S
C263   O355    1.284   .     A
C263   O352    1.288   .     A
C263   C268    1.453   .     S
C264   C290    1.495   .     S
C264   C273    1.408   .     A
C265   C291    1.492   .     S
C265   C273    1.406   .     A
C266   C292    1.490   .     S
C266   C275    1.407   .     A
C267   C274    1.459   .     S
C271   C295    1.454   .     S
C272   C294    1.458   .     S
C273   C293    1.412   .     S
C274   O353    1.292   .     A
C274   O354    1.284   .     A
C275   C285    1.414   .     S
C276   O333    1.221   .     D
C276   H320    1.085   .     S
C277   H298    1.083   .     S
C277   O334    1.221   .     D
C278   O335    1.221   .     D
C278   H299    1.084   .     S
C279   O337    1.220   .     D
C279   H300    1.085   .     S
C280   O338    1.221   .     D
C280   H301    1.081   .     S
C281   O339    1.221   .     D
C281   H302    1.081   .     S
C282   O340    1.221   .     D
C282   H303    1.084   .     S
C283   O341    1.221   .     D
C283   H304    1.085   .     S
C284   H305    1.083   .     S
C284   O342    1.221   .     D
C285   O328    1.276   .     A
C285   O356    1.275   .     A
C286   H306    1.086   .     S
C286   O343    1.221   .     D
C287   H307    1.085   .     S
C287   O344    1.220   .     D
C288   H309    1.085   .     S
C288   O345    1.221   .     D
C289   H310    1.085   .     S
C289   O346    1.221   .     D
C290   O348    1.221   .     D
C290   H311    1.085   .     S
C291   O349    1.221   .     D
C291   H312    1.081   .     S
C292   O350    1.221   .     D
C292   H313    1.081   .     S
C293   O326    1.275   .     A
C293   O327    1.275   .     A
C294   O332    1.285   .     A
C294   O329    1.290   .     A
C295   O330    1.288   .     A
C295   O331    1.285   .     A
C296   H297    1.081   .     S
C296   N442    1.365   .     A
C296   C1204   1.413   1_554 S
N321   Zn357   2.003   .     S
N321   C364    1.366   1_455 S
N322   C416    1.365   1_455 A
N322   Zn358   2.003   .     S
N323   Zn359   2.003   .     S
N324   Zn360   2.003   .     S
O325   Zn357   1.989   .     S
O326   Zn360   1.989   .     S
O327   Zn359   1.990   .     S
O328   Zn120   1.990   1_565 S
O329   Zn120   1.989   1_565 S
O330   Zn359   1.989   .     S
O331   Zn360   1.995   .     S
O332   Zn119   1.995   1_565 S
O336   Zn478   1.989   .     S
O347   Zn477   1.990   .     S
O351   Zn358   1.990   .     S
O352   Zn478   1.989   .     S
O353   Zn357   1.989   .     S
O354   Zn358   1.995   .     S
O355   Zn477   1.995   .     S
O356   Zn119   1.989   1_565 S
Zn357  O475    1.995   1_455 S
Zn357  O467    1.990   1_455 S
Zn358  O472    1.989   1_455 S
Zn358  O456    1.989   1_455 S
C361   O445    1.276   .     A
C361   O471    1.275   .     A
C361   C390    1.414   .     S
C362   H428    1.081   .     S
C362   N441    1.365   .     A
C362   C843    1.413   .     S
C363   H434    1.081   .     S
C363   C1322   1.413   1_554 S
C363   N442    1.366   .     S
C364   H435    1.080   .     S
C364   C896    1.413   .     S
C364   N321    1.366   1_655 S
C365   N444    1.365   .     A
C365   H436    1.082   .     S
C365   C1328   1.414   1_554 S
C366   H437    1.082   .     S
C366   C847    1.414   .     S
C366   N203    1.366   1_565 S
C367   H438    1.082   .     S
C367   C1326   1.414   1_554 S
C367   N204    1.366   1_565 S
C368   N443    1.366   .     A
C368   H439    1.082   .     S
C368   C845    1.414   .     S
C369   C396    1.494   .     S
C369   C380    1.391   .     A
C369   C388    1.415   .     A
C370   C387    1.413   .     A
C370   C397    1.491   .     S
C370   C381    1.393   .     A
C371   C378    1.394   .     A
C371   C398    1.488   .     S
C371   C387    1.419   .     A
C372   C389    1.412   .     S
C372   O467    1.275   .     A
C372   O456    1.275   .     A
C373   C388    1.418   .     A
C373   C379    1.392   .     A
C373   C399    1.486   .     S
C374   C390    1.407   .     A
C374   C385    1.392   .     A
C374   C400    1.490   .     S
C375   C389    1.406   .     A
C375   C401    1.493   .     S
C375   C386    1.392   .     A
C376   C389    1.408   .     A
C376   C402    1.495   .     S
C376   C382    1.396   .     A
C377   C390    1.408   .     A
C377   C384    1.396   .     A
C377   C403    1.494   .     S
C378   C392    1.415   .     A
C378   C404    1.495   .     S
C379   C391    1.417   .     A
C379   C406    1.495   .     S
C380   C407    1.485   .     S
C380   C391    1.418   .     A
C381   C408    1.489   .     S
C381   C392    1.419   .     A
C382   C395    1.408   .     A
C382   C409    1.494   .     S
C383   O475    1.284   .     A
C383   O472    1.288   .     A
C383   C388    1.453   .     S
C384   C410    1.495   .     S
C384   C393    1.408   .     A
C385   C411    1.492   .     S
C385   C393    1.406   .     A
C386   C412    1.490   .     S
C386   C395    1.407   .     A
C387   C394    1.459   .     S
C391   C415    1.454   .     S
C392   C414    1.458   .     S
C393   C413    1.412   .     S
C394   O473    1.292   .     A
C394   O474    1.284   .     A
C395   C405    1.414   .     S
C396   O453    1.221   .     D
C396   H440    1.085   .     S
C397   H418    1.083   .     S
C397   O454    1.221   .     D
C398   O455    1.221   .     D
C398   H419    1.084   .     S
C399   O457    1.220   .     D
C399   H420    1.085   .     S
C400   O458    1.221   .     D
C400   H421    1.081   .     S
C401   O459    1.221   .     D
C401   H422    1.081   .     S
C402   O460    1.221   .     D
C402   H423    1.084   .     S
C403   O461    1.221   .     D
C403   H424    1.085   .     S
C404   H425    1.083   .     S
C404   O462    1.221   .     D
C405   O448    1.276   .     A
C405   O476    1.275   .     A
C406   H426    1.086   .     S
C406   O463    1.221   .     D
C407   H427    1.085   .     S
C407   O464    1.220   .     D
C408   H429    1.085   .     S
C408   O465    1.221   .     D
C409   H430    1.085   .     S
C409   O466    1.221   .     D
C410   O468    1.221   .     D
C410   H431    1.085   .     S
C411   O469    1.221   .     D
C411   H432    1.081   .     S
C412   O470    1.221   .     D
C412   H433    1.081   .     S
C413   O446    1.275   .     A
C413   O447    1.275   .     A
C414   O452    1.285   .     A
C414   O449    1.290   .     A
C415   O450    1.288   .     A
C415   O451    1.285   .     A
C416   H417    1.081   .     S
C416   N322    1.365   1_655 A
C416   C1324   1.413   1_554 S
N441   Zn477   2.003   .     S
N442   Zn478   2.003   .     S
N443   Zn479   2.003   .     S
N444   Zn480   2.003   .     S
O445   Zn477   1.989   .     S
O446   Zn480   1.989   .     S
O447   Zn479   1.990   .     S
O448   Zn240   1.990   1_565 S
O449   Zn240   1.989   1_565 S
O450   Zn479   1.989   .     S
O451   Zn480   1.995   .     S
O452   Zn239   1.995   1_565 S
O456   Zn358   1.989   1_655 S
O467   Zn357   1.990   1_655 S
O471   Zn478   1.990   .     S
O472   Zn358   1.989   1_655 S
O473   Zn477   1.989   .     S
O474   Zn478   1.995   .     S
O475   Zn357   1.995   1_655 S
O476   Zn239   1.989   1_565 S
C481   O565    1.276   .     A
C481   O591    1.275   .     A
C481   C510    1.414   .     S
C482   H548    1.081   .     S
C482   N561    1.365   .     A
C482   C963    1.413   .     S
C483   H554    1.081   .     S
C483   N562    1.366   .     S
C484   H555    1.080   .     S
C484   C1016   1.413   .     S
C484   N681    1.366   .     S
C485   N564    1.365   .     A
C485   H556    1.082   .     S
C486   H557    1.082   .     S
C486   C967    1.414   .     S
C486   N803    1.366   .     S
C487   H558    1.082   .     S
C487   N804    1.366   .     S
C488   N563    1.366   .     A
C488   H559    1.082   .     S
C488   C965    1.414   .     S
C489   C516    1.494   .     S
C489   C500    1.391   .     A
C489   C508    1.415   .     A
C490   C507    1.413   .     A
C490   C517    1.491   .     S
C490   C501    1.393   .     A
C491   C498    1.394   .     A
C491   C518    1.488   .     S
C491   C507    1.419   .     A
C492   C509    1.412   .     S
C492   O587    1.275   .     A
C492   O576    1.275   .     A
C493   C508    1.418   .     A
C493   C499    1.392   .     A
C493   C519    1.486   .     S
C494   C510    1.407   .     A
C494   C505    1.392   .     A
C494   C520    1.490   .     S
C495   C509    1.406   .     A
C495   C521    1.493   .     S
C495   C506    1.392   .     A
C496   C509    1.408   .     A
C496   C522    1.495   .     S
C496   C502    1.396   .     A
C497   C510    1.408   .     A
C497   C504    1.396   .     A
C497   C523    1.494   .     S
C498   C512    1.415   .     A
C498   C524    1.495   .     S
C499   C511    1.417   .     A
C499   C526    1.495   .     S
C500   C527    1.485   .     S
C500   C511    1.418   .     A
C501   C528    1.489   .     S
C501   C512    1.419   .     A
C502   C515    1.408   .     A
C502   C529    1.494   .     S
C503   O595    1.284   .     A
C503   O592    1.288   .     A
C503   C508    1.453   .     S
C504   C530    1.495   .     S
C504   C513    1.408   .     A
C505   C531    1.492   .     S
C505   C513    1.406   .     A
C506   C532    1.490   .     S
C506   C515    1.407   .     A
C507   C514    1.459   .     S
C511   C535    1.454   .     S
C512   C534    1.458   .     S
C513   C533    1.412   .     S
C514   O593    1.292   .     A
C514   O594    1.284   .     A
C515   C525    1.414   .     S
C516   O573    1.221   .     D
C516   H560    1.085   .     S
C517   H538    1.083   .     S
C517   O574    1.221   .     D
C518   O575    1.221   .     D
C518   H539    1.084   .     S
C519   O577    1.220   .     D
C519   H540    1.085   .     S
C520   O578    1.221   .     D
C520   H541    1.081   .     S
C521   O579    1.221   .     D
C521   H542    1.081   .     S
C522   O580    1.221   .     D
C522   H543    1.084   .     S
C523   O581    1.221   .     D
C523   H544    1.085   .     S
C524   H545    1.083   .     S
C524   O582    1.221   .     D
C525   O568    1.276   .     A
C525   O596    1.275   .     A
C526   H546    1.086   .     S
C526   O583    1.221   .     D
C527   H547    1.085   .     S
C527   O584    1.220   .     D
C528   H549    1.085   .     S
C528   O585    1.221   .     D
C529   H550    1.085   .     S
C529   O586    1.221   .     D
C530   O588    1.221   .     D
C530   H551    1.085   .     S
C531   O589    1.221   .     D
C531   H552    1.081   .     S
C532   O590    1.221   .     D
C532   H553    1.081   .     S
C533   O566    1.275   .     A
C533   O567    1.275   .     A
C534   O572    1.285   .     A
C534   O569    1.290   .     A
C535   O570    1.288   .     A
C535   O571    1.285   .     A
C536   H537    1.081   .     S
C536   N682    1.365   .     A
N561   Zn597   2.003   .     S
N561   C604    1.366   1_455 S
N562   C656    1.365   1_455 A
N562   Zn598   2.003   .     S
N563   Zn599   2.003   .     S
N563   C726    1.366   1_545 S
N564   Zn600   2.003   .     S
N564   C727    1.366   1_545 S
O565   Zn597   1.989   .     S
O566   Zn600   1.989   .     S
O567   Zn599   1.990   .     S
O568   Zn840   1.990   .     S
O569   Zn840   1.989   .     S
O570   Zn599   1.989   .     S
O571   Zn600   1.995   .     S
O572   Zn839   1.995   .     S
O576   Zn718   1.989   .     S
O587   Zn717   1.990   .     S
O591   Zn598   1.990   .     S
O592   Zn718   1.989   .     S
O593   Zn597   1.989   .     S
O594   Zn598   1.995   .     S
O595   Zn717   1.995   .     S
O596   Zn839   1.989   .     S
Zn597  O715    1.995   1_455 S
Zn597  O707    1.990   1_455 S
Zn598  O712    1.989   1_455 S
Zn598  O696    1.989   1_455 S
Zn599  O812    1.995   1_545 S
Zn599  O836    1.989   1_545 S
Zn600  O809    1.989   1_545 S
Zn600  O808    1.990   1_545 S
C601   O685    1.276   .     A
C601   O711    1.275   .     A
C601   C630    1.414   .     S
C602   H668    1.081   .     S
C602   N681    1.365   .     A
C602   C1083   1.413   .     S
C603   H674    1.081   .     S
C603   N682    1.366   .     S
C604   H675    1.080   .     S
C604   C1136   1.413   .     S
C604   N561    1.366   1_655 S
C605   N684    1.365   .     A
C605   H676    1.082   .     S
C606   H677    1.082   .     S
C606   C1087   1.414   .     S
C606   N923    1.366   .     S
C607   H678    1.082   .     S
C607   N924    1.366   .     S
C608   N683    1.366   .     A
C608   H679    1.082   .     S
C608   C1085   1.414   .     S
C609   C636    1.494   .     S
C609   C620    1.391   .     A
C609   C628    1.415   .     A
C610   C627    1.413   .     A
C610   C637    1.491   .     S
C610   C621    1.393   .     A
C611   C618    1.394   .     A
C611   C638    1.488   .     S
C611   C627    1.419   .     A
C612   C629    1.412   .     S
C612   O707    1.275   .     A
C612   O696    1.275   .     A
C613   C628    1.418   .     A
C613   C619    1.392   .     A
C613   C639    1.486   .     S
C614   C630    1.407   .     A
C614   C625    1.392   .     A
C614   C640    1.490   .     S
C615   C629    1.406   .     A
C615   C641    1.493   .     S
C615   C626    1.392   .     A
C616   C629    1.408   .     A
C616   C642    1.495   .     S
C616   C622    1.396   .     A
C617   C630    1.408   .     A
C617   C624    1.396   .     A
C617   C643    1.494   .     S
C618   C632    1.415   .     A
C618   C644    1.495   .     S
C619   C631    1.417   .     A
C619   C646    1.495   .     S
C620   C647    1.485   .     S
C620   C631    1.418   .     A
C621   C648    1.489   .     S
C621   C632    1.419   .     A
C622   C635    1.408   .     A
C622   C649    1.494   .     S
C623   O715    1.284   .     A
C623   O712    1.288   .     A
C623   C628    1.453   .     S
C624   C650    1.495   .     S
C624   C633    1.408   .     A
C625   C651    1.492   .     S
C625   C633    1.406   .     A
C626   C652    1.490   .     S
C626   C635    1.407   .     A
C627   C634    1.459   .     S
C631   C655    1.454   .     S
C632   C654    1.458   .     S
C633   C653    1.412   .     S
C634   O713    1.292   .     A
C634   O714    1.284   .     A
C635   C645    1.414   .     S
C636   O693    1.221   .     D
C636   H680    1.085   .     S
C637   H658    1.083   .     S
C637   O694    1.221   .     D
C638   O695    1.221   .     D
C638   H659    1.084   .     S
C639   O697    1.220   .     D
C639   H660    1.085   .     S
C640   O698    1.221   .     D
C640   H661    1.081   .     S
C641   O699    1.221   .     D
C641   H662    1.081   .     S
C642   O700    1.221   .     D
C642   H663    1.084   .     S
C643   O701    1.221   .     D
C643   H664    1.085   .     S
C644   H665    1.083   .     S
C644   O702    1.221   .     D
C645   O688    1.276   .     A
C645   O716    1.275   .     A
C646   H666    1.086   .     S
C646   O703    1.221   .     D
C647   H667    1.085   .     S
C647   O704    1.220   .     D
C648   H669    1.085   .     S
C648   O705    1.221   .     D
C649   H670    1.085   .     S
C649   O706    1.221   .     D
C650   O708    1.221   .     D
C650   H671    1.085   .     S
C651   O709    1.221   .     D
C651   H672    1.081   .     S
C652   O710    1.221   .     D
C652   H673    1.081   .     S
C653   O686    1.275   .     A
C653   O687    1.275   .     A
C654   O692    1.285   .     A
C654   O689    1.290   .     A
C655   O690    1.288   .     A
C655   O691    1.285   .     A
C656   H657    1.081   .     S
C656   N562    1.365   1_655 A
N681   Zn717   2.003   .     S
N682   Zn718   2.003   .     S
N683   Zn719   2.003   .     S
N683   C846    1.366   1_545 S
N684   Zn720   2.003   .     S
N684   C847    1.366   1_545 S
O685   Zn717   1.989   .     S
O686   Zn720   1.989   .     S
O687   Zn719   1.990   .     S
O688   Zn960   1.990   .     S
O689   Zn960   1.989   .     S
O690   Zn719   1.989   .     S
O691   Zn720   1.995   .     S
O692   Zn959   1.995   .     S
O696   Zn598   1.989   1_655 S
O707   Zn597   1.990   1_655 S
O711   Zn718   1.990   .     S
O712   Zn598   1.989   1_655 S
O713   Zn717   1.989   .     S
O714   Zn718   1.995   .     S
O715   Zn597   1.995   1_655 S
O716   Zn959   1.989   .     S
Zn719  O932    1.995   1_545 S
Zn719  O956    1.989   1_545 S
Zn720  O929    1.989   1_545 S
Zn720  O928    1.990   1_545 S
C721   O805    1.276   .     A
C721   O831    1.275   .     A
C721   C750    1.414   .     S
C722   H788    1.081   .     S
C722   N801    1.365   .     A
C722   C1203   1.413   .     S
C723   H794    1.081   .     S
C723   N802    1.366   .     S
C724   H795    1.080   .     S
C724   C1256   1.413   .     S
C724   N921    1.366   .     S
C725   N804    1.365   .     A
C725   H796    1.082   .     S
C726   H797    1.082   .     S
C726   C1207   1.414   .     S
C726   N563    1.366   1_565 S
C727   H798    1.082   .     S
C727   N564    1.366   1_565 S
C728   N803    1.366   .     A
C728   H799    1.082   .     S
C728   C1205   1.414   .     S
C729   C756    1.494   .     S
C729   C740    1.391   .     A
C729   C748    1.415   .     A
C730   C747    1.413   .     A
C730   C757    1.491   .     S
C730   C741    1.393   .     A
C731   C738    1.394   .     A
C731   C758    1.488   .     S
C731   C747    1.419   .     A
C732   C749    1.412   .     S
C732   O827    1.275   .     A
C732   O816    1.275   .     A
C733   C748    1.418   .     A
C733   C739    1.392   .     A
C733   C759    1.486   .     S
C734   C750    1.407   .     A
C734   C745    1.392   .     A
C734   C760    1.490   .     S
C735   C749    1.406   .     A
C735   C761    1.493   .     S
C735   C746    1.392   .     A
C736   C749    1.408   .     A
C736   C762    1.495   .     S
C736   C742    1.396   .     A
C737   C750    1.408   .     A
C737   C744    1.396   .     A
C737   C763    1.494   .     S
C738   C752    1.415   .     A
C738   C764    1.495   .     S
C739   C751    1.417   .     A
C739   C766    1.495   .     S
C740   C767    1.485   .     S
C740   C751    1.418   .     A
C741   C768    1.489   .     S
C741   C752    1.419   .     A
C742   C755    1.408   .     A
C742   C769    1.494   .     S
C743   O835    1.284   .     A
C743   O832    1.288   .     A
C743   C748    1.453   .     S
C744   C770    1.495   .     S
C744   C753    1.408   .     A
C745   C771    1.492   .     S
C745   C753    1.406   .     A
C746   C772    1.490   .     S
C746   C755    1.407   .     A
C747   C754    1.459   .     S
C751   C775    1.454   .     S
C752   C774    1.458   .     S
C753   C773    1.412   .     S
C754   O833    1.292   .     A
C754   O834    1.284   .     A
C755   C765    1.414   .     S
C756   O813    1.221   .     D
C756   H800    1.085   .     S
C757   H778    1.083   .     S
C757   O814    1.221   .     D
C758   O815    1.221   .     D
C758   H779    1.084   .     S
C759   O817    1.220   .     D
C759   H780    1.085   .     S
C760   O818    1.221   .     D
C760   H781    1.081   .     S
C761   O819    1.221   .     D
C761   H782    1.081   .     S
C762   O820    1.221   .     D
C762   H783    1.084   .     S
C763   O821    1.221   .     D
C763   H784    1.085   .     S
C764   H785    1.083   .     S
C764   O822    1.221   .     D
C765   O808    1.276   .     A
C765   O836    1.275   .     A
C766   H786    1.086   .     S
C766   O823    1.221   .     D
C767   H787    1.085   .     S
C767   O824    1.220   .     D
C768   H789    1.085   .     S
C768   O825    1.221   .     D
C769   H790    1.085   .     S
C769   O826    1.221   .     D
C770   O828    1.221   .     D
C770   H791    1.085   .     S
C771   O829    1.221   .     D
C771   H792    1.081   .     S
C772   O830    1.221   .     D
C772   H793    1.081   .     S
C773   O806    1.275   .     A
C773   O807    1.275   .     A
C774   O812    1.285   .     A
C774   O809    1.290   .     A
C775   O810    1.288   .     A
C775   O811    1.285   .     A
C776   H777    1.081   .     S
C776   N922    1.365   .     A
N801   Zn837   2.003   .     S
N801   C844    1.366   1_455 S
N802   C896    1.365   1_455 A
N802   Zn838   2.003   .     S
N803   Zn839   2.003   .     S
N804   Zn840   2.003   .     S
O805   Zn837   1.989   .     S
O806   Zn840   1.989   .     S
O807   Zn839   1.990   .     S
O808   Zn600   1.990   1_565 S
O809   Zn600   1.989   1_565 S
O810   Zn839   1.989   .     S
O811   Zn840   1.995   .     S
O812   Zn599   1.995   1_565 S
O816   Zn958   1.989   .     S
O827   Zn957   1.990   .     S
O831   Zn838   1.990   .     S
O832   Zn958   1.989   .     S
O833   Zn837   1.989   .     S
O834   Zn838   1.995   .     S
O835   Zn957   1.995   .     S
O836   Zn599   1.989   1_565 S
Zn837  O955    1.995   1_455 S
Zn837  O947    1.990   1_455 S
Zn838  O952    1.989   1_455 S
Zn838  O936    1.989   1_455 S
C841   O925    1.276   .     A
C841   O951    1.275   .     A
C841   C870    1.414   .     S
C842   H908    1.081   .     S
C842   N921    1.365   .     A
C842   C1323   1.413   .     S
C843   H914    1.081   .     S
C843   N922    1.366   .     S
C844   H915    1.080   .     S
C844   C1376   1.413   .     S
C844   N801    1.366   1_655 S
C845   N924    1.365   .     A
C845   H916    1.082   .     S
C846   H917    1.082   .     S
C846   C1327   1.414   .     S
C846   N683    1.366   1_565 S
C847   H918    1.082   .     S
C847   N684    1.366   1_565 S
C848   N923    1.366   .     A
C848   H919    1.082   .     S
C848   C1325   1.414   .     S
C849   C876    1.494   .     S
C849   C860    1.391   .     A
C849   C868    1.415   .     A
C850   C867    1.413   .     A
C850   C877    1.491   .     S
C850   C861    1.393   .     A
C851   C858    1.394   .     A
C851   C878    1.488   .     S
C851   C867    1.419   .     A
C852   C869    1.412   .     S
C852   O947    1.275   .     A
C852   O936    1.275   .     A
C853   C868    1.418   .     A
C853   C859    1.392   .     A
C853   C879    1.486   .     S
C854   C870    1.407   .     A
C854   C865    1.392   .     A
C854   C880    1.490   .     S
C855   C869    1.406   .     A
C855   C881    1.493   .     S
C855   C866    1.392   .     A
C856   C869    1.408   .     A
C856   C882    1.495   .     S
C856   C862    1.396   .     A
C857   C870    1.408   .     A
C857   C864    1.396   .     A
C857   C883    1.494   .     S
C858   C872    1.415   .     A
C858   C884    1.495   .     S
C859   C871    1.417   .     A
C859   C886    1.495   .     S
C860   C887    1.485   .     S
C860   C871    1.418   .     A
C861   C888    1.489   .     S
C861   C872    1.419   .     A
C862   C875    1.408   .     A
C862   C889    1.494   .     S
C863   O955    1.284   .     A
C863   O952    1.288   .     A
C863   C868    1.453   .     S
C864   C890    1.495   .     S
C864   C873    1.408   .     A
C865   C891    1.492   .     S
C865   C873    1.406   .     A
C866   C892    1.490   .     S
C866   C875    1.407   .     A
C867   C874    1.459   .     S
C871   C895    1.454   .     S
C872   C894    1.458   .     S
C873   C893    1.412   .     S
C874   O953    1.292   .     A
C874   O954    1.284   .     A
C875   C885    1.414   .     S
C876   O933    1.221   .     D
C876   H920    1.085   .     S
C877   H898    1.083   .     S
C877   O934    1.221   .     D
C878   O935    1.221   .     D
C878   H899    1.084   .     S
C879   O937    1.220   .     D
C879   H900    1.085   .     S
C880   O938    1.221   .     D
C880   H901    1.081   .     S
C881   O939    1.221   .     D
C881   H902    1.081   .     S
C882   O940    1.221   .     D
C882   H903    1.084   .     S
C883   O941    1.221   .     D
C883   H904    1.085   .     S
C884   H905    1.083   .     S
C884   O942    1.221   .     D
C885   O928    1.276   .     A
C885   O956    1.275   .     A
C886   H906    1.086   .     S
C886   O943    1.221   .     D
C887   H907    1.085   .     S
C887   O944    1.220   .     D
C888   H909    1.085   .     S
C888   O945    1.221   .     D
C889   H910    1.085   .     S
C889   O946    1.221   .     D
C890   O948    1.221   .     D
C890   H911    1.085   .     S
C891   O949    1.221   .     D
C891   H912    1.081   .     S
C892   O950    1.221   .     D
C892   H913    1.081   .     S
C893   O926    1.275   .     A
C893   O927    1.275   .     A
C894   O932    1.285   .     A
C894   O929    1.290   .     A
C895   O930    1.288   .     A
C895   O931    1.285   .     A
C896   H897    1.081   .     S
C896   N802    1.365   1_655 A
N921   Zn957   2.003   .     S
N922   Zn958   2.003   .     S
N923   Zn959   2.003   .     S
N924   Zn960   2.003   .     S
O925   Zn957   1.989   .     S
O926   Zn960   1.989   .     S
O927   Zn959   1.990   .     S
O928   Zn720   1.990   1_565 S
O929   Zn720   1.989   1_565 S
O930   Zn959   1.989   .     S
O931   Zn960   1.995   .     S
O932   Zn719   1.995   1_565 S
O936   Zn838   1.989   1_655 S
O947   Zn837   1.990   1_655 S
O951   Zn958   1.990   .     S
O952   Zn838   1.989   1_655 S
O953   Zn957   1.989   .     S
O954   Zn958   1.995   .     S
O955   Zn837   1.995   1_655 S
O956   Zn719   1.989   1_565 S
C961   O1045   1.276   .     A
C961   O1071   1.275   .     A
C961   C990    1.414   .     S
C962   H1028   1.081   .     S
C962   N1041   1.365   .     A
C962   C3      1.413   1_556 S
C963   H1034   1.081   .     S
C963   N1042   1.366   .     S
C964   H1035   1.080   .     S
C964   C56     1.413   1_556 S
C964   N1161   1.366   .     S
C965   N1044   1.365   .     A
C965   H1036   1.082   .     S
C966   H1037   1.082   .     S
C966   C7      1.414   1_556 S
C966   N1283   1.366   .     S
C967   H1038   1.082   .     S
C967   N1284   1.366   .     S
C968   N1043   1.366   .     A
C968   H1039   1.082   .     S
C968   C5      1.414   1_556 S
C969   C996    1.494   .     S
C969   C980    1.391   .     A
C969   C988    1.415   .     A
C970   C987    1.413   .     A
C970   C997    1.491   .     S
C970   C981    1.393   .     A
C971   C978    1.394   .     A
C971   C998    1.488   .     S
C971   C987    1.419   .     A
C972   C989    1.412   .     S
C972   O1067   1.275   .     A
C972   O1056   1.275   .     A
C973   C988    1.418   .     A
C973   C979    1.392   .     A
C973   C999    1.486   .     S
C974   C990    1.407   .     A
C974   C985    1.392   .     A
C974   C1000   1.490   .     S
C975   C989    1.406   .     A
C975   C1001   1.493   .     S
C975   C986    1.392   .     A
C976   C989    1.408   .     A
C976   C1002   1.495   .     S
C976   C982    1.396   .     A
C977   C990    1.408   .     A
C977   C984    1.396   .     A
C977   C1003   1.494   .     S
C978   C992    1.415   .     A
C978   C1004   1.495   .     S
C979   C991    1.417   .     A
C979   C1006   1.495   .     S
C980   C1007   1.485   .     S
C980   C991    1.418   .     A
C981   C1008   1.489   .     S
C981   C992    1.419   .     A
C982   C995    1.408   .     A
C982   C1009   1.494   .     S
C983   O1075   1.284   .     A
C983   O1072   1.288   .     A
C983   C988    1.453   .     S
C984   C1010   1.495   .     S
C984   C993    1.408   .     A
C985   C1011   1.492   .     S
C985   C993    1.406   .     A
C986   C1012   1.490   .     S
C986   C995    1.407   .     A
C987   C994    1.459   .     S
C991   C1015   1.454   .     S
C992   C1014   1.458   .     S
C993   C1013   1.412   .     S
C994   O1073   1.292   .     A
C994   O1074   1.284   .     A
C995   C1005   1.414   .     S
C996   O1053   1.221   .     D
C996   H1040   1.085   .     S
C997   H1018   1.083   .     S
C997   O1054   1.221   .     D
C998   O1055   1.221   .     D
C998   H1019   1.084   .     S
C999   O1057   1.220   .     D
C999   H1020   1.085   .     S
C1000  O1058   1.221   .     D
C1000  H1021   1.081   .     S
C1001  O1059   1.221   .     D
C1001  H1022   1.081   .     S
C1002  O1060   1.221   .     D
C1002  H1023   1.084   .     S
C1003  O1061   1.221   .     D
C1003  H1024   1.085   .     S
C1004  H1025   1.083   .     S
C1004  O1062   1.221   .     D
C1005  O1048   1.276   .     A
C1005  O1076   1.275   .     A
C1006  H1026   1.086   .     S
C1006  O1063   1.221   .     D
C1007  H1027   1.085   .     S
C1007  O1064   1.220   .     D
C1008  H1029   1.085   .     S
C1008  O1065   1.221   .     D
C1009  H1030   1.085   .     S
C1009  O1066   1.221   .     D
C1010  O1068   1.221   .     D
C1010  H1031   1.085   .     S
C1011  O1069   1.221   .     D
C1011  H1032   1.081   .     S
C1012  O1070   1.221   .     D
C1012  H1033   1.081   .     S
C1013  O1046   1.275   .     A
C1013  O1047   1.275   .     A
C1014  O1052   1.285   .     A
C1014  O1049   1.290   .     A
C1015  O1050   1.288   .     A
C1015  O1051   1.285   .     A
C1016  H1017   1.081   .     S
C1016  N1162   1.365   .     A
N1041  Zn1077  2.003   .     S
N1041  C1084   1.366   1_455 S
N1042  C1136   1.365   1_455 A
N1042  Zn1078  2.003   .     S
N1043  Zn1079  2.003   .     S
N1043  C1206   1.366   1_545 S
N1044  Zn1080  2.003   .     S
N1044  C1207   1.366   1_545 S
O1045  Zn1077  1.989   .     S
O1046  Zn1080  1.989   .     S
O1047  Zn1079  1.990   .     S
O1048  Zn1320  1.990   .     S
O1049  Zn1320  1.989   .     S
O1050  Zn1079  1.989   .     S
O1051  Zn1080  1.995   .     S
O1052  Zn1319  1.995   .     S
O1056  Zn1198  1.989   .     S
O1067  Zn1197  1.990   .     S
O1071  Zn1078  1.990   .     S
O1072  Zn1198  1.989   .     S
O1073  Zn1077  1.989   .     S
O1074  Zn1078  1.995   .     S
O1075  Zn1197  1.995   .     S
O1076  Zn1319  1.989   .     S
Zn1077 O1195   1.995   1_455 S
Zn1077 O1187   1.990   1_455 S
Zn1078 O1192   1.989   1_455 S
Zn1078 O1176   1.989   1_455 S
Zn1079 O1292   1.995   1_545 S
Zn1079 O1316   1.989   1_545 S
Zn1080 O1289   1.989   1_545 S
Zn1080 O1288   1.990   1_545 S
C1081  O1165   1.276   .     A
C1081  O1191   1.275   .     A
C1081  C1110   1.414   .     S
C1082  H1148   1.081   .     S
C1082  N1161   1.365   .     A
C1082  C123    1.413   1_556 S
C1083  H1154   1.081   .     S
C1083  N1162   1.366   .     S
C1084  H1155   1.080   .     S
C1084  C176    1.413   1_556 S
C1084  N1041   1.366   1_655 S
C1085  N1164   1.365   .     A
C1085  H1156   1.082   .     S
C1086  H1157   1.082   .     S
C1086  C127    1.414   1_556 S
C1086  N1403   1.366   .     S
C1087  H1158   1.082   .     S
C1087  N1404   1.366   .     S
C1088  N1163   1.366   .     A
C1088  H1159   1.082   .     S
C1088  C125    1.414   1_556 S
C1089  C1116   1.494   .     S
C1089  C1100   1.391   .     A
C1089  C1108   1.415   .     A
C1090  C1107   1.413   .     A
C1090  C1117   1.491   .     S
C1090  C1101   1.393   .     A
C1091  C1098   1.394   .     A
C1091  C1118   1.488   .     S
C1091  C1107   1.419   .     A
C1092  C1109   1.412   .     S
C1092  O1187   1.275   .     A
C1092  O1176   1.275   .     A
C1093  C1108   1.418   .     A
C1093  C1099   1.392   .     A
C1093  C1119   1.486   .     S
C1094  C1110   1.407   .     A
C1094  C1105   1.392   .     A
C1094  C1120   1.490   .     S
C1095  C1109   1.406   .     A
C1095  C1121   1.493   .     S
C1095  C1106   1.392   .     A
C1096  C1109   1.408   .     A
C1096  C1122   1.495   .     S
C1096  C1102   1.396   .     A
C1097  C1110   1.408   .     A
C1097  C1104   1.396   .     A
C1097  C1123   1.494   .     S
C1098  C1112   1.415   .     A
C1098  C1124   1.495   .     S
C1099  C1111   1.417   .     A
C1099  C1126   1.495   .     S
C1100  C1127   1.485   .     S
C1100  C1111   1.418   .     A
C1101  C1128   1.489   .     S
C1101  C1112   1.419   .     A
C1102  C1115   1.408   .     A
C1102  C1129   1.494   .     S
C1103  O1195   1.284   .     A
C1103  O1192   1.288   .     A
C1103  C1108   1.453   .     S
C1104  C1130   1.495   .     S
C1104  C1113   1.408   .     A
C1105  C1131   1.492   .     S
C1105  C1113   1.406   .     A
C1106  C1132   1.490   .     S
C1106  C1115   1.407   .     A
C1107  C1114   1.459   .     S
C1111  C1135   1.454   .     S
C1112  C1134   1.458   .     S
C1113  C1133   1.412   .     S
C1114  O1193   1.292   .     A
C1114  O1194   1.284   .     A
C1115  C1125   1.414   .     S
C1116  O1173   1.221   .     D
C1116  H1160   1.085   .     S
C1117  H1138   1.083   .     S
C1117  O1174   1.221   .     D
C1118  O1175   1.221   .     D
C1118  H1139   1.084   .     S
C1119  O1177   1.220   .     D
C1119  H1140   1.085   .     S
C1120  O1178   1.221   .     D
C1120  H1141   1.081   .     S
C1121  O1179   1.221   .     D
C1121  H1142   1.081   .     S
C1122  O1180   1.221   .     D
C1122  H1143   1.084   .     S
C1123  O1181   1.221   .     D
C1123  H1144   1.085   .     S
C1124  H1145   1.083   .     S
C1124  O1182   1.221   .     D
C1125  O1168   1.276   .     A
C1125  O1196   1.275   .     A
C1126  H1146   1.086   .     S
C1126  O1183   1.221   .     D
C1127  H1147   1.085   .     S
C1127  O1184   1.220   .     D
C1128  H1149   1.085   .     S
C1128  O1185   1.221   .     D
C1129  H1150   1.085   .     S
C1129  O1186   1.221   .     D
C1130  O1188   1.221   .     D
C1130  H1151   1.085   .     S
C1131  O1189   1.221   .     D
C1131  H1152   1.081   .     S
C1132  O1190   1.221   .     D
C1132  H1153   1.081   .     S
C1133  O1166   1.275   .     A
C1133  O1167   1.275   .     A
C1134  O1172   1.285   .     A
C1134  O1169   1.290   .     A
C1135  O1170   1.288   .     A
C1135  O1171   1.285   .     A
C1136  H1137   1.081   .     S
C1136  N1042   1.365   1_655 A
N1161  Zn1197  2.003   .     S
N1162  Zn1198  2.003   .     S
N1163  Zn1199  2.003   .     S
N1163  C1326   1.366   1_545 S
N1164  Zn1200  2.003   .     S
N1164  C1327   1.366   1_545 S
O1165  Zn1197  1.989   .     S
O1166  Zn1200  1.989   .     S
O1167  Zn1199  1.990   .     S
O1168  Zn1440  1.990   .     S
O1169  Zn1440  1.989   .     S
O1170  Zn1199  1.989   .     S
O1171  Zn1200  1.995   .     S
O1172  Zn1439  1.995   .     S
O1176  Zn1078  1.989   1_655 S
O1187  Zn1077  1.990   1_655 S
O1191  Zn1198  1.990   .     S
O1192  Zn1078  1.989   1_655 S
O1193  Zn1197  1.989   .     S
O1194  Zn1198  1.995   .     S
O1195  Zn1077  1.995   1_655 S
O1196  Zn1439  1.989   .     S
Zn1199 O1412   1.995   1_545 S
Zn1199 O1436   1.989   1_545 S
Zn1200 O1409   1.989   1_545 S
Zn1200 O1408   1.990   1_545 S
C1201  O1285   1.276   .     A
C1201  O1311   1.275   .     A
C1201  C1230   1.414   .     S
C1202  H1268   1.081   .     S
C1202  N1281   1.365   .     A
C1202  C243    1.413   1_556 S
C1203  H1274   1.081   .     S
C1203  N1282   1.366   .     S
C1204  H1275   1.080   .     S
C1204  C296    1.413   1_556 S
C1204  N1401   1.366   .     S
C1205  N1284   1.365   .     A
C1205  H1276   1.082   .     S
C1206  H1277   1.082   .     S
C1206  C247    1.414   1_556 S
C1206  N1043   1.366   1_565 S
C1207  H1278   1.082   .     S
C1207  N1044   1.366   1_565 S
C1208  N1283   1.366   .     A
C1208  H1279   1.082   .     S
C1208  C245    1.414   1_556 S
C1209  C1236   1.494   .     S
C1209  C1220   1.391   .     A
C1209  C1228   1.415   .     A
C1210  C1227   1.413   .     A
C1210  C1237   1.491   .     S
C1210  C1221   1.393   .     A
C1211  C1218   1.394   .     A
C1211  C1238   1.488   .     S
C1211  C1227   1.419   .     A
C1212  C1229   1.412   .     S
C1212  O1307   1.275   .     A
C1212  O1296   1.275   .     A
C1213  C1228   1.418   .     A
C1213  C1219   1.392   .     A
C1213  C1239   1.486   .     S
C1214  C1230   1.407   .     A
C1214  C1225   1.392   .     A
C1214  C1240   1.490   .     S
C1215  C1229   1.406   .     A
C1215  C1241   1.493   .     S
C1215  C1226   1.392   .     A
C1216  C1229   1.408   .     A
C1216  C1242   1.495   .     S
C1216  C1222   1.396   .     A
C1217  C1230   1.408   .     A
C1217  C1224   1.396   .     A
C1217  C1243   1.494   .     S
C1218  C1232   1.415   .     A
C1218  C1244   1.495   .     S
C1219  C1231   1.417   .     A
C1219  C1246   1.495   .     S
C1220  C1247   1.485   .     S
C1220  C1231   1.418   .     A
C1221  C1248   1.489   .     S
C1221  C1232   1.419   .     A
C1222  C1235   1.408   .     A
C1222  C1249   1.494   .     S
C1223  O1315   1.284   .     A
C1223  O1312   1.288   .     A
C1223  C1228   1.453   .     S
C1224  C1250   1.495   .     S
C1224  C1233   1.408   .     A
C1225  C1251   1.492   .     S
C1225  C1233   1.406   .     A
C1226  C1252   1.490   .     S
C1226  C1235   1.407   .     A
C1227  C1234   1.459   .     S
C1231  C1255   1.454   .     S
C1232  C1254   1.458   .     S
C1233  C1253   1.412   .     S
C1234  O1313   1.292   .     A
C1234  O1314   1.284   .     A
C1235  C1245   1.414   .     S
C1236  O1293   1.221   .     D
C1236  H1280   1.085   .     S
C1237  H1258   1.083   .     S
C1237  O1294   1.221   .     D
C1238  O1295   1.221   .     D
C1238  H1259   1.084   .     S
C1239  O1297   1.220   .     D
C1239  H1260   1.085   .     S
C1240  O1298   1.221   .     D
C1240  H1261   1.081   .     S
C1241  O1299   1.221   .     D
C1241  H1262   1.081   .     S
C1242  O1300   1.221   .     D
C1242  H1263   1.084   .     S
C1243  O1301   1.221   .     D
C1243  H1264   1.085   .     S
C1244  H1265   1.083   .     S
C1244  O1302   1.221   .     D
C1245  O1288   1.276   .     A
C1245  O1316   1.275   .     A
C1246  H1266   1.086   .     S
C1246  O1303   1.221   .     D
C1247  H1267   1.085   .     S
C1247  O1304   1.220   .     D
C1248  H1269   1.085   .     S
C1248  O1305   1.221   .     D
C1249  H1270   1.085   .     S
C1249  O1306   1.221   .     D
C1250  O1308   1.221   .     D
C1250  H1271   1.085   .     S
C1251  O1309   1.221   .     D
C1251  H1272   1.081   .     S
C1252  O1310   1.221   .     D
C1252  H1273   1.081   .     S
C1253  O1286   1.275   .     A
C1253  O1287   1.275   .     A
C1254  O1292   1.285   .     A
C1254  O1289   1.290   .     A
C1255  O1290   1.288   .     A
C1255  O1291   1.285   .     A
C1256  H1257   1.081   .     S
C1256  N1402   1.365   .     A
N1281  Zn1317  2.003   .     S
N1281  C1324   1.366   1_455 S
N1282  C1376   1.365   1_455 A
N1282  Zn1318  2.003   .     S
N1283  Zn1319  2.003   .     S
N1284  Zn1320  2.003   .     S
O1285  Zn1317  1.989   .     S
O1286  Zn1320  1.989   .     S
O1287  Zn1319  1.990   .     S
O1288  Zn1080  1.990   1_565 S
O1289  Zn1080  1.989   1_565 S
O1290  Zn1319  1.989   .     S
O1291  Zn1320  1.995   .     S
O1292  Zn1079  1.995   1_565 S
O1296  Zn1438  1.989   .     S
O1307  Zn1437  1.990   .     S
O1311  Zn1318  1.990   .     S
O1312  Zn1438  1.989   .     S
O1313  Zn1317  1.989   .     S
O1314  Zn1318  1.995   .     S
O1315  Zn1437  1.995   .     S
O1316  Zn1079  1.989   1_565 S
Zn1317 O1435   1.995   1_455 S
Zn1317 O1427   1.990   1_455 S
Zn1318 O1432   1.989   1_455 S
Zn1318 O1416   1.989   1_455 S
C1321  O1405   1.276   .     A
C1321  O1431   1.275   .     A
C1321  C1350   1.414   .     S
C1322  H1388   1.081   .     S
C1322  N1401   1.365   .     A
C1322  C363    1.413   1_556 S
C1323  H1394   1.081   .     S
C1323  N1402   1.366   .     S
C1324  H1395   1.080   .     S
C1324  C416    1.413   1_556 S
C1324  N1281   1.366   1_655 S
C1325  N1404   1.365   .     A
C1325  H1396   1.082   .     S
C1326  H1397   1.082   .     S
C1326  C367    1.414   1_556 S
C1326  N1163   1.366   1_565 S
C1327  H1398   1.082   .     S
C1327  N1164   1.366   1_565 S
C1328  N1403   1.366   .     A
C1328  H1399   1.082   .     S
C1328  C365    1.414   1_556 S
C1329  C1356   1.494   .     S
C1329  C1340   1.391   .     A
C1329  C1348   1.415   .     A
C1330  C1347   1.413   .     A
C1330  C1357   1.491   .     S
C1330  C1341   1.393   .     A
C1331  C1338   1.394   .     A
C1331  C1358   1.488   .     S
C1331  C1347   1.419   .     A
C1332  C1349   1.412   .     S
C1332  O1427   1.275   .     A
C1332  O1416   1.275   .     A
C1333  C1348   1.418   .     A
C1333  C1339   1.392   .     A
C1333  C1359   1.486   .     S
C1334  C1350   1.407   .     A
C1334  C1345   1.392   .     A
C1334  C1360   1.490   .     S
C1335  C1349   1.406   .     A
C1335  C1361   1.493   .     S
C1335  C1346   1.392   .     A
C1336  C1349   1.408   .     A
C1336  C1362   1.495   .     S
C1336  C1342   1.396   .     A
C1337  C1350   1.408   .     A
C1337  C1344   1.396   .     A
C1337  C1363   1.494   .     S
C1338  C1352   1.415   .     A
C1338  C1364   1.495   .     S
C1339  C1351   1.417   .     A
C1339  C1366   1.495   .     S
C1340  C1367   1.485   .     S
C1340  C1351   1.418   .     A
C1341  C1368   1.489   .     S
C1341  C1352   1.419   .     A
C1342  C1355   1.408   .     A
C1342  C1369   1.494   .     S
C1343  O1435   1.284   .     A
C1343  O1432   1.288   .     A
C1343  C1348   1.453   .     S
C1344  C1370   1.495   .     S
C1344  C1353   1.408   .     A
C1345  C1371   1.492   .     S
C1345  C1353   1.406   .     A
C1346  C1372   1.490   .     S
C1346  C1355   1.407   .     A
C1347  C1354   1.459   .     S
C1351  C1375   1.454   .     S
C1352  C1374   1.458   .     S
C1353  C1373   1.412   .     S
C1354  O1433   1.292   .     A
C1354  O1434   1.284   .     A
C1355  C1365   1.414   .     S
C1356  O1413   1.221   .     D
C1356  H1400   1.085   .     S
C1357  H1378   1.083   .     S
C1357  O1414   1.221   .     D
C1358  O1415   1.221   .     D
C1358  H1379   1.084   .     S
C1359  O1417   1.220   .     D
C1359  H1380   1.085   .     S
C1360  O1418   1.221   .     D
C1360  H1381   1.081   .     S
C1361  O1419   1.221   .     D
C1361  H1382   1.081   .     S
C1362  O1420   1.221   .     D
C1362  H1383   1.084   .     S
C1363  O1421   1.221   .     D
C1363  H1384   1.085   .     S
C1364  H1385   1.083   .     S
C1364  O1422   1.221   .     D
C1365  O1408   1.276   .     A
C1365  O1436   1.275   .     A
C1366  H1386   1.086   .     S
C1366  O1423   1.221   .     D
C1367  H1387   1.085   .     S
C1367  O1424   1.220   .     D
C1368  H1389   1.085   .     S
C1368  O1425   1.221   .     D
C1369  H1390   1.085   .     S
C1369  O1426   1.221   .     D
C1370  O1428   1.221   .     D
C1370  H1391   1.085   .     S
C1371  O1429   1.221   .     D
C1371  H1392   1.081   .     S
C1372  O1430   1.221   .     D
C1372  H1393   1.081   .     S
C1373  O1406   1.275   .     A
C1373  O1407   1.275   .     A
C1374  O1412   1.285   .     A
C1374  O1409   1.290   .     A
C1375  O1410   1.288   .     A
C1375  O1411   1.285   .     A
C1376  H1377   1.081   .     S
C1376  N1282   1.365   1_655 A
N1401  Zn1437  2.003   .     S
N1402  Zn1438  2.003   .     S
N1403  Zn1439  2.003   .     S
N1404  Zn1440  2.003   .     S
O1405  Zn1437  1.989   .     S
O1406  Zn1440  1.989   .     S
O1407  Zn1439  1.990   .     S
O1408  Zn1200  1.990   1_565 S
O1409  Zn1200  1.989   1_565 S
O1410  Zn1439  1.989   .     S
O1411  Zn1440  1.995   .     S
O1412  Zn1199  1.995   1_565 S
O1416  Zn1318  1.989   1_655 S
O1427  Zn1317  1.990   1_655 S
O1431  Zn1438  1.990   .     S
O1432  Zn1318  1.989   1_655 S
O1433  Zn1437  1.989   .     S
O1434  Zn1438  1.995   .     S
O1435  Zn1317  1.995   1_655 S
O1436  Zn1199  1.989   1_565 S
