data_str_m2_o1_o17_pcu_sym.66
_audit_creation_date              2020-01-03
_audit_creation_method            'Materials Studio'
_symmetry_space_group_name_H-M    'P1'
_symmetry_Int_Tables_number       1
_symmetry_cell_setting            triclinic
loop_
_symmetry_equiv_pos_as_xyz
  x,y,z
_cell_length_a                    32.4297
_cell_length_b                    28.9340
_cell_length_c                    30.0756
_cell_angle_alpha                 89.3328
_cell_angle_beta                  90.1587
_cell_angle_gamma                 89.3736
loop_
_atom_site_label
_atom_site_type_symbol
_atom_site_fract_x
_atom_site_fract_y
_atom_site_fract_z
_atom_site_U_iso_or_equiv
_atom_site_adp_type
_atom_site_occupancy
C1     C     0.08749   0.16682   0.25027   0.00000  Uiso   1.00
C2     C     0.04280   0.16692   0.25058   0.00000  Uiso   1.00
C3     C     0.14354   0.02542   0.21977   0.00000  Uiso   1.00
C4     C     0.18994   0.30782   0.28002   0.00000  Uiso   1.00
C5     C     0.18927   0.02386   0.28066   0.00000  Uiso   1.00
C6     C     0.14391   0.30934   0.21936   0.00000  Uiso   1.00
C7     C     0.16767   0.16692   0.16480   0.00000  Uiso   1.00
C8     C     0.16605   0.16659   0.33531   0.00000  Uiso   1.00
C9     C     0.20364   0.15533   0.40625   0.00000  Uiso   1.00
C10    C     0.13239   0.18002   0.09334   0.00000  Uiso   1.00
C11    C     0.16682   0.16735   0.38376   0.00000  Uiso   1.00
C12    C     0.24584   0.16651   0.24990   0.00000  Uiso   1.00
C13    C     0.16864   0.16809   0.11654   0.00000  Uiso   1.00
C14    C     0.13153   0.18279   0.40680   0.00000  Uiso   1.00
C15    C     0.20565   0.15787   0.09411   0.00000  Uiso   1.00
C16    C     0.13329   0.18677   0.45348   0.00000  Uiso   1.00
C17    C     0.20622   0.16022   0.04715   0.00000  Uiso   1.00
C18    C     0.16959   0.17295   0.47658   0.00000  Uiso   1.00
C19    C     0.16989   0.17294   0.02358   0.00000  Uiso   1.00
C20    C     0.20580   0.16033   0.45297   0.00000  Uiso   1.00
C21    C     0.13405   0.18666   0.04693   0.00000  Uiso   1.00
C22    C     0.10114   0.20830   0.47733   0.00000  Uiso   1.00
C23    C     0.10183   0.20970   0.02391   0.00000  Uiso   1.00
C24    C     0.24289   0.15388   0.02321   0.00000  Uiso   1.00
C25    C     0.23876   0.13655   0.37994   0.00000  Uiso   1.00
C26    C     0.09228   0.17953   0.11748   0.00000  Uiso   1.00
C27    C     0.09252   0.19195   0.38161   0.00000  Uiso   1.00
C28    C     0.24277   0.14412   0.12067   0.00000  Uiso   1.00
C29    C     0.03615   0.24092   0.03685   0.00000  Uiso   1.00
C30    C     0.01283   0.26504   0.07442   0.00000  Uiso   1.00
C31    C     0.29963   0.26547   0.06706   0.00000  Uiso   1.00
C32    C     0.30038   0.19793   0.45670   0.00000  Uiso   1.00
C33    C     0.29177   0.22549   0.41380   0.00000  Uiso   1.00
C34    C     0.24339   0.15612   0.47692   0.00000  Uiso   1.00
C35    C     0.31436   0.27148   0.41361   0.00000  Uiso   1.00
C36    C     0.11607   0.05053   0.18843   0.00000  Uiso   1.00
C37    C     0.21782   0.28262   0.31094   0.00000  Uiso   1.00
C38    C     0.21206   0.04710   0.31624   0.00000  Uiso   1.00
C39    C     0.12003   0.28575   0.18459   0.00000  Uiso   1.00
C40    C     0.02177   0.12574   0.25933   0.00000  Uiso   1.00
C41    C     0.31154   0.20761   0.24114   0.00000  Uiso   1.00
C42    C     0.31246   0.12546   0.25884   0.00000  Uiso   1.00
C43    C     0.02084   0.20791   0.24174   0.00000  Uiso   1.00
C44    C     0.29051   0.16642   0.24984   0.00000  Uiso   1.00
Cu45   Cu    0.16667   0.21355   0.25000   0.00000  Uiso   1.00
Cu46   Cu    0.16667   0.11978   0.25000   0.00000  Uiso   1.00
H47    H     0.07702   0.22696   0.45975   0.00000  Uiso   1.00
H48    H     0.25023   0.16254   0.15081   0.00000  Uiso   1.00
H49    H     0.02502   0.20476   0.03424   0.00000  Uiso   1.00
H50    H     0.02997   0.26022   0.00533   0.00000  Uiso   1.00
H51    H     0.01975   0.24713   0.10653   0.00000  Uiso   1.00
H52    H     0.02356   0.30128   0.07692   0.00000  Uiso   1.00
H53    H     0.29170   0.28385   0.03551   0.00000  Uiso   1.00
H54    H     0.28431   0.28374   0.09488   0.00000  Uiso   1.00
H55    H     0.28791   0.22960   0.06627   0.00000  Uiso   1.00
H56    H     0.00077   0.19164   0.45929   0.00000  Uiso   1.00
H57    H     0.29142   0.21896   0.48590   0.00000  Uiso   1.00
H58    H     0.27224   0.14910   0.03983   0.00000  Uiso   1.00
H59    H     0.30207   0.20509   0.38471   0.00000  Uiso   1.00
H60    H     0.25815   0.23258   0.41061   0.00000  Uiso   1.00
H61    H     0.30432   0.29280   0.44218   0.00000  Uiso   1.00
H62    H     0.30726   0.29075   0.38233   0.00000  Uiso   1.00
H63    H     0.01487   0.26552   0.41563   0.00000  Uiso   1.00
H64    H     0.12782   0.06293   0.15682   0.00000  Uiso   1.00
H65    H     0.20638   0.26956   0.34243   0.00000  Uiso   1.00
H66    H     0.23409   0.07358   0.30866   0.00000  Uiso   1.00
H67    H     0.09646   0.26139   0.19324   0.00000  Uiso   1.00
H68    H     0.03819   0.09379   0.26683   0.00000  Uiso   1.00
H69    H     0.29514   0.23954   0.23355   0.00000  Uiso   1.00
H70    H     0.29680   0.09333   0.26578   0.00000  Uiso   1.00
H71    H     0.03644   0.24008   0.23494   0.00000  Uiso   1.00
H72    H     0.24672   0.15227   0.34823   0.00000  Uiso   1.00
H73    H     0.08996   0.19232   0.15108   0.00000  Uiso   1.00
H74    H     0.09317   0.20896   0.34932   0.00000  Uiso   1.00
N75    N     0.16667   0.28402   0.25000   0.00000  Uiso   1.00
N76    N     0.16667   0.04931   0.25000   0.00000  Uiso   1.00
O77    O     0.10655   0.20625   0.25000   0.00000  Uiso   1.00
O78    O     0.06195   0.16199   0.10084   0.00000  Uiso   1.00
O79    O     0.05948   0.17848   0.39580   0.00000  Uiso   1.00
O80    O     0.26388   0.11071   0.11050   0.00000  Uiso   1.00
O81    O     0.07859   0.24213   0.04713   0.00000  Uiso   1.00
O82    O     0.28120   0.15420   0.45567   0.00000  Uiso   1.00
O83    O     0.07932   0.05433   0.19636   0.00000  Uiso   1.00
O84    O     0.25459   0.27961   0.30286   0.00000  Uiso   1.00
O85    O     0.20640   0.03608   0.35504   0.00000  Uiso   1.00
O86    O     0.12619   0.29431   0.14533   0.00000  Uiso   1.00
O87    O     0.22679   0.12709   0.25000   0.00000  Uiso   1.00
O88    O     0.22679   0.20625   0.25000   0.00000  Uiso   1.00
O89    O     0.10655   0.12709   0.24999   0.00000  Uiso   1.00
O90    O     0.16666   0.20627   0.18513   0.00000  Uiso   1.00
O91    O     0.16668   0.12707   0.31487   0.00000  Uiso   1.00
O92    O     0.16668   0.20627   0.31487   0.00000  Uiso   1.00
O93    O     0.16666   0.12707   0.18513   0.00000  Uiso   1.00
O94    O     0.25779   0.10212   0.39243   0.00000  Uiso   1.00
C95    C     0.42082   0.16682   0.25027   0.00000  Uiso   1.00
C96    C     0.37613   0.16692   0.25058   0.00000  Uiso   1.00
C97    C     0.47687   0.02542   0.21977   0.00000  Uiso   1.00
C98    C     0.52328   0.30782   0.28002   0.00000  Uiso   1.00
C99    C     0.52260   0.02386   0.28066   0.00000  Uiso   1.00
C100   C     0.47725   0.30934   0.21936   0.00000  Uiso   1.00
C101   C     0.50100   0.16692   0.16480   0.00000  Uiso   1.00
C102   C     0.49938   0.16659   0.33531   0.00000  Uiso   1.00
C103   C     0.53698   0.15533   0.40625   0.00000  Uiso   1.00
C104   C     0.46572   0.18002   0.09334   0.00000  Uiso   1.00
C105   C     0.50015   0.16735   0.38376   0.00000  Uiso   1.00
C106   C     0.57917   0.16651   0.24990   0.00000  Uiso   1.00
C107   C     0.50197   0.16809   0.11654   0.00000  Uiso   1.00
C108   C     0.46487   0.18279   0.40680   0.00000  Uiso   1.00
C109   C     0.53898   0.15787   0.09411   0.00000  Uiso   1.00
C110   C     0.46662   0.18677   0.45348   0.00000  Uiso   1.00
C111   C     0.53956   0.16022   0.04715   0.00000  Uiso   1.00
C112   C     0.50292   0.17295   0.47658   0.00000  Uiso   1.00
C113   C     0.50322   0.17294   0.02358   0.00000  Uiso   1.00
C114   C     0.53913   0.16033   0.45297   0.00000  Uiso   1.00
C115   C     0.46738   0.18666   0.04693   0.00000  Uiso   1.00
C116   C     0.43448   0.20830   0.47733   0.00000  Uiso   1.00
C117   C     0.43517   0.20970   0.02391   0.00000  Uiso   1.00
C118   C     0.57623   0.15388   0.02321   0.00000  Uiso   1.00
C119   C     0.57209   0.13655   0.37994   0.00000  Uiso   1.00
C120   C     0.42561   0.17953   0.11748   0.00000  Uiso   1.00
C121   C     0.42585   0.19195   0.38161   0.00000  Uiso   1.00
C122   C     0.57610   0.14412   0.12067   0.00000  Uiso   1.00
C123   C     0.36948   0.24092   0.03685   0.00000  Uiso   1.00
C124   C     0.34616   0.26504   0.07442   0.00000  Uiso   1.00
C125   C     0.63296   0.26547   0.06706   0.00000  Uiso   1.00
C126   C     0.63371   0.19793   0.45670   0.00000  Uiso   1.00
C127   C     0.62510   0.22549   0.41380   0.00000  Uiso   1.00
C128   C     0.57672   0.15612   0.47692   0.00000  Uiso   1.00
C129   C     0.64769   0.27148   0.41361   0.00000  Uiso   1.00
C130   C     0.44941   0.05053   0.18843   0.00000  Uiso   1.00
C131   C     0.55115   0.28262   0.31094   0.00000  Uiso   1.00
C132   C     0.54539   0.04710   0.31624   0.00000  Uiso   1.00
C133   C     0.45336   0.28575   0.18459   0.00000  Uiso   1.00
C134   C     0.35511   0.12574   0.25933   0.00000  Uiso   1.00
C135   C     0.64487   0.20761   0.24114   0.00000  Uiso   1.00
C136   C     0.64579   0.12546   0.25884   0.00000  Uiso   1.00
C137   C     0.35417   0.20791   0.24174   0.00000  Uiso   1.00
C138   C     0.62385   0.16642   0.24984   0.00000  Uiso   1.00
Cu139  Cu    0.50000   0.21355   0.25000   0.00000  Uiso   1.00
Cu140  Cu    0.50000   0.11978   0.25000   0.00000  Uiso   1.00
H141   H     0.41035   0.22696   0.45975   0.00000  Uiso   1.00
H142   H     0.58356   0.16254   0.15081   0.00000  Uiso   1.00
H143   H     0.35835   0.20476   0.03424   0.00000  Uiso   1.00
H144   H     0.36331   0.26022   0.00533   0.00000  Uiso   1.00
H145   H     0.35308   0.24713   0.10653   0.00000  Uiso   1.00
H146   H     0.35690   0.30128   0.07692   0.00000  Uiso   1.00
H147   H     0.62503   0.28385   0.03551   0.00000  Uiso   1.00
H148   H     0.61765   0.28374   0.09488   0.00000  Uiso   1.00
H149   H     0.62124   0.22960   0.06627   0.00000  Uiso   1.00
H150   H     0.33410   0.19164   0.45929   0.00000  Uiso   1.00
H151   H     0.62476   0.21896   0.48590   0.00000  Uiso   1.00
H152   H     0.60557   0.14910   0.03983   0.00000  Uiso   1.00
H153   H     0.63540   0.20509   0.38471   0.00000  Uiso   1.00
H154   H     0.59149   0.23258   0.41061   0.00000  Uiso   1.00
H155   H     0.63765   0.29280   0.44218   0.00000  Uiso   1.00
H156   H     0.64060   0.29075   0.38233   0.00000  Uiso   1.00
H157   H     0.34821   0.26552   0.41563   0.00000  Uiso   1.00
H158   H     0.46116   0.06293   0.15682   0.00000  Uiso   1.00
H159   H     0.53971   0.26956   0.34243   0.00000  Uiso   1.00
H160   H     0.56742   0.07358   0.30866   0.00000  Uiso   1.00
H161   H     0.42979   0.26139   0.19324   0.00000  Uiso   1.00
H162   H     0.37152   0.09379   0.26683   0.00000  Uiso   1.00
H163   H     0.62847   0.23954   0.23355   0.00000  Uiso   1.00
H164   H     0.63013   0.09333   0.26578   0.00000  Uiso   1.00
H165   H     0.36977   0.24008   0.23494   0.00000  Uiso   1.00
H166   H     0.58005   0.15227   0.34823   0.00000  Uiso   1.00
H167   H     0.42330   0.19232   0.15108   0.00000  Uiso   1.00
H168   H     0.42650   0.20896   0.34932   0.00000  Uiso   1.00
N169   N     0.50000   0.28402   0.25000   0.00000  Uiso   1.00
N170   N     0.50000   0.04931   0.25000   0.00000  Uiso   1.00
O171   O     0.43988   0.20625   0.25000   0.00000  Uiso   1.00
O172   O     0.39528   0.16199   0.10084   0.00000  Uiso   1.00
O173   O     0.39282   0.17848   0.39580   0.00000  Uiso   1.00
O174   O     0.59722   0.11071   0.11050   0.00000  Uiso   1.00
O175   O     0.41192   0.24213   0.04713   0.00000  Uiso   1.00
O176   O     0.61453   0.15420   0.45567   0.00000  Uiso   1.00
O177   O     0.41266   0.05433   0.19636   0.00000  Uiso   1.00
O178   O     0.58792   0.27961   0.30286   0.00000  Uiso   1.00
O179   O     0.53973   0.03608   0.35504   0.00000  Uiso   1.00
O180   O     0.45953   0.29431   0.14533   0.00000  Uiso   1.00
O181   O     0.56012   0.12709   0.25000   0.00000  Uiso   1.00
O182   O     0.56012   0.20625   0.25000   0.00000  Uiso   1.00
O183   O     0.43988   0.12709   0.24999   0.00000  Uiso   1.00
O184   O     0.49999   0.20627   0.18513   0.00000  Uiso   1.00
O185   O     0.50001   0.12707   0.31487   0.00000  Uiso   1.00
O186   O     0.50001   0.20627   0.31487   0.00000  Uiso   1.00
O187   O     0.49999   0.12707   0.18513   0.00000  Uiso   1.00
O188   O     0.59112   0.10212   0.39243   0.00000  Uiso   1.00
C189   C     0.75415   0.16682   0.25027   0.00000  Uiso   1.00
C190   C     0.70947   0.16692   0.25058   0.00000  Uiso   1.00
C191   C     0.81021   0.02542   0.21977   0.00000  Uiso   1.00
C192   C     0.85661   0.30782   0.28002   0.00000  Uiso   1.00
C193   C     0.85593   0.02386   0.28066   0.00000  Uiso   1.00
C194   C     0.81058   0.30934   0.21936   0.00000  Uiso   1.00
C195   C     0.83433   0.16692   0.16480   0.00000  Uiso   1.00
C196   C     0.83272   0.16659   0.33531   0.00000  Uiso   1.00
C197   C     0.87031   0.15533   0.40625   0.00000  Uiso   1.00
C198   C     0.79906   0.18002   0.09334   0.00000  Uiso   1.00
C199   C     0.83348   0.16735   0.38376   0.00000  Uiso   1.00
C200   C     0.91251   0.16651   0.24990   0.00000  Uiso   1.00
C201   C     0.83530   0.16809   0.11654   0.00000  Uiso   1.00
C202   C     0.79820   0.18279   0.40680   0.00000  Uiso   1.00
C203   C     0.87231   0.15787   0.09411   0.00000  Uiso   1.00
C204   C     0.79996   0.18677   0.45348   0.00000  Uiso   1.00
C205   C     0.87289   0.16022   0.04715   0.00000  Uiso   1.00
C206   C     0.83626   0.17295   0.47658   0.00000  Uiso   1.00
C207   C     0.83656   0.17294   0.02358   0.00000  Uiso   1.00
C208   C     0.87247   0.16033   0.45297   0.00000  Uiso   1.00
C209   C     0.80072   0.18666   0.04693   0.00000  Uiso   1.00
C210   C     0.76781   0.20830   0.47733   0.00000  Uiso   1.00
C211   C     0.76850   0.20970   0.02391   0.00000  Uiso   1.00
C212   C     0.90956   0.15388   0.02321   0.00000  Uiso   1.00
C213   C     0.90542   0.13655   0.37994   0.00000  Uiso   1.00
C214   C     0.75894   0.17953   0.11748   0.00000  Uiso   1.00
C215   C     0.75919   0.19195   0.38161   0.00000  Uiso   1.00
C216   C     0.90944   0.14412   0.12067   0.00000  Uiso   1.00
C217   C     0.70282   0.24092   0.03685   0.00000  Uiso   1.00
C218   C     0.67950   0.26504   0.07442   0.00000  Uiso   1.00
C219   C     0.96629   0.26547   0.06706   0.00000  Uiso   1.00
C220   C     0.96704   0.19793   0.45670   0.00000  Uiso   1.00
C221   C     0.95843   0.22549   0.41380   0.00000  Uiso   1.00
C222   C     0.91006   0.15612   0.47692   0.00000  Uiso   1.00
C223   C     0.98103   0.27148   0.41361   0.00000  Uiso   1.00
C224   C     0.78274   0.05053   0.18843   0.00000  Uiso   1.00
C225   C     0.88449   0.28262   0.31094   0.00000  Uiso   1.00
C226   C     0.87872   0.04710   0.31624   0.00000  Uiso   1.00
C227   C     0.78670   0.28575   0.18459   0.00000  Uiso   1.00
C228   C     0.68844   0.12574   0.25933   0.00000  Uiso   1.00
C229   C     0.97821   0.20761   0.24114   0.00000  Uiso   1.00
C230   C     0.97912   0.12546   0.25884   0.00000  Uiso   1.00
C231   C     0.68750   0.20791   0.24174   0.00000  Uiso   1.00
C232   C     0.95718   0.16642   0.24984   0.00000  Uiso   1.00
Cu233  Cu    0.83333   0.21355   0.25000   0.00000  Uiso   1.00
Cu234  Cu    0.83333   0.11978   0.25000   0.00000  Uiso   1.00
H235   H     0.74369   0.22696   0.45975   0.00000  Uiso   1.00
H236   H     0.91690   0.16254   0.15081   0.00000  Uiso   1.00
H237   H     0.69168   0.20476   0.03424   0.00000  Uiso   1.00
H238   H     0.69664   0.26022   0.00533   0.00000  Uiso   1.00
H239   H     0.68642   0.24713   0.10653   0.00000  Uiso   1.00
H240   H     0.69023   0.30128   0.07692   0.00000  Uiso   1.00
H241   H     0.95837   0.28385   0.03551   0.00000  Uiso   1.00
H242   H     0.95098   0.28374   0.09488   0.00000  Uiso   1.00
H243   H     0.95458   0.22960   0.06627   0.00000  Uiso   1.00
H244   H     0.66743   0.19164   0.45929   0.00000  Uiso   1.00
H245   H     0.95809   0.21896   0.48590   0.00000  Uiso   1.00
H246   H     0.93890   0.14910   0.03983   0.00000  Uiso   1.00
H247   H     0.96873   0.20509   0.38471   0.00000  Uiso   1.00
H248   H     0.92482   0.23258   0.41061   0.00000  Uiso   1.00
H249   H     0.97098   0.29280   0.44218   0.00000  Uiso   1.00
H250   H     0.97393   0.29075   0.38233   0.00000  Uiso   1.00
H251   H     0.68154   0.26552   0.41563   0.00000  Uiso   1.00
H252   H     0.79449   0.06293   0.15682   0.00000  Uiso   1.00
H253   H     0.87305   0.26956   0.34243   0.00000  Uiso   1.00
H254   H     0.90075   0.07358   0.30866   0.00000  Uiso   1.00
H255   H     0.76313   0.26139   0.19324   0.00000  Uiso   1.00
H256   H     0.70485   0.09379   0.26683   0.00000  Uiso   1.00
H257   H     0.96181   0.23954   0.23355   0.00000  Uiso   1.00
H258   H     0.96346   0.09333   0.26578   0.00000  Uiso   1.00
H259   H     0.70311   0.24008   0.23494   0.00000  Uiso   1.00
H260   H     0.91339   0.15227   0.34823   0.00000  Uiso   1.00
H261   H     0.75663   0.19232   0.15108   0.00000  Uiso   1.00
H262   H     0.75983   0.20896   0.34932   0.00000  Uiso   1.00
N263   N     0.83333   0.28402   0.25000   0.00000  Uiso   1.00
N264   N     0.83333   0.04931   0.25000   0.00000  Uiso   1.00
O265   O     0.77321   0.20625   0.25000   0.00000  Uiso   1.00
O266   O     0.72861   0.16199   0.10084   0.00000  Uiso   1.00
O267   O     0.72615   0.17848   0.39580   0.00000  Uiso   1.00
O268   O     0.93055   0.11071   0.11050   0.00000  Uiso   1.00
O269   O     0.74526   0.24213   0.04713   0.00000  Uiso   1.00
O270   O     0.94786   0.15420   0.45567   0.00000  Uiso   1.00
O271   O     0.74599   0.05433   0.19636   0.00000  Uiso   1.00
O272   O     0.92126   0.27961   0.30286   0.00000  Uiso   1.00
O273   O     0.87306   0.03608   0.35504   0.00000  Uiso   1.00
O274   O     0.79286   0.29431   0.14533   0.00000  Uiso   1.00
O275   O     0.89345   0.12709   0.25000   0.00000  Uiso   1.00
O276   O     0.89345   0.20625   0.25000   0.00000  Uiso   1.00
O277   O     0.77321   0.12709   0.24999   0.00000  Uiso   1.00
O278   O     0.83332   0.20627   0.18513   0.00000  Uiso   1.00
O279   O     0.83334   0.12707   0.31487   0.00000  Uiso   1.00
O280   O     0.83334   0.20627   0.31487   0.00000  Uiso   1.00
O281   O     0.83332   0.12707   0.18513   0.00000  Uiso   1.00
O282   O     0.92446   0.10212   0.39243   0.00000  Uiso   1.00
C283   C     0.08749   0.50016   0.25027   0.00000  Uiso   1.00
C284   C     0.04280   0.50026   0.25058   0.00000  Uiso   1.00
C285   C     0.14354   0.35876   0.21977   0.00000  Uiso   1.00
C286   C     0.18994   0.64116   0.28002   0.00000  Uiso   1.00
C287   C     0.18927   0.35719   0.28066   0.00000  Uiso   1.00
C288   C     0.14391   0.64267   0.21936   0.00000  Uiso   1.00
C289   C     0.16767   0.50025   0.16480   0.00000  Uiso   1.00
C290   C     0.16605   0.49993   0.33531   0.00000  Uiso   1.00
C291   C     0.20364   0.48866   0.40625   0.00000  Uiso   1.00
C292   C     0.13239   0.51335   0.09334   0.00000  Uiso   1.00
C293   C     0.16682   0.50068   0.38376   0.00000  Uiso   1.00
C294   C     0.24584   0.49984   0.24990   0.00000  Uiso   1.00
C295   C     0.16864   0.50142   0.11654   0.00000  Uiso   1.00
C296   C     0.13153   0.51613   0.40680   0.00000  Uiso   1.00
C297   C     0.20565   0.49120   0.09411   0.00000  Uiso   1.00
C298   C     0.13329   0.52010   0.45348   0.00000  Uiso   1.00
C299   C     0.20622   0.49356   0.04715   0.00000  Uiso   1.00
C300   C     0.16959   0.50628   0.47658   0.00000  Uiso   1.00
C301   C     0.16989   0.50628   0.02358   0.00000  Uiso   1.00
C302   C     0.20580   0.49366   0.45297   0.00000  Uiso   1.00
C303   C     0.13405   0.51999   0.04693   0.00000  Uiso   1.00
C304   C     0.10114   0.54164   0.47733   0.00000  Uiso   1.00
C305   C     0.10183   0.54303   0.02391   0.00000  Uiso   1.00
C306   C     0.24289   0.48721   0.02321   0.00000  Uiso   1.00
C307   C     0.23876   0.46988   0.37994   0.00000  Uiso   1.00
C308   C     0.09228   0.51286   0.11748   0.00000  Uiso   1.00
C309   C     0.09252   0.52528   0.38161   0.00000  Uiso   1.00
C310   C     0.24277   0.47746   0.12067   0.00000  Uiso   1.00
C311   C     0.03615   0.57426   0.03685   0.00000  Uiso   1.00
C312   C     0.01283   0.59837   0.07442   0.00000  Uiso   1.00
C313   C     0.29963   0.59880   0.06706   0.00000  Uiso   1.00
C314   C     0.30038   0.53126   0.45670   0.00000  Uiso   1.00
C315   C     0.29177   0.55883   0.41380   0.00000  Uiso   1.00
C316   C     0.24339   0.48945   0.47692   0.00000  Uiso   1.00
C317   C     0.31436   0.60481   0.41361   0.00000  Uiso   1.00
C318   C     0.11607   0.38387   0.18843   0.00000  Uiso   1.00
C319   C     0.21782   0.61595   0.31094   0.00000  Uiso   1.00
C320   C     0.21206   0.38044   0.31624   0.00000  Uiso   1.00
C321   C     0.12003   0.61908   0.18459   0.00000  Uiso   1.00
C322   C     0.02177   0.45907   0.25933   0.00000  Uiso   1.00
C323   C     0.31154   0.54094   0.24114   0.00000  Uiso   1.00
C324   C     0.31246   0.45879   0.25884   0.00000  Uiso   1.00
C325   C     0.02084   0.54124   0.24174   0.00000  Uiso   1.00
C326   C     0.29051   0.49976   0.24984   0.00000  Uiso   1.00
Cu327  Cu    0.16667   0.54689   0.25000   0.00000  Uiso   1.00
Cu328  Cu    0.16667   0.45311   0.25000   0.00000  Uiso   1.00
H329   H     0.07702   0.56029   0.45975   0.00000  Uiso   1.00
H330   H     0.25023   0.49587   0.15081   0.00000  Uiso   1.00
H331   H     0.02502   0.53810   0.03424   0.00000  Uiso   1.00
H332   H     0.02997   0.59356   0.00533   0.00000  Uiso   1.00
H333   H     0.01975   0.58046   0.10653   0.00000  Uiso   1.00
H334   H     0.02356   0.63462   0.07692   0.00000  Uiso   1.00
H335   H     0.29170   0.61718   0.03551   0.00000  Uiso   1.00
H336   H     0.28431   0.61708   0.09488   0.00000  Uiso   1.00
H337   H     0.28791   0.56294   0.06627   0.00000  Uiso   1.00
H338   H     0.00077   0.52497   0.45929   0.00000  Uiso   1.00
H339   H     0.29142   0.55230   0.48590   0.00000  Uiso   1.00
H340   H     0.27224   0.48243   0.03983   0.00000  Uiso   1.00
H341   H     0.30207   0.53842   0.38471   0.00000  Uiso   1.00
H342   H     0.25815   0.56591   0.41061   0.00000  Uiso   1.00
H343   H     0.30432   0.62613   0.44218   0.00000  Uiso   1.00
H344   H     0.30726   0.62408   0.38233   0.00000  Uiso   1.00
H345   H     0.01487   0.59885   0.41563   0.00000  Uiso   1.00
H346   H     0.12782   0.39627   0.15682   0.00000  Uiso   1.00
H347   H     0.20638   0.60289   0.34243   0.00000  Uiso   1.00
H348   H     0.23409   0.40692   0.30866   0.00000  Uiso   1.00
H349   H     0.09646   0.59472   0.19324   0.00000  Uiso   1.00
H350   H     0.03819   0.42712   0.26683   0.00000  Uiso   1.00
H351   H     0.29514   0.57288   0.23355   0.00000  Uiso   1.00
H352   H     0.29680   0.42667   0.26578   0.00000  Uiso   1.00
H353   H     0.03644   0.57341   0.23494   0.00000  Uiso   1.00
H354   H     0.24672   0.48561   0.34823   0.00000  Uiso   1.00
H355   H     0.08996   0.52565   0.15108   0.00000  Uiso   1.00
H356   H     0.09317   0.54229   0.34932   0.00000  Uiso   1.00
N357   N     0.16667   0.61736   0.25000   0.00000  Uiso   1.00
N358   N     0.16667   0.38264   0.25000   0.00000  Uiso   1.00
O359   O     0.10655   0.53958   0.25000   0.00000  Uiso   1.00
O360   O     0.06195   0.49532   0.10084   0.00000  Uiso   1.00
O361   O     0.05948   0.51181   0.39580   0.00000  Uiso   1.00
O362   O     0.26388   0.44405   0.11050   0.00000  Uiso   1.00
O363   O     0.07859   0.57546   0.04713   0.00000  Uiso   1.00
O364   O     0.28120   0.48753   0.45567   0.00000  Uiso   1.00
O365   O     0.07932   0.38766   0.19636   0.00000  Uiso   1.00
O366   O     0.25459   0.61295   0.30286   0.00000  Uiso   1.00
O367   O     0.20640   0.36941   0.35504   0.00000  Uiso   1.00
O368   O     0.12619   0.62764   0.14533   0.00000  Uiso   1.00
O369   O     0.22679   0.46042   0.25000   0.00000  Uiso   1.00
O370   O     0.22679   0.53958   0.25000   0.00000  Uiso   1.00
O371   O     0.10655   0.46042   0.24999   0.00000  Uiso   1.00
O372   O     0.16666   0.53960   0.18513   0.00000  Uiso   1.00
O373   O     0.16668   0.46040   0.31487   0.00000  Uiso   1.00
O374   O     0.16668   0.53960   0.31487   0.00000  Uiso   1.00
O375   O     0.16666   0.46040   0.18513   0.00000  Uiso   1.00
O376   O     0.25779   0.43545   0.39243   0.00000  Uiso   1.00
C377   C     0.42082   0.50016   0.25027   0.00000  Uiso   1.00
C378   C     0.37613   0.50026   0.25058   0.00000  Uiso   1.00
C379   C     0.47687   0.35876   0.21977   0.00000  Uiso   1.00
C380   C     0.52328   0.64116   0.28002   0.00000  Uiso   1.00
C381   C     0.52260   0.35719   0.28066   0.00000  Uiso   1.00
C382   C     0.47725   0.64267   0.21936   0.00000  Uiso   1.00
C383   C     0.50100   0.50025   0.16480   0.00000  Uiso   1.00
C384   C     0.49938   0.49993   0.33531   0.00000  Uiso   1.00
C385   C     0.53698   0.48866   0.40625   0.00000  Uiso   1.00
C386   C     0.46572   0.51335   0.09334   0.00000  Uiso   1.00
C387   C     0.50015   0.50068   0.38376   0.00000  Uiso   1.00
C388   C     0.57917   0.49984   0.24990   0.00000  Uiso   1.00
C389   C     0.50197   0.50142   0.11654   0.00000  Uiso   1.00
C390   C     0.46487   0.51613   0.40680   0.00000  Uiso   1.00
C391   C     0.53898   0.49120   0.09411   0.00000  Uiso   1.00
C392   C     0.46662   0.52010   0.45348   0.00000  Uiso   1.00
C393   C     0.53956   0.49356   0.04715   0.00000  Uiso   1.00
C394   C     0.50292   0.50628   0.47658   0.00000  Uiso   1.00
C395   C     0.50322   0.50628   0.02358   0.00000  Uiso   1.00
C396   C     0.53913   0.49366   0.45297   0.00000  Uiso   1.00
C397   C     0.46738   0.51999   0.04693   0.00000  Uiso   1.00
C398   C     0.43448   0.54164   0.47733   0.00000  Uiso   1.00
C399   C     0.43517   0.54303   0.02391   0.00000  Uiso   1.00
C400   C     0.57623   0.48721   0.02321   0.00000  Uiso   1.00
C401   C     0.57209   0.46988   0.37994   0.00000  Uiso   1.00
C402   C     0.42561   0.51286   0.11748   0.00000  Uiso   1.00
C403   C     0.42585   0.52528   0.38161   0.00000  Uiso   1.00
C404   C     0.57610   0.47746   0.12067   0.00000  Uiso   1.00
C405   C     0.36948   0.57426   0.03685   0.00000  Uiso   1.00
C406   C     0.34616   0.59837   0.07442   0.00000  Uiso   1.00
C407   C     0.63296   0.59880   0.06706   0.00000  Uiso   1.00
C408   C     0.63371   0.53126   0.45670   0.00000  Uiso   1.00
C409   C     0.62510   0.55883   0.41380   0.00000  Uiso   1.00
C410   C     0.57672   0.48945   0.47692   0.00000  Uiso   1.00
C411   C     0.64769   0.60481   0.41361   0.00000  Uiso   1.00
C412   C     0.44941   0.38387   0.18843   0.00000  Uiso   1.00
C413   C     0.55115   0.61595   0.31094   0.00000  Uiso   1.00
C414   C     0.54539   0.38044   0.31624   0.00000  Uiso   1.00
C415   C     0.45336   0.61908   0.18459   0.00000  Uiso   1.00
C416   C     0.35511   0.45907   0.25933   0.00000  Uiso   1.00
C417   C     0.64487   0.54094   0.24114   0.00000  Uiso   1.00
C418   C     0.64579   0.45879   0.25884   0.00000  Uiso   1.00
C419   C     0.35417   0.54124   0.24174   0.00000  Uiso   1.00
C420   C     0.62385   0.49976   0.24984   0.00000  Uiso   1.00
Cu421  Cu    0.50000   0.54689   0.25000   0.00000  Uiso   1.00
Cu422  Cu    0.50000   0.45311   0.25000   0.00000  Uiso   1.00
H423   H     0.41035   0.56029   0.45975   0.00000  Uiso   1.00
H424   H     0.58356   0.49587   0.15081   0.00000  Uiso   1.00
H425   H     0.35835   0.53810   0.03424   0.00000  Uiso   1.00
H426   H     0.36331   0.59356   0.00533   0.00000  Uiso   1.00
H427   H     0.35308   0.58046   0.10653   0.00000  Uiso   1.00
H428   H     0.35690   0.63462   0.07692   0.00000  Uiso   1.00
H429   H     0.62503   0.61718   0.03551   0.00000  Uiso   1.00
H430   H     0.61765   0.61708   0.09488   0.00000  Uiso   1.00
H431   H     0.62124   0.56294   0.06627   0.00000  Uiso   1.00
H432   H     0.33410   0.52497   0.45929   0.00000  Uiso   1.00
H433   H     0.62476   0.55230   0.48590   0.00000  Uiso   1.00
H434   H     0.60557   0.48243   0.03983   0.00000  Uiso   1.00
H435   H     0.63540   0.53842   0.38471   0.00000  Uiso   1.00
H436   H     0.59149   0.56591   0.41061   0.00000  Uiso   1.00
H437   H     0.63765   0.62613   0.44218   0.00000  Uiso   1.00
H438   H     0.64060   0.62408   0.38233   0.00000  Uiso   1.00
H439   H     0.34821   0.59885   0.41563   0.00000  Uiso   1.00
H440   H     0.46116   0.39627   0.15682   0.00000  Uiso   1.00
H441   H     0.53971   0.60289   0.34243   0.00000  Uiso   1.00
H442   H     0.56742   0.40692   0.30866   0.00000  Uiso   1.00
H443   H     0.42979   0.59472   0.19324   0.00000  Uiso   1.00
H444   H     0.37152   0.42712   0.26683   0.00000  Uiso   1.00
H445   H     0.62847   0.57288   0.23355   0.00000  Uiso   1.00
H446   H     0.63013   0.42667   0.26578   0.00000  Uiso   1.00
H447   H     0.36977   0.57341   0.23494   0.00000  Uiso   1.00
H448   H     0.58005   0.48561   0.34823   0.00000  Uiso   1.00
H449   H     0.42330   0.52565   0.15108   0.00000  Uiso   1.00
H450   H     0.42650   0.54229   0.34932   0.00000  Uiso   1.00
N451   N     0.50000   0.61736   0.25000   0.00000  Uiso   1.00
N452   N     0.50000   0.38264   0.25000   0.00000  Uiso   1.00
O453   O     0.43988   0.53958   0.25000   0.00000  Uiso   1.00
O454   O     0.39528   0.49532   0.10084   0.00000  Uiso   1.00
O455   O     0.39282   0.51181   0.39580   0.00000  Uiso   1.00
O456   O     0.59722   0.44405   0.11050   0.00000  Uiso   1.00
O457   O     0.41192   0.57546   0.04713   0.00000  Uiso   1.00
O458   O     0.61453   0.48753   0.45567   0.00000  Uiso   1.00
O459   O     0.41266   0.38766   0.19636   0.00000  Uiso   1.00
O460   O     0.58792   0.61295   0.30286   0.00000  Uiso   1.00
O461   O     0.53973   0.36941   0.35504   0.00000  Uiso   1.00
O462   O     0.45953   0.62764   0.14533   0.00000  Uiso   1.00
O463   O     0.56012   0.46042   0.25000   0.00000  Uiso   1.00
O464   O     0.56012   0.53958   0.25000   0.00000  Uiso   1.00
O465   O     0.43988   0.46042   0.24999   0.00000  Uiso   1.00
O466   O     0.49999   0.53960   0.18513   0.00000  Uiso   1.00
O467   O     0.50001   0.46040   0.31487   0.00000  Uiso   1.00
O468   O     0.50001   0.53960   0.31487   0.00000  Uiso   1.00
O469   O     0.49999   0.46040   0.18513   0.00000  Uiso   1.00
O470   O     0.59112   0.43545   0.39243   0.00000  Uiso   1.00
C471   C     0.75415   0.50016   0.25027   0.00000  Uiso   1.00
C472   C     0.70947   0.50026   0.25058   0.00000  Uiso   1.00
C473   C     0.81021   0.35876   0.21977   0.00000  Uiso   1.00
C474   C     0.85661   0.64116   0.28002   0.00000  Uiso   1.00
C475   C     0.85593   0.35719   0.28066   0.00000  Uiso   1.00
C476   C     0.81058   0.64267   0.21936   0.00000  Uiso   1.00
C477   C     0.83433   0.50025   0.16480   0.00000  Uiso   1.00
C478   C     0.83272   0.49993   0.33531   0.00000  Uiso   1.00
C479   C     0.87031   0.48866   0.40625   0.00000  Uiso   1.00
C480   C     0.79906   0.51335   0.09334   0.00000  Uiso   1.00
C481   C     0.83348   0.50068   0.38376   0.00000  Uiso   1.00
C482   C     0.91251   0.49984   0.24990   0.00000  Uiso   1.00
C483   C     0.83530   0.50142   0.11654   0.00000  Uiso   1.00
C484   C     0.79820   0.51613   0.40680   0.00000  Uiso   1.00
C485   C     0.87231   0.49120   0.09411   0.00000  Uiso   1.00
C486   C     0.79996   0.52010   0.45348   0.00000  Uiso   1.00
C487   C     0.87289   0.49356   0.04715   0.00000  Uiso   1.00
C488   C     0.83626   0.50628   0.47658   0.00000  Uiso   1.00
C489   C     0.83656   0.50628   0.02358   0.00000  Uiso   1.00
C490   C     0.87247   0.49366   0.45297   0.00000  Uiso   1.00
C491   C     0.80072   0.51999   0.04693   0.00000  Uiso   1.00
C492   C     0.76781   0.54164   0.47733   0.00000  Uiso   1.00
C493   C     0.76850   0.54303   0.02391   0.00000  Uiso   1.00
C494   C     0.90956   0.48721   0.02321   0.00000  Uiso   1.00
C495   C     0.90542   0.46988   0.37994   0.00000  Uiso   1.00
C496   C     0.75894   0.51286   0.11748   0.00000  Uiso   1.00
C497   C     0.75919   0.52528   0.38161   0.00000  Uiso   1.00
C498   C     0.90944   0.47746   0.12067   0.00000  Uiso   1.00
C499   C     0.70282   0.57426   0.03685   0.00000  Uiso   1.00
C500   C     0.67950   0.59837   0.07442   0.00000  Uiso   1.00
C501   C     0.96629   0.59880   0.06706   0.00000  Uiso   1.00
C502   C     0.96704   0.53126   0.45670   0.00000  Uiso   1.00
C503   C     0.95843   0.55883   0.41380   0.00000  Uiso   1.00
C504   C     0.91006   0.48945   0.47692   0.00000  Uiso   1.00
C505   C     0.98103   0.60481   0.41361   0.00000  Uiso   1.00
C506   C     0.78274   0.38387   0.18843   0.00000  Uiso   1.00
C507   C     0.88449   0.61595   0.31094   0.00000  Uiso   1.00
C508   C     0.87872   0.38044   0.31624   0.00000  Uiso   1.00
C509   C     0.78670   0.61908   0.18459   0.00000  Uiso   1.00
C510   C     0.68844   0.45907   0.25933   0.00000  Uiso   1.00
C511   C     0.97821   0.54094   0.24114   0.00000  Uiso   1.00
C512   C     0.97912   0.45879   0.25884   0.00000  Uiso   1.00
C513   C     0.68750   0.54124   0.24174   0.00000  Uiso   1.00
C514   C     0.95718   0.49976   0.24984   0.00000  Uiso   1.00
Cu515  Cu    0.83333   0.54689   0.25000   0.00000  Uiso   1.00
Cu516  Cu    0.83333   0.45311   0.25000   0.00000  Uiso   1.00
H517   H     0.74369   0.56029   0.45975   0.00000  Uiso   1.00
H518   H     0.91690   0.49587   0.15081   0.00000  Uiso   1.00
H519   H     0.69168   0.53810   0.03424   0.00000  Uiso   1.00
H520   H     0.69664   0.59356   0.00533   0.00000  Uiso   1.00
H521   H     0.68642   0.58046   0.10653   0.00000  Uiso   1.00
H522   H     0.69023   0.63462   0.07692   0.00000  Uiso   1.00
H523   H     0.95837   0.61718   0.03551   0.00000  Uiso   1.00
H524   H     0.95098   0.61708   0.09488   0.00000  Uiso   1.00
H525   H     0.95458   0.56294   0.06627   0.00000  Uiso   1.00
H526   H     0.66743   0.52497   0.45929   0.00000  Uiso   1.00
H527   H     0.95809   0.55230   0.48590   0.00000  Uiso   1.00
H528   H     0.93890   0.48243   0.03983   0.00000  Uiso   1.00
H529   H     0.96873   0.53842   0.38471   0.00000  Uiso   1.00
H530   H     0.92482   0.56591   0.41061   0.00000  Uiso   1.00
H531   H     0.97098   0.62613   0.44218   0.00000  Uiso   1.00
H532   H     0.97393   0.62408   0.38233   0.00000  Uiso   1.00
H533   H     0.68154   0.59885   0.41563   0.00000  Uiso   1.00
H534   H     0.79449   0.39627   0.15682   0.00000  Uiso   1.00
H535   H     0.87305   0.60289   0.34243   0.00000  Uiso   1.00
H536   H     0.90075   0.40692   0.30866   0.00000  Uiso   1.00
H537   H     0.76313   0.59472   0.19324   0.00000  Uiso   1.00
H538   H     0.70485   0.42712   0.26683   0.00000  Uiso   1.00
H539   H     0.96181   0.57288   0.23355   0.00000  Uiso   1.00
H540   H     0.96346   0.42667   0.26578   0.00000  Uiso   1.00
H541   H     0.70311   0.57341   0.23494   0.00000  Uiso   1.00
H542   H     0.91339   0.48561   0.34823   0.00000  Uiso   1.00
H543   H     0.75663   0.52565   0.15108   0.00000  Uiso   1.00
H544   H     0.75983   0.54229   0.34932   0.00000  Uiso   1.00
N545   N     0.83333   0.61736   0.25000   0.00000  Uiso   1.00
N546   N     0.83333   0.38264   0.25000   0.00000  Uiso   1.00
O547   O     0.77321   0.53958   0.25000   0.00000  Uiso   1.00
O548   O     0.72861   0.49532   0.10084   0.00000  Uiso   1.00
O549   O     0.72615   0.51181   0.39580   0.00000  Uiso   1.00
O550   O     0.93055   0.44405   0.11050   0.00000  Uiso   1.00
O551   O     0.74526   0.57546   0.04713   0.00000  Uiso   1.00
O552   O     0.94786   0.48753   0.45567   0.00000  Uiso   1.00
O553   O     0.74599   0.38766   0.19636   0.00000  Uiso   1.00
O554   O     0.92126   0.61295   0.30286   0.00000  Uiso   1.00
O555   O     0.87306   0.36941   0.35504   0.00000  Uiso   1.00
O556   O     0.79286   0.62764   0.14533   0.00000  Uiso   1.00
O557   O     0.89345   0.46042   0.25000   0.00000  Uiso   1.00
O558   O     0.89345   0.53958   0.25000   0.00000  Uiso   1.00
O559   O     0.77321   0.46042   0.24999   0.00000  Uiso   1.00
O560   O     0.83332   0.53960   0.18513   0.00000  Uiso   1.00
O561   O     0.83334   0.46040   0.31487   0.00000  Uiso   1.00
O562   O     0.83334   0.53960   0.31487   0.00000  Uiso   1.00
O563   O     0.83332   0.46040   0.18513   0.00000  Uiso   1.00
O564   O     0.92446   0.43545   0.39243   0.00000  Uiso   1.00
C565   C     0.08749   0.83349   0.25027   0.00000  Uiso   1.00
C566   C     0.04280   0.83359   0.25058   0.00000  Uiso   1.00
C567   C     0.14354   0.69209   0.21977   0.00000  Uiso   1.00
C568   C     0.18994   0.97449   0.28002   0.00000  Uiso   1.00
C569   C     0.18927   0.69052   0.28066   0.00000  Uiso   1.00
C570   C     0.14391   0.97601   0.21936   0.00000  Uiso   1.00
C571   C     0.16767   0.83358   0.16480   0.00000  Uiso   1.00
C572   C     0.16605   0.83326   0.33531   0.00000  Uiso   1.00
C573   C     0.20364   0.82199   0.40625   0.00000  Uiso   1.00
C574   C     0.13239   0.84668   0.09334   0.00000  Uiso   1.00
C575   C     0.16682   0.83402   0.38376   0.00000  Uiso   1.00
C576   C     0.24584   0.83318   0.24990   0.00000  Uiso   1.00
C577   C     0.16864   0.83475   0.11654   0.00000  Uiso   1.00
C578   C     0.13153   0.84946   0.40680   0.00000  Uiso   1.00
C579   C     0.20565   0.82454   0.09411   0.00000  Uiso   1.00
C580   C     0.13329   0.85344   0.45348   0.00000  Uiso   1.00
C581   C     0.20622   0.82689   0.04715   0.00000  Uiso   1.00
C582   C     0.16959   0.83962   0.47658   0.00000  Uiso   1.00
C583   C     0.16989   0.83961   0.02358   0.00000  Uiso   1.00
C584   C     0.20580   0.82699   0.45297   0.00000  Uiso   1.00
C585   C     0.13405   0.85332   0.04693   0.00000  Uiso   1.00
C586   C     0.10114   0.87497   0.47733   0.00000  Uiso   1.00
C587   C     0.10183   0.87637   0.02391   0.00000  Uiso   1.00
C588   C     0.24289   0.82055   0.02321   0.00000  Uiso   1.00
C589   C     0.23876   0.80321   0.37994   0.00000  Uiso   1.00
C590   C     0.09228   0.84620   0.11748   0.00000  Uiso   1.00
C591   C     0.09252   0.85862   0.38161   0.00000  Uiso   1.00
C592   C     0.24277   0.81079   0.12067   0.00000  Uiso   1.00
C593   C     0.03615   0.90759   0.03685   0.00000  Uiso   1.00
C594   C     0.01283   0.93170   0.07442   0.00000  Uiso   1.00
C595   C     0.29963   0.93213   0.06706   0.00000  Uiso   1.00
C596   C     0.30038   0.86459   0.45670   0.00000  Uiso   1.00
C597   C     0.29177   0.89216   0.41380   0.00000  Uiso   1.00
C598   C     0.24339   0.82278   0.47692   0.00000  Uiso   1.00
C599   C     0.31436   0.93814   0.41361   0.00000  Uiso   1.00
C600   C     0.11607   0.71720   0.18843   0.00000  Uiso   1.00
C601   C     0.21782   0.94929   0.31094   0.00000  Uiso   1.00
C602   C     0.21206   0.71377   0.31624   0.00000  Uiso   1.00
C603   C     0.12003   0.95241   0.18459   0.00000  Uiso   1.00
C604   C     0.02177   0.79240   0.25933   0.00000  Uiso   1.00
C605   C     0.31154   0.87428   0.24114   0.00000  Uiso   1.00
C606   C     0.31246   0.79213   0.25884   0.00000  Uiso   1.00
C607   C     0.02084   0.87458   0.24174   0.00000  Uiso   1.00
C608   C     0.29051   0.83309   0.24984   0.00000  Uiso   1.00
Cu609  Cu    0.16667   0.88022   0.25000   0.00000  Uiso   1.00
Cu610  Cu    0.16667   0.78645   0.25000   0.00000  Uiso   1.00
H611   H     0.07702   0.89363   0.45975   0.00000  Uiso   1.00
H612   H     0.25023   0.82921   0.15081   0.00000  Uiso   1.00
H613   H     0.02502   0.87143   0.03424   0.00000  Uiso   1.00
H614   H     0.02997   0.92689   0.00533   0.00000  Uiso   1.00
H615   H     0.01975   0.91379   0.10653   0.00000  Uiso   1.00
H616   H     0.02356   0.96795   0.07692   0.00000  Uiso   1.00
H617   H     0.29170   0.95052   0.03551   0.00000  Uiso   1.00
H618   H     0.28431   0.95041   0.09488   0.00000  Uiso   1.00
H619   H     0.28791   0.89627   0.06627   0.00000  Uiso   1.00
H620   H     0.00077   0.85831   0.45929   0.00000  Uiso   1.00
H621   H     0.29142   0.88563   0.48590   0.00000  Uiso   1.00
H622   H     0.27224   0.81576   0.03983   0.00000  Uiso   1.00
H623   H     0.30207   0.87175   0.38471   0.00000  Uiso   1.00
H624   H     0.25815   0.89924   0.41061   0.00000  Uiso   1.00
H625   H     0.30432   0.95946   0.44218   0.00000  Uiso   1.00
H626   H     0.30726   0.95741   0.38233   0.00000  Uiso   1.00
H627   H     0.01487   0.93218   0.41563   0.00000  Uiso   1.00
H628   H     0.12782   0.72960   0.15682   0.00000  Uiso   1.00
H629   H     0.20638   0.93622   0.34243   0.00000  Uiso   1.00
H630   H     0.23409   0.74025   0.30866   0.00000  Uiso   1.00
H631   H     0.09646   0.92806   0.19324   0.00000  Uiso   1.00
H632   H     0.03819   0.76045   0.26683   0.00000  Uiso   1.00
H633   H     0.29514   0.90621   0.23355   0.00000  Uiso   1.00
H634   H     0.29680   0.76000   0.26578   0.00000  Uiso   1.00
H635   H     0.03644   0.90675   0.23494   0.00000  Uiso   1.00
H636   H     0.24672   0.81894   0.34823   0.00000  Uiso   1.00
H637   H     0.08996   0.85899   0.15108   0.00000  Uiso   1.00
H638   H     0.09317   0.87563   0.34932   0.00000  Uiso   1.00
N639   N     0.16667   0.95069   0.25000   0.00000  Uiso   1.00
N640   N     0.16667   0.71598   0.25000   0.00000  Uiso   1.00
O641   O     0.10655   0.87291   0.25000   0.00000  Uiso   1.00
O642   O     0.06195   0.82866   0.10084   0.00000  Uiso   1.00
O643   O     0.05948   0.84514   0.39580   0.00000  Uiso   1.00
O644   O     0.26388   0.77738   0.11050   0.00000  Uiso   1.00
O645   O     0.07859   0.90879   0.04713   0.00000  Uiso   1.00
O646   O     0.28120   0.82087   0.45567   0.00000  Uiso   1.00
O647   O     0.07932   0.72100   0.19636   0.00000  Uiso   1.00
O648   O     0.25459   0.94628   0.30286   0.00000  Uiso   1.00
O649   O     0.20640   0.70274   0.35504   0.00000  Uiso   1.00
O650   O     0.12619   0.96098   0.14533   0.00000  Uiso   1.00
O651   O     0.22679   0.79375   0.25000   0.00000  Uiso   1.00
O652   O     0.22679   0.87291   0.25000   0.00000  Uiso   1.00
O653   O     0.10655   0.79375   0.24999   0.00000  Uiso   1.00
O654   O     0.16666   0.87293   0.18513   0.00000  Uiso   1.00
O655   O     0.16668   0.79373   0.31487   0.00000  Uiso   1.00
O656   O     0.16668   0.87293   0.31487   0.00000  Uiso   1.00
O657   O     0.16666   0.79373   0.18513   0.00000  Uiso   1.00
O658   O     0.25779   0.76879   0.39243   0.00000  Uiso   1.00
C659   C     0.42082   0.83349   0.25027   0.00000  Uiso   1.00
C660   C     0.37613   0.83359   0.25058   0.00000  Uiso   1.00
C661   C     0.47687   0.69209   0.21977   0.00000  Uiso   1.00
C662   C     0.52328   0.97449   0.28002   0.00000  Uiso   1.00
C663   C     0.52260   0.69052   0.28066   0.00000  Uiso   1.00
C664   C     0.47725   0.97601   0.21936   0.00000  Uiso   1.00
C665   C     0.50100   0.83358   0.16480   0.00000  Uiso   1.00
C666   C     0.49938   0.83326   0.33531   0.00000  Uiso   1.00
C667   C     0.53698   0.82199   0.40625   0.00000  Uiso   1.00
C668   C     0.46572   0.84668   0.09334   0.00000  Uiso   1.00
C669   C     0.50015   0.83402   0.38376   0.00000  Uiso   1.00
C670   C     0.57917   0.83318   0.24990   0.00000  Uiso   1.00
C671   C     0.50197   0.83475   0.11654   0.00000  Uiso   1.00
C672   C     0.46487   0.84946   0.40680   0.00000  Uiso   1.00
C673   C     0.53898   0.82454   0.09411   0.00000  Uiso   1.00
C674   C     0.46662   0.85344   0.45348   0.00000  Uiso   1.00
C675   C     0.53956   0.82689   0.04715   0.00000  Uiso   1.00
C676   C     0.50292   0.83962   0.47658   0.00000  Uiso   1.00
C677   C     0.50322   0.83961   0.02358   0.00000  Uiso   1.00
C678   C     0.53913   0.82699   0.45297   0.00000  Uiso   1.00
C679   C     0.46738   0.85332   0.04693   0.00000  Uiso   1.00
C680   C     0.43448   0.87497   0.47733   0.00000  Uiso   1.00
C681   C     0.43517   0.87637   0.02391   0.00000  Uiso   1.00
C682   C     0.57623   0.82055   0.02321   0.00000  Uiso   1.00
C683   C     0.57209   0.80321   0.37994   0.00000  Uiso   1.00
C684   C     0.42561   0.84620   0.11748   0.00000  Uiso   1.00
C685   C     0.42585   0.85862   0.38161   0.00000  Uiso   1.00
C686   C     0.57610   0.81079   0.12067   0.00000  Uiso   1.00
C687   C     0.36948   0.90759   0.03685   0.00000  Uiso   1.00
C688   C     0.34616   0.93170   0.07442   0.00000  Uiso   1.00
C689   C     0.63296   0.93213   0.06706   0.00000  Uiso   1.00
C690   C     0.63371   0.86459   0.45670   0.00000  Uiso   1.00
C691   C     0.62510   0.89216   0.41380   0.00000  Uiso   1.00
C692   C     0.57672   0.82278   0.47692   0.00000  Uiso   1.00
C693   C     0.64769   0.93814   0.41361   0.00000  Uiso   1.00
C694   C     0.44941   0.71720   0.18843   0.00000  Uiso   1.00
C695   C     0.55115   0.94929   0.31094   0.00000  Uiso   1.00
C696   C     0.54539   0.71377   0.31624   0.00000  Uiso   1.00
C697   C     0.45336   0.95241   0.18459   0.00000  Uiso   1.00
C698   C     0.35511   0.79240   0.25933   0.00000  Uiso   1.00
C699   C     0.64487   0.87428   0.24114   0.00000  Uiso   1.00
C700   C     0.64579   0.79213   0.25884   0.00000  Uiso   1.00
C701   C     0.35417   0.87458   0.24174   0.00000  Uiso   1.00
C702   C     0.62385   0.83309   0.24984   0.00000  Uiso   1.00
Cu703  Cu    0.50000   0.88022   0.25000   0.00000  Uiso   1.00
Cu704  Cu    0.50000   0.78645   0.25000   0.00000  Uiso   1.00
H705   H     0.41035   0.89363   0.45975   0.00000  Uiso   1.00
H706   H     0.58356   0.82921   0.15081   0.00000  Uiso   1.00
H707   H     0.35835   0.87143   0.03424   0.00000  Uiso   1.00
H708   H     0.36331   0.92689   0.00533   0.00000  Uiso   1.00
H709   H     0.35308   0.91379   0.10653   0.00000  Uiso   1.00
H710   H     0.35690   0.96795   0.07692   0.00000  Uiso   1.00
H711   H     0.62503   0.95052   0.03551   0.00000  Uiso   1.00
H712   H     0.61765   0.95041   0.09488   0.00000  Uiso   1.00
H713   H     0.62124   0.89627   0.06627   0.00000  Uiso   1.00
H714   H     0.33410   0.85831   0.45929   0.00000  Uiso   1.00
H715   H     0.62476   0.88563   0.48590   0.00000  Uiso   1.00
H716   H     0.60557   0.81576   0.03983   0.00000  Uiso   1.00
H717   H     0.63540   0.87175   0.38471   0.00000  Uiso   1.00
H718   H     0.59149   0.89924   0.41061   0.00000  Uiso   1.00
H719   H     0.63765   0.95946   0.44218   0.00000  Uiso   1.00
H720   H     0.64060   0.95741   0.38233   0.00000  Uiso   1.00
H721   H     0.34821   0.93218   0.41563   0.00000  Uiso   1.00
H722   H     0.46116   0.72960   0.15682   0.00000  Uiso   1.00
H723   H     0.53971   0.93622   0.34243   0.00000  Uiso   1.00
H724   H     0.56742   0.74025   0.30866   0.00000  Uiso   1.00
H725   H     0.42979   0.92806   0.19324   0.00000  Uiso   1.00
H726   H     0.37152   0.76045   0.26683   0.00000  Uiso   1.00
H727   H     0.62847   0.90621   0.23355   0.00000  Uiso   1.00
H728   H     0.63013   0.76000   0.26578   0.00000  Uiso   1.00
H729   H     0.36977   0.90675   0.23494   0.00000  Uiso   1.00
H730   H     0.58005   0.81894   0.34823   0.00000  Uiso   1.00
H731   H     0.42330   0.85899   0.15108   0.00000  Uiso   1.00
H732   H     0.42650   0.87563   0.34932   0.00000  Uiso   1.00
N733   N     0.50000   0.95069   0.25000   0.00000  Uiso   1.00
N734   N     0.50000   0.71598   0.25000   0.00000  Uiso   1.00
O735   O     0.43988   0.87291   0.25000   0.00000  Uiso   1.00
O736   O     0.39528   0.82866   0.10084   0.00000  Uiso   1.00
O737   O     0.39282   0.84514   0.39580   0.00000  Uiso   1.00
O738   O     0.59722   0.77738   0.11050   0.00000  Uiso   1.00
O739   O     0.41192   0.90879   0.04713   0.00000  Uiso   1.00
O740   O     0.61453   0.82087   0.45567   0.00000  Uiso   1.00
O741   O     0.41266   0.72100   0.19636   0.00000  Uiso   1.00
O742   O     0.58792   0.94628   0.30286   0.00000  Uiso   1.00
O743   O     0.53973   0.70274   0.35504   0.00000  Uiso   1.00
O744   O     0.45953   0.96098   0.14533   0.00000  Uiso   1.00
O745   O     0.56012   0.79375   0.25000   0.00000  Uiso   1.00
O746   O     0.56012   0.87291   0.25000   0.00000  Uiso   1.00
O747   O     0.43988   0.79375   0.24999   0.00000  Uiso   1.00
O748   O     0.49999   0.87293   0.18513   0.00000  Uiso   1.00
O749   O     0.50001   0.79373   0.31487   0.00000  Uiso   1.00
O750   O     0.50001   0.87293   0.31487   0.00000  Uiso   1.00
O751   O     0.49999   0.79373   0.18513   0.00000  Uiso   1.00
O752   O     0.59112   0.76879   0.39243   0.00000  Uiso   1.00
C753   C     0.75415   0.83349   0.25027   0.00000  Uiso   1.00
C754   C     0.70947   0.83359   0.25058   0.00000  Uiso   1.00
C755   C     0.81021   0.69209   0.21977   0.00000  Uiso   1.00
C756   C     0.85661   0.97449   0.28002   0.00000  Uiso   1.00
C757   C     0.85593   0.69052   0.28066   0.00000  Uiso   1.00
C758   C     0.81058   0.97601   0.21936   0.00000  Uiso   1.00
C759   C     0.83433   0.83358   0.16480   0.00000  Uiso   1.00
C760   C     0.83272   0.83326   0.33531   0.00000  Uiso   1.00
C761   C     0.87031   0.82199   0.40625   0.00000  Uiso   1.00
C762   C     0.79906   0.84668   0.09334   0.00000  Uiso   1.00
C763   C     0.83348   0.83402   0.38376   0.00000  Uiso   1.00
C764   C     0.91251   0.83318   0.24990   0.00000  Uiso   1.00
C765   C     0.83530   0.83475   0.11654   0.00000  Uiso   1.00
C766   C     0.79820   0.84946   0.40680   0.00000  Uiso   1.00
C767   C     0.87231   0.82454   0.09411   0.00000  Uiso   1.00
C768   C     0.79996   0.85344   0.45348   0.00000  Uiso   1.00
C769   C     0.87289   0.82689   0.04715   0.00000  Uiso   1.00
C770   C     0.83626   0.83962   0.47658   0.00000  Uiso   1.00
C771   C     0.83656   0.83961   0.02358   0.00000  Uiso   1.00
C772   C     0.87247   0.82699   0.45297   0.00000  Uiso   1.00
C773   C     0.80072   0.85332   0.04693   0.00000  Uiso   1.00
C774   C     0.76781   0.87497   0.47733   0.00000  Uiso   1.00
C775   C     0.76850   0.87637   0.02391   0.00000  Uiso   1.00
C776   C     0.90956   0.82055   0.02321   0.00000  Uiso   1.00
C777   C     0.90542   0.80321   0.37994   0.00000  Uiso   1.00
C778   C     0.75894   0.84620   0.11748   0.00000  Uiso   1.00
C779   C     0.75919   0.85862   0.38161   0.00000  Uiso   1.00
C780   C     0.90944   0.81079   0.12067   0.00000  Uiso   1.00
C781   C     0.70282   0.90759   0.03685   0.00000  Uiso   1.00
C782   C     0.67950   0.93170   0.07442   0.00000  Uiso   1.00
C783   C     0.96629   0.93213   0.06706   0.00000  Uiso   1.00
C784   C     0.96704   0.86459   0.45670   0.00000  Uiso   1.00
C785   C     0.95843   0.89216   0.41380   0.00000  Uiso   1.00
C786   C     0.91006   0.82278   0.47692   0.00000  Uiso   1.00
C787   C     0.98103   0.93814   0.41361   0.00000  Uiso   1.00
C788   C     0.78274   0.71720   0.18843   0.00000  Uiso   1.00
C789   C     0.88449   0.94929   0.31094   0.00000  Uiso   1.00
C790   C     0.87872   0.71377   0.31624   0.00000  Uiso   1.00
C791   C     0.78670   0.95241   0.18459   0.00000  Uiso   1.00
C792   C     0.68844   0.79240   0.25933   0.00000  Uiso   1.00
C793   C     0.97821   0.87428   0.24114   0.00000  Uiso   1.00
C794   C     0.97912   0.79213   0.25884   0.00000  Uiso   1.00
C795   C     0.68750   0.87458   0.24174   0.00000  Uiso   1.00
C796   C     0.95718   0.83309   0.24984   0.00000  Uiso   1.00
Cu797  Cu    0.83333   0.88022   0.25000   0.00000  Uiso   1.00
Cu798  Cu    0.83333   0.78645   0.25000   0.00000  Uiso   1.00
H799   H     0.74369   0.89363   0.45975   0.00000  Uiso   1.00
H800   H     0.91690   0.82921   0.15081   0.00000  Uiso   1.00
H801   H     0.69168   0.87143   0.03424   0.00000  Uiso   1.00
H802   H     0.69664   0.92689   0.00533   0.00000  Uiso   1.00
H803   H     0.68642   0.91379   0.10653   0.00000  Uiso   1.00
H804   H     0.69023   0.96795   0.07692   0.00000  Uiso   1.00
H805   H     0.95837   0.95052   0.03551   0.00000  Uiso   1.00
H806   H     0.95098   0.95041   0.09488   0.00000  Uiso   1.00
H807   H     0.95458   0.89627   0.06627   0.00000  Uiso   1.00
H808   H     0.66743   0.85831   0.45929   0.00000  Uiso   1.00
H809   H     0.95809   0.88563   0.48590   0.00000  Uiso   1.00
H810   H     0.93890   0.81576   0.03983   0.00000  Uiso   1.00
H811   H     0.96873   0.87175   0.38471   0.00000  Uiso   1.00
H812   H     0.92482   0.89924   0.41061   0.00000  Uiso   1.00
H813   H     0.97098   0.95946   0.44218   0.00000  Uiso   1.00
H814   H     0.97393   0.95741   0.38233   0.00000  Uiso   1.00
H815   H     0.68154   0.93218   0.41563   0.00000  Uiso   1.00
H816   H     0.79449   0.72960   0.15682   0.00000  Uiso   1.00
H817   H     0.87305   0.93622   0.34243   0.00000  Uiso   1.00
H818   H     0.90075   0.74025   0.30866   0.00000  Uiso   1.00
H819   H     0.76313   0.92806   0.19324   0.00000  Uiso   1.00
H820   H     0.70485   0.76045   0.26683   0.00000  Uiso   1.00
H821   H     0.96181   0.90621   0.23355   0.00000  Uiso   1.00
H822   H     0.96346   0.76000   0.26578   0.00000  Uiso   1.00
H823   H     0.70311   0.90675   0.23494   0.00000  Uiso   1.00
H824   H     0.91339   0.81894   0.34823   0.00000  Uiso   1.00
H825   H     0.75663   0.85899   0.15108   0.00000  Uiso   1.00
H826   H     0.75983   0.87563   0.34932   0.00000  Uiso   1.00
N827   N     0.83333   0.95069   0.25000   0.00000  Uiso   1.00
N828   N     0.83333   0.71598   0.25000   0.00000  Uiso   1.00
O829   O     0.77321   0.87291   0.25000   0.00000  Uiso   1.00
O830   O     0.72861   0.82866   0.10084   0.00000  Uiso   1.00
O831   O     0.72615   0.84514   0.39580   0.00000  Uiso   1.00
O832   O     0.93055   0.77738   0.11050   0.00000  Uiso   1.00
O833   O     0.74526   0.90879   0.04713   0.00000  Uiso   1.00
O834   O     0.94786   0.82087   0.45567   0.00000  Uiso   1.00
O835   O     0.74599   0.72100   0.19636   0.00000  Uiso   1.00
O836   O     0.92126   0.94628   0.30286   0.00000  Uiso   1.00
O837   O     0.87306   0.70274   0.35504   0.00000  Uiso   1.00
O838   O     0.79286   0.96098   0.14533   0.00000  Uiso   1.00
O839   O     0.89345   0.79375   0.25000   0.00000  Uiso   1.00
O840   O     0.89345   0.87291   0.25000   0.00000  Uiso   1.00
O841   O     0.77321   0.79375   0.24999   0.00000  Uiso   1.00
O842   O     0.83332   0.87293   0.18513   0.00000  Uiso   1.00
O843   O     0.83334   0.79373   0.31487   0.00000  Uiso   1.00
O844   O     0.83334   0.87293   0.31487   0.00000  Uiso   1.00
O845   O     0.83332   0.79373   0.18513   0.00000  Uiso   1.00
O846   O     0.92446   0.76879   0.39243   0.00000  Uiso   1.00
C847   C     0.08749   0.16682   0.75027   0.00000  Uiso   1.00
C848   C     0.04280   0.16692   0.75058   0.00000  Uiso   1.00
C849   C     0.14354   0.02542   0.71977   0.00000  Uiso   1.00
C850   C     0.18994   0.30782   0.78002   0.00000  Uiso   1.00
C851   C     0.18927   0.02386   0.78066   0.00000  Uiso   1.00
C852   C     0.14391   0.30934   0.71936   0.00000  Uiso   1.00
C853   C     0.16767   0.16692   0.66480   0.00000  Uiso   1.00
C854   C     0.16605   0.16659   0.83531   0.00000  Uiso   1.00
C855   C     0.20364   0.15533   0.90625   0.00000  Uiso   1.00
C856   C     0.13239   0.18002   0.59334   0.00000  Uiso   1.00
C857   C     0.16682   0.16735   0.88376   0.00000  Uiso   1.00
C858   C     0.24584   0.16651   0.74990   0.00000  Uiso   1.00
C859   C     0.16864   0.16809   0.61654   0.00000  Uiso   1.00
C860   C     0.13153   0.18279   0.90680   0.00000  Uiso   1.00
C861   C     0.20565   0.15787   0.59411   0.00000  Uiso   1.00
C862   C     0.13329   0.18677   0.95348   0.00000  Uiso   1.00
C863   C     0.20622   0.16022   0.54715   0.00000  Uiso   1.00
C864   C     0.16959   0.17295   0.97658   0.00000  Uiso   1.00
C865   C     0.16989   0.17294   0.52358   0.00000  Uiso   1.00
C866   C     0.20580   0.16033   0.95297   0.00000  Uiso   1.00
C867   C     0.13405   0.18666   0.54693   0.00000  Uiso   1.00
C868   C     0.10114   0.20830   0.97733   0.00000  Uiso   1.00
C869   C     0.10183   0.20970   0.52391   0.00000  Uiso   1.00
C870   C     0.24289   0.15388   0.52321   0.00000  Uiso   1.00
C871   C     0.23876   0.13655   0.87994   0.00000  Uiso   1.00
C872   C     0.09228   0.17953   0.61748   0.00000  Uiso   1.00
C873   C     0.09252   0.19195   0.88161   0.00000  Uiso   1.00
C874   C     0.24277   0.14412   0.62067   0.00000  Uiso   1.00
C875   C     0.03615   0.24092   0.53685   0.00000  Uiso   1.00
C876   C     0.01283   0.26504   0.57442   0.00000  Uiso   1.00
C877   C     0.29963   0.26547   0.56706   0.00000  Uiso   1.00
C878   C     0.30038   0.19793   0.95670   0.00000  Uiso   1.00
C879   C     0.29177   0.22549   0.91380   0.00000  Uiso   1.00
C880   C     0.24339   0.15612   0.97692   0.00000  Uiso   1.00
C881   C     0.31436   0.27148   0.91361   0.00000  Uiso   1.00
C882   C     0.11607   0.05053   0.68843   0.00000  Uiso   1.00
C883   C     0.21782   0.28262   0.81094   0.00000  Uiso   1.00
C884   C     0.21206   0.04710   0.81624   0.00000  Uiso   1.00
C885   C     0.12003   0.28575   0.68459   0.00000  Uiso   1.00
C886   C     0.02177   0.12574   0.75933   0.00000  Uiso   1.00
C887   C     0.31154   0.20761   0.74114   0.00000  Uiso   1.00
C888   C     0.31246   0.12546   0.75884   0.00000  Uiso   1.00
C889   C     0.02084   0.20791   0.74174   0.00000  Uiso   1.00
C890   C     0.29051   0.16642   0.74984   0.00000  Uiso   1.00
Cu891  Cu    0.16667   0.21355   0.75000   0.00000  Uiso   1.00
Cu892  Cu    0.16667   0.11978   0.75000   0.00000  Uiso   1.00
H893   H     0.07702   0.22696   0.95975   0.00000  Uiso   1.00
H894   H     0.25023   0.16254   0.65081   0.00000  Uiso   1.00
H895   H     0.02502   0.20476   0.53424   0.00000  Uiso   1.00
H896   H     0.02997   0.26022   0.50533   0.00000  Uiso   1.00
H897   H     0.01975   0.24713   0.60653   0.00000  Uiso   1.00
H898   H     0.02356   0.30128   0.57692   0.00000  Uiso   1.00
H899   H     0.29170   0.28385   0.53551   0.00000  Uiso   1.00
H900   H     0.28431   0.28374   0.59488   0.00000  Uiso   1.00
H901   H     0.28791   0.22960   0.56627   0.00000  Uiso   1.00
H902   H     0.00077   0.19164   0.95929   0.00000  Uiso   1.00
H903   H     0.29142   0.21896   0.98590   0.00000  Uiso   1.00
H904   H     0.27224   0.14910   0.53983   0.00000  Uiso   1.00
H905   H     0.30207   0.20509   0.88471   0.00000  Uiso   1.00
H906   H     0.25815   0.23258   0.91061   0.00000  Uiso   1.00
H907   H     0.30432   0.29280   0.94218   0.00000  Uiso   1.00
H908   H     0.30726   0.29075   0.88233   0.00000  Uiso   1.00
H909   H     0.01487   0.26552   0.91563   0.00000  Uiso   1.00
H910   H     0.12782   0.06293   0.65682   0.00000  Uiso   1.00
H911   H     0.20638   0.26956   0.84243   0.00000  Uiso   1.00
H912   H     0.23409   0.07358   0.80866   0.00000  Uiso   1.00
H913   H     0.09646   0.26139   0.69324   0.00000  Uiso   1.00
H914   H     0.03819   0.09379   0.76683   0.00000  Uiso   1.00
H915   H     0.29514   0.23954   0.73355   0.00000  Uiso   1.00
H916   H     0.29680   0.09333   0.76578   0.00000  Uiso   1.00
H917   H     0.03644   0.24008   0.73494   0.00000  Uiso   1.00
H918   H     0.24672   0.15227   0.84823   0.00000  Uiso   1.00
H919   H     0.08996   0.19232   0.65108   0.00000  Uiso   1.00
H920   H     0.09317   0.20896   0.84932   0.00000  Uiso   1.00
N921   N     0.16667   0.28402   0.75000   0.00000  Uiso   1.00
N922   N     0.16667   0.04931   0.75000   0.00000  Uiso   1.00
O923   O     0.10655   0.20625   0.75000   0.00000  Uiso   1.00
O924   O     0.06195   0.16199   0.60084   0.00000  Uiso   1.00
O925   O     0.05948   0.17848   0.89580   0.00000  Uiso   1.00
O926   O     0.26388   0.11071   0.61050   0.00000  Uiso   1.00
O927   O     0.07859   0.24213   0.54713   0.00000  Uiso   1.00
O928   O     0.28120   0.15420   0.95567   0.00000  Uiso   1.00
O929   O     0.07932   0.05433   0.69636   0.00000  Uiso   1.00
O930   O     0.25459   0.27961   0.80286   0.00000  Uiso   1.00
O931   O     0.20640   0.03608   0.85504   0.00000  Uiso   1.00
O932   O     0.12619   0.29431   0.64533   0.00000  Uiso   1.00
O933   O     0.22679   0.12709   0.75000   0.00000  Uiso   1.00
O934   O     0.22679   0.20625   0.75000   0.00000  Uiso   1.00
O935   O     0.10655   0.12709   0.74999   0.00000  Uiso   1.00
O936   O     0.16666   0.20627   0.68513   0.00000  Uiso   1.00
O937   O     0.16668   0.12707   0.81487   0.00000  Uiso   1.00
O938   O     0.16668   0.20627   0.81487   0.00000  Uiso   1.00
O939   O     0.16666   0.12707   0.68513   0.00000  Uiso   1.00
O940   O     0.25779   0.10212   0.89243   0.00000  Uiso   1.00
C941   C     0.42082   0.16682   0.75027   0.00000  Uiso   1.00
C942   C     0.37613   0.16692   0.75058   0.00000  Uiso   1.00
C943   C     0.47687   0.02542   0.71977   0.00000  Uiso   1.00
C944   C     0.52328   0.30782   0.78002   0.00000  Uiso   1.00
C945   C     0.52260   0.02386   0.78066   0.00000  Uiso   1.00
C946   C     0.47725   0.30934   0.71936   0.00000  Uiso   1.00
C947   C     0.50100   0.16692   0.66480   0.00000  Uiso   1.00
C948   C     0.49938   0.16659   0.83531   0.00000  Uiso   1.00
C949   C     0.53698   0.15533   0.90625   0.00000  Uiso   1.00
C950   C     0.46572   0.18002   0.59334   0.00000  Uiso   1.00
C951   C     0.50015   0.16735   0.88376   0.00000  Uiso   1.00
C952   C     0.57917   0.16651   0.74990   0.00000  Uiso   1.00
C953   C     0.50197   0.16809   0.61654   0.00000  Uiso   1.00
C954   C     0.46487   0.18279   0.90680   0.00000  Uiso   1.00
C955   C     0.53898   0.15787   0.59411   0.00000  Uiso   1.00
C956   C     0.46662   0.18677   0.95348   0.00000  Uiso   1.00
C957   C     0.53956   0.16022   0.54715   0.00000  Uiso   1.00
C958   C     0.50292   0.17295   0.97658   0.00000  Uiso   1.00
C959   C     0.50322   0.17294   0.52358   0.00000  Uiso   1.00
C960   C     0.53913   0.16033   0.95297   0.00000  Uiso   1.00
C961   C     0.46738   0.18666   0.54693   0.00000  Uiso   1.00
C962   C     0.43448   0.20830   0.97733   0.00000  Uiso   1.00
C963   C     0.43517   0.20970   0.52391   0.00000  Uiso   1.00
C964   C     0.57623   0.15388   0.52321   0.00000  Uiso   1.00
C965   C     0.57209   0.13655   0.87994   0.00000  Uiso   1.00
C966   C     0.42561   0.17953   0.61748   0.00000  Uiso   1.00
C967   C     0.42585   0.19195   0.88161   0.00000  Uiso   1.00
C968   C     0.57610   0.14412   0.62067   0.00000  Uiso   1.00
C969   C     0.36948   0.24092   0.53685   0.00000  Uiso   1.00
C970   C     0.34616   0.26504   0.57442   0.00000  Uiso   1.00
C971   C     0.63296   0.26547   0.56706   0.00000  Uiso   1.00
C972   C     0.63371   0.19793   0.95670   0.00000  Uiso   1.00
C973   C     0.62510   0.22549   0.91380   0.00000  Uiso   1.00
C974   C     0.57672   0.15612   0.97692   0.00000  Uiso   1.00
C975   C     0.64769   0.27148   0.91361   0.00000  Uiso   1.00
C976   C     0.44941   0.05053   0.68843   0.00000  Uiso   1.00
C977   C     0.55115   0.28262   0.81094   0.00000  Uiso   1.00
C978   C     0.54539   0.04710   0.81624   0.00000  Uiso   1.00
C979   C     0.45336   0.28575   0.68459   0.00000  Uiso   1.00
C980   C     0.35511   0.12574   0.75933   0.00000  Uiso   1.00
C981   C     0.64487   0.20761   0.74114   0.00000  Uiso   1.00
C982   C     0.64579   0.12546   0.75884   0.00000  Uiso   1.00
C983   C     0.35417   0.20791   0.74174   0.00000  Uiso   1.00
C984   C     0.62385   0.16642   0.74984   0.00000  Uiso   1.00
Cu985  Cu    0.50000   0.21355   0.75000   0.00000  Uiso   1.00
Cu986  Cu    0.50000   0.11978   0.75000   0.00000  Uiso   1.00
H987   H     0.41035   0.22696   0.95975   0.00000  Uiso   1.00
H988   H     0.58356   0.16254   0.65081   0.00000  Uiso   1.00
H989   H     0.35835   0.20476   0.53424   0.00000  Uiso   1.00
H990   H     0.36331   0.26022   0.50533   0.00000  Uiso   1.00
H991   H     0.35308   0.24713   0.60653   0.00000  Uiso   1.00
H992   H     0.35690   0.30128   0.57692   0.00000  Uiso   1.00
H993   H     0.62503   0.28385   0.53551   0.00000  Uiso   1.00
H994   H     0.61765   0.28374   0.59488   0.00000  Uiso   1.00
H995   H     0.62124   0.22960   0.56627   0.00000  Uiso   1.00
H996   H     0.33410   0.19164   0.95929   0.00000  Uiso   1.00
H997   H     0.62476   0.21896   0.98590   0.00000  Uiso   1.00
H998   H     0.60557   0.14910   0.53983   0.00000  Uiso   1.00
H999   H     0.63540   0.20509   0.88471   0.00000  Uiso   1.00
H1000  H     0.59149   0.23258   0.91061   0.00000  Uiso   1.00
H1001  H     0.63765   0.29280   0.94218   0.00000  Uiso   1.00
H1002  H     0.64060   0.29075   0.88233   0.00000  Uiso   1.00
H1003  H     0.34821   0.26552   0.91563   0.00000  Uiso   1.00
H1004  H     0.46116   0.06293   0.65682   0.00000  Uiso   1.00
H1005  H     0.53971   0.26956   0.84243   0.00000  Uiso   1.00
H1006  H     0.56742   0.07358   0.80866   0.00000  Uiso   1.00
H1007  H     0.42979   0.26139   0.69324   0.00000  Uiso   1.00
H1008  H     0.37152   0.09379   0.76683   0.00000  Uiso   1.00
H1009  H     0.62847   0.23954   0.73355   0.00000  Uiso   1.00
H1010  H     0.63013   0.09333   0.76578   0.00000  Uiso   1.00
H1011  H     0.36977   0.24008   0.73494   0.00000  Uiso   1.00
H1012  H     0.58005   0.15227   0.84823   0.00000  Uiso   1.00
H1013  H     0.42330   0.19232   0.65108   0.00000  Uiso   1.00
H1014  H     0.42650   0.20896   0.84932   0.00000  Uiso   1.00
N1015  N     0.50000   0.28402   0.75000   0.00000  Uiso   1.00
N1016  N     0.50000   0.04931   0.75000   0.00000  Uiso   1.00
O1017  O     0.43988   0.20625   0.75000   0.00000  Uiso   1.00
O1018  O     0.39528   0.16199   0.60084   0.00000  Uiso   1.00
O1019  O     0.39282   0.17848   0.89580   0.00000  Uiso   1.00
O1020  O     0.59722   0.11071   0.61050   0.00000  Uiso   1.00
O1021  O     0.41192   0.24213   0.54713   0.00000  Uiso   1.00
O1022  O     0.61453   0.15420   0.95567   0.00000  Uiso   1.00
O1023  O     0.41266   0.05433   0.69636   0.00000  Uiso   1.00
O1024  O     0.58792   0.27961   0.80286   0.00000  Uiso   1.00
O1025  O     0.53973   0.03608   0.85504   0.00000  Uiso   1.00
O1026  O     0.45953   0.29431   0.64533   0.00000  Uiso   1.00
O1027  O     0.56012   0.12709   0.75000   0.00000  Uiso   1.00
O1028  O     0.56012   0.20625   0.75000   0.00000  Uiso   1.00
O1029  O     0.43988   0.12709   0.74999   0.00000  Uiso   1.00
O1030  O     0.49999   0.20627   0.68513   0.00000  Uiso   1.00
O1031  O     0.50001   0.12707   0.81487   0.00000  Uiso   1.00
O1032  O     0.50001   0.20627   0.81487   0.00000  Uiso   1.00
O1033  O     0.49999   0.12707   0.68513   0.00000  Uiso   1.00
O1034  O     0.59112   0.10212   0.89243   0.00000  Uiso   1.00
C1035  C     0.75415   0.16682   0.75027   0.00000  Uiso   1.00
C1036  C     0.70947   0.16692   0.75058   0.00000  Uiso   1.00
C1037  C     0.81021   0.02542   0.71977   0.00000  Uiso   1.00
C1038  C     0.85661   0.30782   0.78002   0.00000  Uiso   1.00
C1039  C     0.85593   0.02386   0.78066   0.00000  Uiso   1.00
C1040  C     0.81058   0.30934   0.71936   0.00000  Uiso   1.00
C1041  C     0.83433   0.16692   0.66480   0.00000  Uiso   1.00
C1042  C     0.83272   0.16659   0.83531   0.00000  Uiso   1.00
C1043  C     0.87031   0.15533   0.90625   0.00000  Uiso   1.00
C1044  C     0.79906   0.18002   0.59334   0.00000  Uiso   1.00
C1045  C     0.83348   0.16735   0.88376   0.00000  Uiso   1.00
C1046  C     0.91251   0.16651   0.74990   0.00000  Uiso   1.00
C1047  C     0.83530   0.16809   0.61654   0.00000  Uiso   1.00
C1048  C     0.79820   0.18279   0.90680   0.00000  Uiso   1.00
C1049  C     0.87231   0.15787   0.59411   0.00000  Uiso   1.00
C1050  C     0.79996   0.18677   0.95348   0.00000  Uiso   1.00
C1051  C     0.87289   0.16022   0.54715   0.00000  Uiso   1.00
C1052  C     0.83626   0.17295   0.97658   0.00000  Uiso   1.00
C1053  C     0.83656   0.17294   0.52358   0.00000  Uiso   1.00
C1054  C     0.87247   0.16033   0.95297   0.00000  Uiso   1.00
C1055  C     0.80072   0.18666   0.54693   0.00000  Uiso   1.00
C1056  C     0.76781   0.20830   0.97733   0.00000  Uiso   1.00
C1057  C     0.76850   0.20970   0.52391   0.00000  Uiso   1.00
C1058  C     0.90956   0.15388   0.52321   0.00000  Uiso   1.00
C1059  C     0.90542   0.13655   0.87994   0.00000  Uiso   1.00
C1060  C     0.75894   0.17953   0.61748   0.00000  Uiso   1.00
C1061  C     0.75919   0.19195   0.88161   0.00000  Uiso   1.00
C1062  C     0.90944   0.14412   0.62067   0.00000  Uiso   1.00
C1063  C     0.70282   0.24092   0.53685   0.00000  Uiso   1.00
C1064  C     0.67950   0.26504   0.57442   0.00000  Uiso   1.00
C1065  C     0.96629   0.26547   0.56706   0.00000  Uiso   1.00
C1066  C     0.96704   0.19793   0.95670   0.00000  Uiso   1.00
C1067  C     0.95843   0.22549   0.91380   0.00000  Uiso   1.00
C1068  C     0.91006   0.15612   0.97692   0.00000  Uiso   1.00
C1069  C     0.98103   0.27148   0.91361   0.00000  Uiso   1.00
C1070  C     0.78274   0.05053   0.68843   0.00000  Uiso   1.00
C1071  C     0.88449   0.28262   0.81094   0.00000  Uiso   1.00
C1072  C     0.87872   0.04710   0.81624   0.00000  Uiso   1.00
C1073  C     0.78670   0.28575   0.68459   0.00000  Uiso   1.00
C1074  C     0.68844   0.12574   0.75933   0.00000  Uiso   1.00
C1075  C     0.97821   0.20761   0.74114   0.00000  Uiso   1.00
C1076  C     0.97912   0.12546   0.75884   0.00000  Uiso   1.00
C1077  C     0.68750   0.20791   0.74174   0.00000  Uiso   1.00
C1078  C     0.95718   0.16642   0.74984   0.00000  Uiso   1.00
Cu1079 Cu    0.83333   0.21355   0.75000   0.00000  Uiso   1.00
Cu1080 Cu    0.83333   0.11978   0.75000   0.00000  Uiso   1.00
H1081  H     0.74369   0.22696   0.95975   0.00000  Uiso   1.00
H1082  H     0.91690   0.16254   0.65081   0.00000  Uiso   1.00
H1083  H     0.69168   0.20476   0.53424   0.00000  Uiso   1.00
H1084  H     0.69664   0.26022   0.50533   0.00000  Uiso   1.00
H1085  H     0.68642   0.24713   0.60653   0.00000  Uiso   1.00
H1086  H     0.69023   0.30128   0.57692   0.00000  Uiso   1.00
H1087  H     0.95837   0.28385   0.53551   0.00000  Uiso   1.00
H1088  H     0.95098   0.28374   0.59488   0.00000  Uiso   1.00
H1089  H     0.95458   0.22960   0.56627   0.00000  Uiso   1.00
H1090  H     0.66743   0.19164   0.95929   0.00000  Uiso   1.00
H1091  H     0.95809   0.21896   0.98590   0.00000  Uiso   1.00
H1092  H     0.93890   0.14910   0.53983   0.00000  Uiso   1.00
H1093  H     0.96873   0.20509   0.88471   0.00000  Uiso   1.00
H1094  H     0.92482   0.23258   0.91061   0.00000  Uiso   1.00
H1095  H     0.97098   0.29280   0.94218   0.00000  Uiso   1.00
H1096  H     0.97393   0.29075   0.88233   0.00000  Uiso   1.00
H1097  H     0.68154   0.26552   0.91563   0.00000  Uiso   1.00
H1098  H     0.79449   0.06293   0.65682   0.00000  Uiso   1.00
H1099  H     0.87305   0.26956   0.84243   0.00000  Uiso   1.00
H1100  H     0.90075   0.07358   0.80866   0.00000  Uiso   1.00
H1101  H     0.76313   0.26139   0.69324   0.00000  Uiso   1.00
H1102  H     0.70485   0.09379   0.76683   0.00000  Uiso   1.00
H1103  H     0.96181   0.23954   0.73355   0.00000  Uiso   1.00
H1104  H     0.96346   0.09333   0.76578   0.00000  Uiso   1.00
H1105  H     0.70311   0.24008   0.73494   0.00000  Uiso   1.00
H1106  H     0.91339   0.15227   0.84823   0.00000  Uiso   1.00
H1107  H     0.75663   0.19232   0.65108   0.00000  Uiso   1.00
H1108  H     0.75983   0.20896   0.84932   0.00000  Uiso   1.00
N1109  N     0.83333   0.28402   0.75000   0.00000  Uiso   1.00
N1110  N     0.83333   0.04931   0.75000   0.00000  Uiso   1.00
O1111  O     0.77321   0.20625   0.75000   0.00000  Uiso   1.00
O1112  O     0.72861   0.16199   0.60084   0.00000  Uiso   1.00
O1113  O     0.72615   0.17848   0.89580   0.00000  Uiso   1.00
O1114  O     0.93055   0.11071   0.61050   0.00000  Uiso   1.00
O1115  O     0.74526   0.24213   0.54713   0.00000  Uiso   1.00
O1116  O     0.94786   0.15420   0.95567   0.00000  Uiso   1.00
O1117  O     0.74599   0.05433   0.69636   0.00000  Uiso   1.00
O1118  O     0.92126   0.27961   0.80286   0.00000  Uiso   1.00
O1119  O     0.87306   0.03608   0.85504   0.00000  Uiso   1.00
O1120  O     0.79286   0.29431   0.64533   0.00000  Uiso   1.00
O1121  O     0.89345   0.12709   0.75000   0.00000  Uiso   1.00
O1122  O     0.89345   0.20625   0.75000   0.00000  Uiso   1.00
O1123  O     0.77321   0.12709   0.74999   0.00000  Uiso   1.00
O1124  O     0.83332   0.20627   0.68513   0.00000  Uiso   1.00
O1125  O     0.83334   0.12707   0.81487   0.00000  Uiso   1.00
O1126  O     0.83334   0.20627   0.81487   0.00000  Uiso   1.00
O1127  O     0.83332   0.12707   0.68513   0.00000  Uiso   1.00
O1128  O     0.92446   0.10212   0.89243   0.00000  Uiso   1.00
C1129  C     0.08749   0.50016   0.75027   0.00000  Uiso   1.00
C1130  C     0.04280   0.50026   0.75058   0.00000  Uiso   1.00
C1131  C     0.14354   0.35876   0.71977   0.00000  Uiso   1.00
C1132  C     0.18994   0.64116   0.78002   0.00000  Uiso   1.00
C1133  C     0.18927   0.35719   0.78066   0.00000  Uiso   1.00
C1134  C     0.14391   0.64267   0.71936   0.00000  Uiso   1.00
C1135  C     0.16767   0.50025   0.66480   0.00000  Uiso   1.00
C1136  C     0.16605   0.49993   0.83531   0.00000  Uiso   1.00
C1137  C     0.20364   0.48866   0.90625   0.00000  Uiso   1.00
C1138  C     0.13239   0.51335   0.59334   0.00000  Uiso   1.00
C1139  C     0.16682   0.50068   0.88376   0.00000  Uiso   1.00
C1140  C     0.24584   0.49984   0.74990   0.00000  Uiso   1.00
C1141  C     0.16864   0.50142   0.61654   0.00000  Uiso   1.00
C1142  C     0.13153   0.51613   0.90680   0.00000  Uiso   1.00
C1143  C     0.20565   0.49120   0.59411   0.00000  Uiso   1.00
C1144  C     0.13329   0.52010   0.95348   0.00000  Uiso   1.00
C1145  C     0.20622   0.49356   0.54715   0.00000  Uiso   1.00
C1146  C     0.16959   0.50628   0.97658   0.00000  Uiso   1.00
C1147  C     0.16989   0.50628   0.52358   0.00000  Uiso   1.00
C1148  C     0.20580   0.49366   0.95297   0.00000  Uiso   1.00
C1149  C     0.13405   0.51999   0.54693   0.00000  Uiso   1.00
C1150  C     0.10114   0.54164   0.97733   0.00000  Uiso   1.00
C1151  C     0.10183   0.54303   0.52391   0.00000  Uiso   1.00
C1152  C     0.24289   0.48721   0.52321   0.00000  Uiso   1.00
C1153  C     0.23876   0.46988   0.87994   0.00000  Uiso   1.00
C1154  C     0.09228   0.51286   0.61748   0.00000  Uiso   1.00
C1155  C     0.09252   0.52528   0.88161   0.00000  Uiso   1.00
C1156  C     0.24277   0.47746   0.62067   0.00000  Uiso   1.00
C1157  C     0.03615   0.57426   0.53685   0.00000  Uiso   1.00
C1158  C     0.01283   0.59837   0.57442   0.00000  Uiso   1.00
C1159  C     0.29963   0.59880   0.56706   0.00000  Uiso   1.00
C1160  C     0.30038   0.53126   0.95670   0.00000  Uiso   1.00
C1161  C     0.29177   0.55883   0.91380   0.00000  Uiso   1.00
C1162  C     0.24339   0.48945   0.97692   0.00000  Uiso   1.00
C1163  C     0.31436   0.60481   0.91361   0.00000  Uiso   1.00
C1164  C     0.11607   0.38387   0.68843   0.00000  Uiso   1.00
C1165  C     0.21782   0.61595   0.81094   0.00000  Uiso   1.00
C1166  C     0.21206   0.38044   0.81624   0.00000  Uiso   1.00
C1167  C     0.12003   0.61908   0.68459   0.00000  Uiso   1.00
C1168  C     0.02177   0.45907   0.75933   0.00000  Uiso   1.00
C1169  C     0.31154   0.54094   0.74114   0.00000  Uiso   1.00
C1170  C     0.31246   0.45879   0.75884   0.00000  Uiso   1.00
C1171  C     0.02084   0.54124   0.74174   0.00000  Uiso   1.00
C1172  C     0.29051   0.49976   0.74984   0.00000  Uiso   1.00
Cu1173 Cu    0.16667   0.54689   0.75000   0.00000  Uiso   1.00
Cu1174 Cu    0.16667   0.45311   0.75000   0.00000  Uiso   1.00
H1175  H     0.07702   0.56029   0.95975   0.00000  Uiso   1.00
H1176  H     0.25023   0.49587   0.65081   0.00000  Uiso   1.00
H1177  H     0.02502   0.53810   0.53424   0.00000  Uiso   1.00
H1178  H     0.02997   0.59356   0.50533   0.00000  Uiso   1.00
H1179  H     0.01975   0.58046   0.60653   0.00000  Uiso   1.00
H1180  H     0.02356   0.63462   0.57692   0.00000  Uiso   1.00
H1181  H     0.29170   0.61718   0.53551   0.00000  Uiso   1.00
H1182  H     0.28431   0.61708   0.59488   0.00000  Uiso   1.00
H1183  H     0.28791   0.56294   0.56627   0.00000  Uiso   1.00
H1184  H     0.00077   0.52497   0.95929   0.00000  Uiso   1.00
H1185  H     0.29142   0.55230   0.98590   0.00000  Uiso   1.00
H1186  H     0.27224   0.48243   0.53983   0.00000  Uiso   1.00
H1187  H     0.30207   0.53842   0.88471   0.00000  Uiso   1.00
H1188  H     0.25815   0.56591   0.91061   0.00000  Uiso   1.00
H1189  H     0.30432   0.62613   0.94218   0.00000  Uiso   1.00
H1190  H     0.30726   0.62408   0.88233   0.00000  Uiso   1.00
H1191  H     0.01487   0.59885   0.91563   0.00000  Uiso   1.00
H1192  H     0.12782   0.39627   0.65682   0.00000  Uiso   1.00
H1193  H     0.20638   0.60289   0.84243   0.00000  Uiso   1.00
H1194  H     0.23409   0.40692   0.80866   0.00000  Uiso   1.00
H1195  H     0.09646   0.59472   0.69324   0.00000  Uiso   1.00
H1196  H     0.03819   0.42712   0.76683   0.00000  Uiso   1.00
H1197  H     0.29514   0.57288   0.73355   0.00000  Uiso   1.00
H1198  H     0.29680   0.42667   0.76578   0.00000  Uiso   1.00
H1199  H     0.03644   0.57341   0.73494   0.00000  Uiso   1.00
H1200  H     0.24672   0.48561   0.84823   0.00000  Uiso   1.00
H1201  H     0.08996   0.52565   0.65108   0.00000  Uiso   1.00
H1202  H     0.09317   0.54229   0.84932   0.00000  Uiso   1.00
N1203  N     0.16667   0.61736   0.75000   0.00000  Uiso   1.00
N1204  N     0.16667   0.38264   0.75000   0.00000  Uiso   1.00
O1205  O     0.10655   0.53958   0.75000   0.00000  Uiso   1.00
O1206  O     0.06195   0.49532   0.60084   0.00000  Uiso   1.00
O1207  O     0.05948   0.51181   0.89580   0.00000  Uiso   1.00
O1208  O     0.26388   0.44405   0.61050   0.00000  Uiso   1.00
O1209  O     0.07859   0.57546   0.54713   0.00000  Uiso   1.00
O1210  O     0.28120   0.48753   0.95567   0.00000  Uiso   1.00
O1211  O     0.07932   0.38766   0.69636   0.00000  Uiso   1.00
O1212  O     0.25459   0.61295   0.80286   0.00000  Uiso   1.00
O1213  O     0.20640   0.36941   0.85504   0.00000  Uiso   1.00
O1214  O     0.12619   0.62764   0.64533   0.00000  Uiso   1.00
O1215  O     0.22679   0.46042   0.75000   0.00000  Uiso   1.00
O1216  O     0.22679   0.53958   0.75000   0.00000  Uiso   1.00
O1217  O     0.10655   0.46042   0.74999   0.00000  Uiso   1.00
O1218  O     0.16666   0.53960   0.68513   0.00000  Uiso   1.00
O1219  O     0.16668   0.46040   0.81487   0.00000  Uiso   1.00
O1220  O     0.16668   0.53960   0.81487   0.00000  Uiso   1.00
O1221  O     0.16666   0.46040   0.68513   0.00000  Uiso   1.00
O1222  O     0.25779   0.43545   0.89243   0.00000  Uiso   1.00
C1223  C     0.42082   0.50016   0.75027   0.00000  Uiso   1.00
C1224  C     0.37613   0.50026   0.75058   0.00000  Uiso   1.00
C1225  C     0.47687   0.35876   0.71977   0.00000  Uiso   1.00
C1226  C     0.52328   0.64116   0.78002   0.00000  Uiso   1.00
C1227  C     0.52260   0.35719   0.78066   0.00000  Uiso   1.00
C1228  C     0.47725   0.64267   0.71936   0.00000  Uiso   1.00
C1229  C     0.50100   0.50025   0.66480   0.00000  Uiso   1.00
C1230  C     0.49938   0.49993   0.83531   0.00000  Uiso   1.00
C1231  C     0.53698   0.48866   0.90625   0.00000  Uiso   1.00
C1232  C     0.46572   0.51335   0.59334   0.00000  Uiso   1.00
C1233  C     0.50015   0.50068   0.88376   0.00000  Uiso   1.00
C1234  C     0.57917   0.49984   0.74990   0.00000  Uiso   1.00
C1235  C     0.50197   0.50142   0.61654   0.00000  Uiso   1.00
C1236  C     0.46487   0.51613   0.90680   0.00000  Uiso   1.00
C1237  C     0.53898   0.49120   0.59411   0.00000  Uiso   1.00
C1238  C     0.46662   0.52010   0.95348   0.00000  Uiso   1.00
C1239  C     0.53956   0.49356   0.54715   0.00000  Uiso   1.00
C1240  C     0.50292   0.50628   0.97658   0.00000  Uiso   1.00
C1241  C     0.50322   0.50628   0.52358   0.00000  Uiso   1.00
C1242  C     0.53913   0.49366   0.95297   0.00000  Uiso   1.00
C1243  C     0.46738   0.51999   0.54693   0.00000  Uiso   1.00
C1244  C     0.43448   0.54164   0.97733   0.00000  Uiso   1.00
C1245  C     0.43517   0.54303   0.52391   0.00000  Uiso   1.00
C1246  C     0.57623   0.48721   0.52321   0.00000  Uiso   1.00
C1247  C     0.57209   0.46988   0.87994   0.00000  Uiso   1.00
C1248  C     0.42561   0.51286   0.61748   0.00000  Uiso   1.00
C1249  C     0.42585   0.52528   0.88161   0.00000  Uiso   1.00
C1250  C     0.57610   0.47746   0.62067   0.00000  Uiso   1.00
C1251  C     0.36948   0.57426   0.53685   0.00000  Uiso   1.00
C1252  C     0.34616   0.59837   0.57442   0.00000  Uiso   1.00
C1253  C     0.63296   0.59880   0.56706   0.00000  Uiso   1.00
C1254  C     0.63371   0.53126   0.95670   0.00000  Uiso   1.00
C1255  C     0.62510   0.55883   0.91380   0.00000  Uiso   1.00
C1256  C     0.57672   0.48945   0.97692   0.00000  Uiso   1.00
C1257  C     0.64769   0.60481   0.91361   0.00000  Uiso   1.00
C1258  C     0.44941   0.38387   0.68843   0.00000  Uiso   1.00
C1259  C     0.55115   0.61595   0.81094   0.00000  Uiso   1.00
C1260  C     0.54539   0.38044   0.81624   0.00000  Uiso   1.00
C1261  C     0.45336   0.61908   0.68459   0.00000  Uiso   1.00
C1262  C     0.35511   0.45907   0.75933   0.00000  Uiso   1.00
C1263  C     0.64487   0.54094   0.74114   0.00000  Uiso   1.00
C1264  C     0.64579   0.45879   0.75884   0.00000  Uiso   1.00
C1265  C     0.35417   0.54124   0.74174   0.00000  Uiso   1.00
C1266  C     0.62385   0.49976   0.74984   0.00000  Uiso   1.00
Cu1267 Cu    0.50000   0.54689   0.75000   0.00000  Uiso   1.00
Cu1268 Cu    0.50000   0.45311   0.75000   0.00000  Uiso   1.00
H1269  H     0.41035   0.56029   0.95975   0.00000  Uiso   1.00
H1270  H     0.58356   0.49587   0.65081   0.00000  Uiso   1.00
H1271  H     0.35835   0.53810   0.53424   0.00000  Uiso   1.00
H1272  H     0.36331   0.59356   0.50533   0.00000  Uiso   1.00
H1273  H     0.35308   0.58046   0.60653   0.00000  Uiso   1.00
H1274  H     0.35690   0.63462   0.57692   0.00000  Uiso   1.00
H1275  H     0.62503   0.61718   0.53551   0.00000  Uiso   1.00
H1276  H     0.61765   0.61708   0.59488   0.00000  Uiso   1.00
H1277  H     0.62124   0.56294   0.56627   0.00000  Uiso   1.00
H1278  H     0.33410   0.52497   0.95929   0.00000  Uiso   1.00
H1279  H     0.62476   0.55230   0.98590   0.00000  Uiso   1.00
H1280  H     0.60557   0.48243   0.53983   0.00000  Uiso   1.00
H1281  H     0.63540   0.53842   0.88471   0.00000  Uiso   1.00
H1282  H     0.59149   0.56591   0.91061   0.00000  Uiso   1.00
H1283  H     0.63765   0.62613   0.94218   0.00000  Uiso   1.00
H1284  H     0.64060   0.62408   0.88233   0.00000  Uiso   1.00
H1285  H     0.34821   0.59885   0.91563   0.00000  Uiso   1.00
H1286  H     0.46116   0.39627   0.65682   0.00000  Uiso   1.00
H1287  H     0.53971   0.60289   0.84243   0.00000  Uiso   1.00
H1288  H     0.56742   0.40692   0.80866   0.00000  Uiso   1.00
H1289  H     0.42979   0.59472   0.69324   0.00000  Uiso   1.00
H1290  H     0.37152   0.42712   0.76683   0.00000  Uiso   1.00
H1291  H     0.62847   0.57288   0.73355   0.00000  Uiso   1.00
H1292  H     0.63013   0.42667   0.76578   0.00000  Uiso   1.00
H1293  H     0.36977   0.57341   0.73494   0.00000  Uiso   1.00
H1294  H     0.58005   0.48561   0.84823   0.00000  Uiso   1.00
H1295  H     0.42330   0.52565   0.65108   0.00000  Uiso   1.00
H1296  H     0.42650   0.54229   0.84932   0.00000  Uiso   1.00
N1297  N     0.50000   0.61736   0.75000   0.00000  Uiso   1.00
N1298  N     0.50000   0.38264   0.75000   0.00000  Uiso   1.00
O1299  O     0.43988   0.53958   0.75000   0.00000  Uiso   1.00
O1300  O     0.39528   0.49532   0.60084   0.00000  Uiso   1.00
O1301  O     0.39282   0.51181   0.89580   0.00000  Uiso   1.00
O1302  O     0.59722   0.44405   0.61050   0.00000  Uiso   1.00
O1303  O     0.41192   0.57546   0.54713   0.00000  Uiso   1.00
O1304  O     0.61453   0.48753   0.95567   0.00000  Uiso   1.00
O1305  O     0.41266   0.38766   0.69636   0.00000  Uiso   1.00
O1306  O     0.58792   0.61295   0.80286   0.00000  Uiso   1.00
O1307  O     0.53973   0.36941   0.85504   0.00000  Uiso   1.00
O1308  O     0.45953   0.62764   0.64533   0.00000  Uiso   1.00
O1309  O     0.56012   0.46042   0.75000   0.00000  Uiso   1.00
O1310  O     0.56012   0.53958   0.75000   0.00000  Uiso   1.00
O1311  O     0.43988   0.46042   0.74999   0.00000  Uiso   1.00
O1312  O     0.49999   0.53960   0.68513   0.00000  Uiso   1.00
O1313  O     0.50001   0.46040   0.81487   0.00000  Uiso   1.00
O1314  O     0.50001   0.53960   0.81487   0.00000  Uiso   1.00
O1315  O     0.49999   0.46040   0.68513   0.00000  Uiso   1.00
O1316  O     0.59112   0.43545   0.89243   0.00000  Uiso   1.00
C1317  C     0.75415   0.50016   0.75027   0.00000  Uiso   1.00
C1318  C     0.70947   0.50026   0.75058   0.00000  Uiso   1.00
C1319  C     0.81021   0.35876   0.71977   0.00000  Uiso   1.00
C1320  C     0.85661   0.64116   0.78002   0.00000  Uiso   1.00
C1321  C     0.85593   0.35719   0.78066   0.00000  Uiso   1.00
C1322  C     0.81058   0.64267   0.71936   0.00000  Uiso   1.00
C1323  C     0.83433   0.50025   0.66480   0.00000  Uiso   1.00
C1324  C     0.83272   0.49993   0.83531   0.00000  Uiso   1.00
C1325  C     0.87031   0.48866   0.90625   0.00000  Uiso   1.00
C1326  C     0.79906   0.51335   0.59334   0.00000  Uiso   1.00
C1327  C     0.83348   0.50068   0.88376   0.00000  Uiso   1.00
C1328  C     0.91251   0.49984   0.74990   0.00000  Uiso   1.00
C1329  C     0.83530   0.50142   0.61654   0.00000  Uiso   1.00
C1330  C     0.79820   0.51613   0.90680   0.00000  Uiso   1.00
C1331  C     0.87231   0.49120   0.59411   0.00000  Uiso   1.00
C1332  C     0.79996   0.52010   0.95348   0.00000  Uiso   1.00
C1333  C     0.87289   0.49356   0.54715   0.00000  Uiso   1.00
C1334  C     0.83626   0.50628   0.97658   0.00000  Uiso   1.00
C1335  C     0.83656   0.50628   0.52358   0.00000  Uiso   1.00
C1336  C     0.87247   0.49366   0.95297   0.00000  Uiso   1.00
C1337  C     0.80072   0.51999   0.54693   0.00000  Uiso   1.00
C1338  C     0.76781   0.54164   0.97733   0.00000  Uiso   1.00
C1339  C     0.76850   0.54303   0.52391   0.00000  Uiso   1.00
C1340  C     0.90956   0.48721   0.52321   0.00000  Uiso   1.00
C1341  C     0.90542   0.46988   0.87994   0.00000  Uiso   1.00
C1342  C     0.75894   0.51286   0.61748   0.00000  Uiso   1.00
C1343  C     0.75919   0.52528   0.88161   0.00000  Uiso   1.00
C1344  C     0.90944   0.47746   0.62067   0.00000  Uiso   1.00
C1345  C     0.70282   0.57426   0.53685   0.00000  Uiso   1.00
C1346  C     0.67950   0.59837   0.57442   0.00000  Uiso   1.00
C1347  C     0.96629   0.59880   0.56706   0.00000  Uiso   1.00
C1348  C     0.96704   0.53126   0.95670   0.00000  Uiso   1.00
C1349  C     0.95843   0.55883   0.91380   0.00000  Uiso   1.00
C1350  C     0.91006   0.48945   0.97692   0.00000  Uiso   1.00
C1351  C     0.98103   0.60481   0.91361   0.00000  Uiso   1.00
C1352  C     0.78274   0.38387   0.68843   0.00000  Uiso   1.00
C1353  C     0.88449   0.61595   0.81094   0.00000  Uiso   1.00
C1354  C     0.87872   0.38044   0.81624   0.00000  Uiso   1.00
C1355  C     0.78670   0.61908   0.68459   0.00000  Uiso   1.00
C1356  C     0.68844   0.45907   0.75933   0.00000  Uiso   1.00
C1357  C     0.97821   0.54094   0.74114   0.00000  Uiso   1.00
C1358  C     0.97912   0.45879   0.75884   0.00000  Uiso   1.00
C1359  C     0.68750   0.54124   0.74174   0.00000  Uiso   1.00
C1360  C     0.95718   0.49976   0.74984   0.00000  Uiso   1.00
Cu1361 Cu    0.83333   0.54689   0.75000   0.00000  Uiso   1.00
Cu1362 Cu    0.83333   0.45311   0.75000   0.00000  Uiso   1.00
H1363  H     0.74369   0.56029   0.95975   0.00000  Uiso   1.00
H1364  H     0.91690   0.49587   0.65081   0.00000  Uiso   1.00
H1365  H     0.69168   0.53810   0.53424   0.00000  Uiso   1.00
H1366  H     0.69664   0.59356   0.50533   0.00000  Uiso   1.00
H1367  H     0.68642   0.58046   0.60653   0.00000  Uiso   1.00
H1368  H     0.69023   0.63462   0.57692   0.00000  Uiso   1.00
H1369  H     0.95837   0.61718   0.53551   0.00000  Uiso   1.00
H1370  H     0.95098   0.61708   0.59488   0.00000  Uiso   1.00
H1371  H     0.95458   0.56294   0.56627   0.00000  Uiso   1.00
H1372  H     0.66743   0.52497   0.95929   0.00000  Uiso   1.00
H1373  H     0.95809   0.55230   0.98590   0.00000  Uiso   1.00
H1374  H     0.93890   0.48243   0.53983   0.00000  Uiso   1.00
H1375  H     0.96873   0.53842   0.88471   0.00000  Uiso   1.00
H1376  H     0.92482   0.56591   0.91061   0.00000  Uiso   1.00
H1377  H     0.97098   0.62613   0.94218   0.00000  Uiso   1.00
H1378  H     0.97393   0.62408   0.88233   0.00000  Uiso   1.00
H1379  H     0.68154   0.59885   0.91563   0.00000  Uiso   1.00
H1380  H     0.79449   0.39627   0.65682   0.00000  Uiso   1.00
H1381  H     0.87305   0.60289   0.84243   0.00000  Uiso   1.00
H1382  H     0.90075   0.40692   0.80866   0.00000  Uiso   1.00
H1383  H     0.76313   0.59472   0.69324   0.00000  Uiso   1.00
H1384  H     0.70485   0.42712   0.76683   0.00000  Uiso   1.00
H1385  H     0.96181   0.57288   0.73355   0.00000  Uiso   1.00
H1386  H     0.96346   0.42667   0.76578   0.00000  Uiso   1.00
H1387  H     0.70311   0.57341   0.73494   0.00000  Uiso   1.00
H1388  H     0.91339   0.48561   0.84823   0.00000  Uiso   1.00
H1389  H     0.75663   0.52565   0.65108   0.00000  Uiso   1.00
H1390  H     0.75983   0.54229   0.84932   0.00000  Uiso   1.00
N1391  N     0.83333   0.61736   0.75000   0.00000  Uiso   1.00
N1392  N     0.83333   0.38264   0.75000   0.00000  Uiso   1.00
O1393  O     0.77321   0.53958   0.75000   0.00000  Uiso   1.00
O1394  O     0.72861   0.49532   0.60084   0.00000  Uiso   1.00
O1395  O     0.72615   0.51181   0.89580   0.00000  Uiso   1.00
O1396  O     0.93055   0.44405   0.61050   0.00000  Uiso   1.00
O1397  O     0.74526   0.57546   0.54713   0.00000  Uiso   1.00
O1398  O     0.94786   0.48753   0.95567   0.00000  Uiso   1.00
O1399  O     0.74599   0.38766   0.69636   0.00000  Uiso   1.00
O1400  O     0.92126   0.61295   0.80286   0.00000  Uiso   1.00
O1401  O     0.87306   0.36941   0.85504   0.00000  Uiso   1.00
O1402  O     0.79286   0.62764   0.64533   0.00000  Uiso   1.00
O1403  O     0.89345   0.46042   0.75000   0.00000  Uiso   1.00
O1404  O     0.89345   0.53958   0.75000   0.00000  Uiso   1.00
O1405  O     0.77321   0.46042   0.74999   0.00000  Uiso   1.00
O1406  O     0.83332   0.53960   0.68513   0.00000  Uiso   1.00
O1407  O     0.83334   0.46040   0.81487   0.00000  Uiso   1.00
O1408  O     0.83334   0.53960   0.81487   0.00000  Uiso   1.00
O1409  O     0.83332   0.46040   0.68513   0.00000  Uiso   1.00
O1410  O     0.92446   0.43545   0.89243   0.00000  Uiso   1.00
C1411  C     0.08749   0.83349   0.75027   0.00000  Uiso   1.00
C1412  C     0.04280   0.83359   0.75058   0.00000  Uiso   1.00
C1413  C     0.14354   0.69209   0.71977   0.00000  Uiso   1.00
C1414  C     0.18994   0.97449   0.78002   0.00000  Uiso   1.00
C1415  C     0.18927   0.69052   0.78066   0.00000  Uiso   1.00
C1416  C     0.14391   0.97601   0.71936   0.00000  Uiso   1.00
C1417  C     0.16767   0.83358   0.66480   0.00000  Uiso   1.00
C1418  C     0.16605   0.83326   0.83531   0.00000  Uiso   1.00
C1419  C     0.20364   0.82199   0.90625   0.00000  Uiso   1.00
C1420  C     0.13239   0.84668   0.59334   0.00000  Uiso   1.00
C1421  C     0.16682   0.83402   0.88376   0.00000  Uiso   1.00
C1422  C     0.24584   0.83318   0.74990   0.00000  Uiso   1.00
C1423  C     0.16864   0.83475   0.61654   0.00000  Uiso   1.00
C1424  C     0.13153   0.84946   0.90680   0.00000  Uiso   1.00
C1425  C     0.20565   0.82454   0.59411   0.00000  Uiso   1.00
C1426  C     0.13329   0.85344   0.95348   0.00000  Uiso   1.00
C1427  C     0.20622   0.82689   0.54715   0.00000  Uiso   1.00
C1428  C     0.16959   0.83962   0.97658   0.00000  Uiso   1.00
C1429  C     0.16989   0.83961   0.52358   0.00000  Uiso   1.00
C1430  C     0.20580   0.82699   0.95297   0.00000  Uiso   1.00
C1431  C     0.13405   0.85332   0.54693   0.00000  Uiso   1.00
C1432  C     0.10114   0.87497   0.97733   0.00000  Uiso   1.00
C1433  C     0.10183   0.87637   0.52391   0.00000  Uiso   1.00
C1434  C     0.24289   0.82055   0.52321   0.00000  Uiso   1.00
C1435  C     0.23876   0.80321   0.87994   0.00000  Uiso   1.00
C1436  C     0.09228   0.84620   0.61748   0.00000  Uiso   1.00
C1437  C     0.09252   0.85862   0.88161   0.00000  Uiso   1.00
C1438  C     0.24277   0.81079   0.62067   0.00000  Uiso   1.00
C1439  C     0.03615   0.90759   0.53685   0.00000  Uiso   1.00
C1440  C     0.01283   0.93170   0.57442   0.00000  Uiso   1.00
C1441  C     0.29963   0.93213   0.56706   0.00000  Uiso   1.00
C1442  C     0.30038   0.86459   0.95670   0.00000  Uiso   1.00
C1443  C     0.29177   0.89216   0.91380   0.00000  Uiso   1.00
C1444  C     0.24339   0.82278   0.97692   0.00000  Uiso   1.00
C1445  C     0.31436   0.93814   0.91361   0.00000  Uiso   1.00
C1446  C     0.11607   0.71720   0.68843   0.00000  Uiso   1.00
C1447  C     0.21782   0.94929   0.81094   0.00000  Uiso   1.00
C1448  C     0.21206   0.71377   0.81624   0.00000  Uiso   1.00
C1449  C     0.12003   0.95241   0.68459   0.00000  Uiso   1.00
C1450  C     0.02177   0.79240   0.75933   0.00000  Uiso   1.00
C1451  C     0.31154   0.87428   0.74114   0.00000  Uiso   1.00
C1452  C     0.31246   0.79213   0.75884   0.00000  Uiso   1.00
C1453  C     0.02084   0.87458   0.74174   0.00000  Uiso   1.00
C1454  C     0.29051   0.83309   0.74984   0.00000  Uiso   1.00
Cu1455 Cu    0.16667   0.88022   0.75000   0.00000  Uiso   1.00
Cu1456 Cu    0.16667   0.78645   0.75000   0.00000  Uiso   1.00
H1457  H     0.07702   0.89363   0.95975   0.00000  Uiso   1.00
H1458  H     0.25023   0.82921   0.65081   0.00000  Uiso   1.00
H1459  H     0.02502   0.87143   0.53424   0.00000  Uiso   1.00
H1460  H     0.02997   0.92689   0.50533   0.00000  Uiso   1.00
H1461  H     0.01975   0.91379   0.60653   0.00000  Uiso   1.00
H1462  H     0.02356   0.96795   0.57692   0.00000  Uiso   1.00
H1463  H     0.29170   0.95052   0.53551   0.00000  Uiso   1.00
H1464  H     0.28431   0.95041   0.59488   0.00000  Uiso   1.00
H1465  H     0.28791   0.89627   0.56627   0.00000  Uiso   1.00
H1466  H     0.00077   0.85831   0.95929   0.00000  Uiso   1.00
H1467  H     0.29142   0.88563   0.98590   0.00000  Uiso   1.00
H1468  H     0.27224   0.81576   0.53983   0.00000  Uiso   1.00
H1469  H     0.30207   0.87175   0.88471   0.00000  Uiso   1.00
H1470  H     0.25815   0.89924   0.91061   0.00000  Uiso   1.00
H1471  H     0.30432   0.95946   0.94218   0.00000  Uiso   1.00
H1472  H     0.30726   0.95741   0.88233   0.00000  Uiso   1.00
H1473  H     0.01487   0.93218   0.91563   0.00000  Uiso   1.00
H1474  H     0.12782   0.72960   0.65682   0.00000  Uiso   1.00
H1475  H     0.20638   0.93622   0.84243   0.00000  Uiso   1.00
H1476  H     0.23409   0.74025   0.80866   0.00000  Uiso   1.00
H1477  H     0.09646   0.92806   0.69324   0.00000  Uiso   1.00
H1478  H     0.03819   0.76045   0.76683   0.00000  Uiso   1.00
H1479  H     0.29514   0.90621   0.73355   0.00000  Uiso   1.00
H1480  H     0.29680   0.76000   0.76578   0.00000  Uiso   1.00
H1481  H     0.03644   0.90675   0.73494   0.00000  Uiso   1.00
H1482  H     0.24672   0.81894   0.84823   0.00000  Uiso   1.00
H1483  H     0.08996   0.85899   0.65108   0.00000  Uiso   1.00
H1484  H     0.09317   0.87563   0.84932   0.00000  Uiso   1.00
N1485  N     0.16667   0.95069   0.75000   0.00000  Uiso   1.00
N1486  N     0.16667   0.71598   0.75000   0.00000  Uiso   1.00
O1487  O     0.10655   0.87291   0.75000   0.00000  Uiso   1.00
O1488  O     0.06195   0.82866   0.60084   0.00000  Uiso   1.00
O1489  O     0.05948   0.84514   0.89580   0.00000  Uiso   1.00
O1490  O     0.26388   0.77738   0.61050   0.00000  Uiso   1.00
O1491  O     0.07859   0.90879   0.54713   0.00000  Uiso   1.00
O1492  O     0.28120   0.82087   0.95567   0.00000  Uiso   1.00
O1493  O     0.07932   0.72100   0.69636   0.00000  Uiso   1.00
O1494  O     0.25459   0.94628   0.80286   0.00000  Uiso   1.00
O1495  O     0.20640   0.70274   0.85504   0.00000  Uiso   1.00
O1496  O     0.12619   0.96098   0.64533   0.00000  Uiso   1.00
O1497  O     0.22679   0.79375   0.75000   0.00000  Uiso   1.00
O1498  O     0.22679   0.87291   0.75000   0.00000  Uiso   1.00
O1499  O     0.10655   0.79375   0.74999   0.00000  Uiso   1.00
O1500  O     0.16666   0.87293   0.68513   0.00000  Uiso   1.00
O1501  O     0.16668   0.79373   0.81487   0.00000  Uiso   1.00
O1502  O     0.16668   0.87293   0.81487   0.00000  Uiso   1.00
O1503  O     0.16666   0.79373   0.68513   0.00000  Uiso   1.00
O1504  O     0.25779   0.76879   0.89243   0.00000  Uiso   1.00
C1505  C     0.42082   0.83349   0.75027   0.00000  Uiso   1.00
C1506  C     0.37613   0.83359   0.75058   0.00000  Uiso   1.00
C1507  C     0.47687   0.69209   0.71977   0.00000  Uiso   1.00
C1508  C     0.52328   0.97449   0.78002   0.00000  Uiso   1.00
C1509  C     0.52260   0.69052   0.78066   0.00000  Uiso   1.00
C1510  C     0.47725   0.97601   0.71936   0.00000  Uiso   1.00
C1511  C     0.50100   0.83358   0.66480   0.00000  Uiso   1.00
C1512  C     0.49938   0.83326   0.83531   0.00000  Uiso   1.00
C1513  C     0.53698   0.82199   0.90625   0.00000  Uiso   1.00
C1514  C     0.46572   0.84668   0.59334   0.00000  Uiso   1.00
C1515  C     0.50015   0.83402   0.88376   0.00000  Uiso   1.00
C1516  C     0.57917   0.83318   0.74990   0.00000  Uiso   1.00
C1517  C     0.50197   0.83475   0.61654   0.00000  Uiso   1.00
C1518  C     0.46487   0.84946   0.90680   0.00000  Uiso   1.00
C1519  C     0.53898   0.82454   0.59411   0.00000  Uiso   1.00
C1520  C     0.46662   0.85344   0.95348   0.00000  Uiso   1.00
C1521  C     0.53956   0.82689   0.54715   0.00000  Uiso   1.00
C1522  C     0.50292   0.83962   0.97658   0.00000  Uiso   1.00
C1523  C     0.50322   0.83961   0.52358   0.00000  Uiso   1.00
C1524  C     0.53913   0.82699   0.95297   0.00000  Uiso   1.00
C1525  C     0.46738   0.85332   0.54693   0.00000  Uiso   1.00
C1526  C     0.43448   0.87497   0.97733   0.00000  Uiso   1.00
C1527  C     0.43517   0.87637   0.52391   0.00000  Uiso   1.00
C1528  C     0.57623   0.82055   0.52321   0.00000  Uiso   1.00
C1529  C     0.57209   0.80321   0.87994   0.00000  Uiso   1.00
C1530  C     0.42561   0.84620   0.61748   0.00000  Uiso   1.00
C1531  C     0.42585   0.85862   0.88161   0.00000  Uiso   1.00
C1532  C     0.57610   0.81079   0.62067   0.00000  Uiso   1.00
C1533  C     0.36948   0.90759   0.53685   0.00000  Uiso   1.00
C1534  C     0.34616   0.93170   0.57442   0.00000  Uiso   1.00
C1535  C     0.63296   0.93213   0.56706   0.00000  Uiso   1.00
C1536  C     0.63371   0.86459   0.95670   0.00000  Uiso   1.00
C1537  C     0.62510   0.89216   0.91380   0.00000  Uiso   1.00
C1538  C     0.57672   0.82278   0.97692   0.00000  Uiso   1.00
C1539  C     0.64769   0.93814   0.91361   0.00000  Uiso   1.00
C1540  C     0.44941   0.71720   0.68843   0.00000  Uiso   1.00
C1541  C     0.55115   0.94929   0.81094   0.00000  Uiso   1.00
C1542  C     0.54539   0.71377   0.81624   0.00000  Uiso   1.00
C1543  C     0.45336   0.95241   0.68459   0.00000  Uiso   1.00
C1544  C     0.35511   0.79240   0.75933   0.00000  Uiso   1.00
C1545  C     0.64487   0.87428   0.74114   0.00000  Uiso   1.00
C1546  C     0.64579   0.79213   0.75884   0.00000  Uiso   1.00
C1547  C     0.35417   0.87458   0.74174   0.00000  Uiso   1.00
C1548  C     0.62385   0.83309   0.74984   0.00000  Uiso   1.00
Cu1549 Cu    0.50000   0.88022   0.75000   0.00000  Uiso   1.00
Cu1550 Cu    0.50000   0.78645   0.75000   0.00000  Uiso   1.00
H1551  H     0.41035   0.89363   0.95975   0.00000  Uiso   1.00
H1552  H     0.58356   0.82921   0.65081   0.00000  Uiso   1.00
H1553  H     0.35835   0.87143   0.53424   0.00000  Uiso   1.00
H1554  H     0.36331   0.92689   0.50533   0.00000  Uiso   1.00
H1555  H     0.35308   0.91379   0.60653   0.00000  Uiso   1.00
H1556  H     0.35690   0.96795   0.57692   0.00000  Uiso   1.00
H1557  H     0.62503   0.95052   0.53551   0.00000  Uiso   1.00
H1558  H     0.61765   0.95041   0.59488   0.00000  Uiso   1.00
H1559  H     0.62124   0.89627   0.56627   0.00000  Uiso   1.00
H1560  H     0.33410   0.85831   0.95929   0.00000  Uiso   1.00
H1561  H     0.62476   0.88563   0.98590   0.00000  Uiso   1.00
H1562  H     0.60557   0.81576   0.53983   0.00000  Uiso   1.00
H1563  H     0.63540   0.87175   0.88471   0.00000  Uiso   1.00
H1564  H     0.59149   0.89924   0.91061   0.00000  Uiso   1.00
H1565  H     0.63765   0.95946   0.94218   0.00000  Uiso   1.00
H1566  H     0.64060   0.95741   0.88233   0.00000  Uiso   1.00
H1567  H     0.34821   0.93218   0.91563   0.00000  Uiso   1.00
H1568  H     0.46116   0.72960   0.65682   0.00000  Uiso   1.00
H1569  H     0.53971   0.93622   0.84243   0.00000  Uiso   1.00
H1570  H     0.56742   0.74025   0.80866   0.00000  Uiso   1.00
H1571  H     0.42979   0.92806   0.69324   0.00000  Uiso   1.00
H1572  H     0.37152   0.76045   0.76683   0.00000  Uiso   1.00
H1573  H     0.62847   0.90621   0.73355   0.00000  Uiso   1.00
H1574  H     0.63013   0.76000   0.76578   0.00000  Uiso   1.00
H1575  H     0.36977   0.90675   0.73494   0.00000  Uiso   1.00
H1576  H     0.58005   0.81894   0.84823   0.00000  Uiso   1.00
H1577  H     0.42330   0.85899   0.65108   0.00000  Uiso   1.00
H1578  H     0.42650   0.87563   0.84932   0.00000  Uiso   1.00
N1579  N     0.50000   0.95069   0.75000   0.00000  Uiso   1.00
N1580  N     0.50000   0.71598   0.75000   0.00000  Uiso   1.00
O1581  O     0.43988   0.87291   0.75000   0.00000  Uiso   1.00
O1582  O     0.39528   0.82866   0.60084   0.00000  Uiso   1.00
O1583  O     0.39282   0.84514   0.89580   0.00000  Uiso   1.00
O1584  O     0.59722   0.77738   0.61050   0.00000  Uiso   1.00
O1585  O     0.41192   0.90879   0.54713   0.00000  Uiso   1.00
O1586  O     0.61453   0.82087   0.95567   0.00000  Uiso   1.00
O1587  O     0.41266   0.72100   0.69636   0.00000  Uiso   1.00
O1588  O     0.58792   0.94628   0.80286   0.00000  Uiso   1.00
O1589  O     0.53973   0.70274   0.85504   0.00000  Uiso   1.00
O1590  O     0.45953   0.96098   0.64533   0.00000  Uiso   1.00
O1591  O     0.56012   0.79375   0.75000   0.00000  Uiso   1.00
O1592  O     0.56012   0.87291   0.75000   0.00000  Uiso   1.00
O1593  O     0.43988   0.79375   0.74999   0.00000  Uiso   1.00
O1594  O     0.49999   0.87293   0.68513   0.00000  Uiso   1.00
O1595  O     0.50001   0.79373   0.81487   0.00000  Uiso   1.00
O1596  O     0.50001   0.87293   0.81487   0.00000  Uiso   1.00
O1597  O     0.49999   0.79373   0.68513   0.00000  Uiso   1.00
O1598  O     0.59112   0.76879   0.89243   0.00000  Uiso   1.00
C1599  C     0.75415   0.83349   0.75027   0.00000  Uiso   1.00
C1600  C     0.70947   0.83359   0.75058   0.00000  Uiso   1.00
C1601  C     0.81021   0.69209   0.71977   0.00000  Uiso   1.00
C1602  C     0.85661   0.97449   0.78002   0.00000  Uiso   1.00
C1603  C     0.85593   0.69052   0.78066   0.00000  Uiso   1.00
C1604  C     0.81058   0.97601   0.71936   0.00000  Uiso   1.00
C1605  C     0.83433   0.83358   0.66480   0.00000  Uiso   1.00
C1606  C     0.83272   0.83326   0.83531   0.00000  Uiso   1.00
C1607  C     0.87031   0.82199   0.90625   0.00000  Uiso   1.00
C1608  C     0.79906   0.84668   0.59334   0.00000  Uiso   1.00
C1609  C     0.83348   0.83402   0.88376   0.00000  Uiso   1.00
C1610  C     0.91251   0.83318   0.74990   0.00000  Uiso   1.00
C1611  C     0.83530   0.83475   0.61654   0.00000  Uiso   1.00
C1612  C     0.79820   0.84946   0.90680   0.00000  Uiso   1.00
C1613  C     0.87231   0.82454   0.59411   0.00000  Uiso   1.00
C1614  C     0.79996   0.85344   0.95348   0.00000  Uiso   1.00
C1615  C     0.87289   0.82689   0.54715   0.00000  Uiso   1.00
C1616  C     0.83626   0.83962   0.97658   0.00000  Uiso   1.00
C1617  C     0.83656   0.83961   0.52358   0.00000  Uiso   1.00
C1618  C     0.87247   0.82699   0.95297   0.00000  Uiso   1.00
C1619  C     0.80072   0.85332   0.54693   0.00000  Uiso   1.00
C1620  C     0.76781   0.87497   0.97733   0.00000  Uiso   1.00
C1621  C     0.76850   0.87637   0.52391   0.00000  Uiso   1.00
C1622  C     0.90956   0.82055   0.52321   0.00000  Uiso   1.00
C1623  C     0.90542   0.80321   0.87994   0.00000  Uiso   1.00
C1624  C     0.75894   0.84620   0.61748   0.00000  Uiso   1.00
C1625  C     0.75919   0.85862   0.88161   0.00000  Uiso   1.00
C1626  C     0.90944   0.81079   0.62067   0.00000  Uiso   1.00
C1627  C     0.70282   0.90759   0.53685   0.00000  Uiso   1.00
C1628  C     0.67950   0.93170   0.57442   0.00000  Uiso   1.00
C1629  C     0.96629   0.93213   0.56706   0.00000  Uiso   1.00
C1630  C     0.96704   0.86459   0.95670   0.00000  Uiso   1.00
C1631  C     0.95843   0.89216   0.91380   0.00000  Uiso   1.00
C1632  C     0.91006   0.82278   0.97692   0.00000  Uiso   1.00
C1633  C     0.98103   0.93814   0.91361   0.00000  Uiso   1.00
C1634  C     0.78274   0.71720   0.68843   0.00000  Uiso   1.00
C1635  C     0.88449   0.94929   0.81094   0.00000  Uiso   1.00
C1636  C     0.87872   0.71377   0.81624   0.00000  Uiso   1.00
C1637  C     0.78670   0.95241   0.68459   0.00000  Uiso   1.00
C1638  C     0.68844   0.79240   0.75933   0.00000  Uiso   1.00
C1639  C     0.97821   0.87428   0.74114   0.00000  Uiso   1.00
C1640  C     0.97912   0.79213   0.75884   0.00000  Uiso   1.00
C1641  C     0.68750   0.87458   0.74174   0.00000  Uiso   1.00
C1642  C     0.95718   0.83309   0.74984   0.00000  Uiso   1.00
Cu1643 Cu    0.83333   0.88022   0.75000   0.00000  Uiso   1.00
Cu1644 Cu    0.83333   0.78645   0.75000   0.00000  Uiso   1.00
H1645  H     0.74369   0.89363   0.95975   0.00000  Uiso   1.00
H1646  H     0.91690   0.82921   0.65081   0.00000  Uiso   1.00
H1647  H     0.69168   0.87143   0.53424   0.00000  Uiso   1.00
H1648  H     0.69664   0.92689   0.50533   0.00000  Uiso   1.00
H1649  H     0.68642   0.91379   0.60653   0.00000  Uiso   1.00
H1650  H     0.69023   0.96795   0.57692   0.00000  Uiso   1.00
H1651  H     0.95837   0.95052   0.53551   0.00000  Uiso   1.00
H1652  H     0.95098   0.95041   0.59488   0.00000  Uiso   1.00
H1653  H     0.95458   0.89627   0.56627   0.00000  Uiso   1.00
H1654  H     0.66743   0.85831   0.95929   0.00000  Uiso   1.00
H1655  H     0.95809   0.88563   0.98590   0.00000  Uiso   1.00
H1656  H     0.93890   0.81576   0.53983   0.00000  Uiso   1.00
H1657  H     0.96873   0.87175   0.88471   0.00000  Uiso   1.00
H1658  H     0.92482   0.89924   0.91061   0.00000  Uiso   1.00
H1659  H     0.97098   0.95946   0.94218   0.00000  Uiso   1.00
H1660  H     0.97393   0.95741   0.88233   0.00000  Uiso   1.00
H1661  H     0.68154   0.93218   0.91563   0.00000  Uiso   1.00
H1662  H     0.79449   0.72960   0.65682   0.00000  Uiso   1.00
H1663  H     0.87305   0.93622   0.84243   0.00000  Uiso   1.00
H1664  H     0.90075   0.74025   0.80866   0.00000  Uiso   1.00
H1665  H     0.76313   0.92806   0.69324   0.00000  Uiso   1.00
H1666  H     0.70485   0.76045   0.76683   0.00000  Uiso   1.00
H1667  H     0.96181   0.90621   0.73355   0.00000  Uiso   1.00
H1668  H     0.96346   0.76000   0.76578   0.00000  Uiso   1.00
H1669  H     0.70311   0.90675   0.73494   0.00000  Uiso   1.00
H1670  H     0.91339   0.81894   0.84823   0.00000  Uiso   1.00
H1671  H     0.75663   0.85899   0.65108   0.00000  Uiso   1.00
H1672  H     0.75983   0.87563   0.84932   0.00000  Uiso   1.00
N1673  N     0.83333   0.95069   0.75000   0.00000  Uiso   1.00
N1674  N     0.83333   0.71598   0.75000   0.00000  Uiso   1.00
O1675  O     0.77321   0.87291   0.75000   0.00000  Uiso   1.00
O1676  O     0.72861   0.82866   0.60084   0.00000  Uiso   1.00
O1677  O     0.72615   0.84514   0.89580   0.00000  Uiso   1.00
O1678  O     0.93055   0.77738   0.61050   0.00000  Uiso   1.00
O1679  O     0.74526   0.90879   0.54713   0.00000  Uiso   1.00
O1680  O     0.94786   0.82087   0.95567   0.00000  Uiso   1.00
O1681  O     0.74599   0.72100   0.69636   0.00000  Uiso   1.00
O1682  O     0.92126   0.94628   0.80286   0.00000  Uiso   1.00
O1683  O     0.87306   0.70274   0.85504   0.00000  Uiso   1.00
O1684  O     0.79286   0.96098   0.64533   0.00000  Uiso   1.00
O1685  O     0.89345   0.79375   0.75000   0.00000  Uiso   1.00
O1686  O     0.89345   0.87291   0.75000   0.00000  Uiso   1.00
O1687  O     0.77321   0.79375   0.74999   0.00000  Uiso   1.00
O1688  O     0.83332   0.87293   0.68513   0.00000  Uiso   1.00
O1689  O     0.83334   0.79373   0.81487   0.00000  Uiso   1.00
O1690  O     0.83334   0.87293   0.81487   0.00000  Uiso   1.00
O1691  O     0.83332   0.79373   0.68513   0.00000  Uiso   1.00
O1692  O     0.92446   0.76879   0.89243   0.00000  Uiso   1.00
loop_
_geom_bond_atom_site_label_1
_geom_bond_atom_site_label_2
_geom_bond_distance
_geom_bond_site_symmetry_2
_ccdc_geom_bond_type
C1     O77     1.303   .     A
C1     C2      1.449   .     S
C1     O89     1.300   .     A
C2     C43     1.399   .     A
C2     C40     1.402   .     A
C3     N76     1.374   .     A
C3     C36     1.475   .     S
C3     C570    1.430   1_545 S
C4     N75     1.372   .     A
C4     C37     1.476   .     S
C4     C287    1.429   .     S
C5     C38     1.472   .     S
C5     N76     1.378   .     A
C5     C568    1.429   1_545 S
C6     N75     1.378   .     A
C6     C39     1.478   .     S
C6     C285    1.430   .     S
C7     O93     1.300   .     A
C7     O90     1.299   .     A
C7     C13     1.452   .     S
C8     O92     1.296   .     A
C8     O91     1.305   .     A
C8     C11     1.458   .     S
C9     C25     1.490   .     S
C9     C20     1.416   .     A
C9     C11     1.409   .     A
C10    C26     1.492   .     S
C10    C21     1.408   .     A
C10    C13     1.403   .     A
C11    C14     1.411   .     A
C12    O88     1.299   .     A
C12    O87     1.303   .     A
C12    C44     1.449   .     S
C13    C15     1.409   .     A
C14    C27     1.493   .     S
C14    C16     1.411   .     A
C15    C17     1.414   .     A
C15    C28     1.491   .     S
C16    C18     1.417   .     A
C16    C22     1.411   .     A
C17    C24     1.403   .     A
C17    C19     1.416   .     A
C18    C20     1.421   .     A
C18    C865    1.414   .     S
C19    C21     1.415   .     A
C19    C864    1.414   1_554 S
C20    C34     1.418   .     A
C21    C23     1.409   .     A
C22    H47     1.079   .     S
C22    C869    1.402   .     S
C23    O81     1.392   .     S
C23    C868    1.402   1_554 S
C24    H58     1.080   .     S
C24    C880    1.393   1_554 S
C25    O94     1.221   .     D
C25    H72     1.085   .     S
C26    O78     1.221   .     D
C26    H73     1.083   .     S
C27    O79     1.221   .     D
C27    H74     1.084   .     S
C28    H48     1.085   .     S
C28    O80     1.221   .     D
C29    H49     1.114   .     S
C29    H50     1.111   .     S
C29    O81     1.411   .     S
C29    C30     1.532   .     S
C30    H51     1.112   .     S
C30    H52     1.112   .     S
C30    C219    1.525   1_455 S
C31    H53     1.111   .     S
C31    H54     1.110   .     S
C31    H55     1.109   .     S
C31    C124    1.525   .     S
C32    H57     1.112   .     S
C32    O82     1.417   .     S
C32    C33     1.532   .     S
C32    H150    1.109   .     S
C33    C35     1.526   .     S
C33    H59     1.111   .     S
C33    H60     1.111   .     S
C34    O82     1.385   .     S
C34    C870    1.393   .     S
C35    H61     1.111   .     S
C35    H62     1.110   .     S
C35    H157    1.111   .     S
C36    O83     1.220   .     D
C36    H64     1.084   .     S
C37    H65     1.084   .     S
C37    O84     1.220   .     D
C38    H66     1.076   .     S
C38    O85     1.221   .     D
C39    H67     1.076   .     S
C39    O86     1.221   .     D
C40    H68     1.083   .     S
C40    C230    1.383   1_455 S
C41    C44     1.402   .     A
C41    H69     1.083   .     S
C41    C137    1.383   .     S
C42    H70     1.083   .     S
C42    C44     1.399   .     A
C42    C134    1.383   .     S
C43    H71     1.082   .     S
C43    C229    1.383   1_455 S
Cu45   Cu46    2.713   .     S
Cu45   O92     1.960   .     S
Cu45   O88     1.959   .     S
Cu45   O90     1.965   .     S
Cu45   N75     2.039   .     S
Cu45   O77     1.963   .     S
Cu46   N76     2.039   .     S
Cu46   O89     1.959   .     S
Cu46   O91     1.965   .     S
Cu46   O87     1.963   .     S
Cu46   O93     1.960   .     S
H56    C220    1.109   1_455 S
H63    C223    1.111   1_455 S
C95    O171    1.303   .     A
C95    C96     1.449   .     S
C95    O183    1.300   .     A
C96    C137    1.399   .     A
C96    C134    1.402   .     A
C97    N170    1.374   .     A
C97    C130    1.475   .     S
C97    C664    1.430   1_545 S
C98    N169    1.372   .     A
C98    C131    1.476   .     S
C98    C381    1.429   .     S
C99    C132    1.472   .     S
C99    N170    1.378   .     A
C99    C662    1.429   1_545 S
C100   N169    1.378   .     A
C100   C133    1.478   .     S
C100   C379    1.430   .     S
C101   O187    1.300   .     A
C101   O184    1.299   .     A
C101   C107    1.452   .     S
C102   O186    1.296   .     A
C102   O185    1.305   .     A
C102   C105    1.458   .     S
C103   C119    1.490   .     S
C103   C114    1.416   .     A
C103   C105    1.409   .     A
C104   C120    1.492   .     S
C104   C115    1.408   .     A
C104   C107    1.403   .     A
C105   C108    1.411   .     A
C106   O182    1.299   .     A
C106   O181    1.303   .     A
C106   C138    1.449   .     S
C107   C109    1.409   .     A
C108   C121    1.493   .     S
C108   C110    1.411   .     A
C109   C111    1.414   .     A
C109   C122    1.491   .     S
C110   C112    1.417   .     A
C110   C116    1.411   .     A
C111   C118    1.403   .     A
C111   C113    1.416   .     A
C112   C114    1.421   .     A
C112   C959    1.414   .     S
C113   C115    1.415   .     A
C113   C958    1.414   1_554 S
C114   C128    1.418   .     A
C115   C117    1.409   .     A
C116   H141    1.079   .     S
C116   C963    1.402   .     S
C117   O175    1.392   .     S
C117   C962    1.402   1_554 S
C118   H152    1.080   .     S
C118   C974    1.393   1_554 S
C119   O188    1.221   .     D
C119   H166    1.085   .     S
C120   O172    1.221   .     D
C120   H167    1.083   .     S
C121   O173    1.221   .     D
C121   H168    1.084   .     S
C122   H142    1.085   .     S
C122   O174    1.221   .     D
C123   H143    1.114   .     S
C123   H144    1.111   .     S
C123   O175    1.411   .     S
C123   C124    1.532   .     S
C124   H145    1.112   .     S
C124   H146    1.112   .     S
C125   H147    1.111   .     S
C125   H148    1.110   .     S
C125   H149    1.109   .     S
C125   C218    1.525   .     S
C126   H151    1.112   .     S
C126   O176    1.417   .     S
C126   C127    1.532   .     S
C126   H244    1.109   .     S
C127   C129    1.526   .     S
C127   H153    1.111   .     S
C127   H154    1.111   .     S
C128   O176    1.385   .     S
C128   C964    1.393   .     S
C129   H155    1.111   .     S
C129   H156    1.110   .     S
C129   H251    1.111   .     S
C130   O177    1.220   .     D
C130   H158    1.084   .     S
C131   H159    1.084   .     S
C131   O178    1.220   .     D
C132   H160    1.076   .     S
C132   O179    1.221   .     D
C133   H161    1.076   .     S
C133   O180    1.221   .     D
C134   H162    1.083   .     S
C135   C138    1.402   .     A
C135   H163    1.083   .     S
C135   C231    1.383   .     S
C136   H164    1.083   .     S
C136   C138    1.399   .     A
C136   C228    1.383   .     S
C137   H165    1.082   .     S
Cu139  Cu140   2.713   .     S
Cu139  O186    1.960   .     S
Cu139  O182    1.959   .     S
Cu139  O184    1.965   .     S
Cu139  N169    2.039   .     S
Cu139  O171    1.963   .     S
Cu140  N170    2.039   .     S
Cu140  O183    1.959   .     S
Cu140  O185    1.965   .     S
Cu140  O181    1.963   .     S
Cu140  O187    1.960   .     S
C189   O265    1.303   .     A
C189   C190    1.449   .     S
C189   O277    1.300   .     A
C190   C231    1.399   .     A
C190   C228    1.402   .     A
C191   N264    1.374   .     A
C191   C224    1.475   .     S
C191   C758    1.430   1_545 S
C192   N263    1.372   .     A
C192   C225    1.476   .     S
C192   C475    1.429   .     S
C193   C226    1.472   .     S
C193   N264    1.378   .     A
C193   C756    1.429   1_545 S
C194   N263    1.378   .     A
C194   C227    1.478   .     S
C194   C473    1.430   .     S
C195   O281    1.300   .     A
C195   O278    1.299   .     A
C195   C201    1.452   .     S
C196   O280    1.296   .     A
C196   O279    1.305   .     A
C196   C199    1.458   .     S
C197   C213    1.490   .     S
C197   C208    1.416   .     A
C197   C199    1.409   .     A
C198   C214    1.492   .     S
C198   C209    1.408   .     A
C198   C201    1.403   .     A
C199   C202    1.411   .     A
C200   O276    1.299   .     A
C200   O275    1.303   .     A
C200   C232    1.449   .     S
C201   C203    1.409   .     A
C202   C215    1.493   .     S
C202   C204    1.411   .     A
C203   C205    1.414   .     A
C203   C216    1.491   .     S
C204   C206    1.417   .     A
C204   C210    1.411   .     A
C205   C212    1.403   .     A
C205   C207    1.416   .     A
C206   C208    1.421   .     A
C206   C1053   1.414   .     S
C207   C209    1.415   .     A
C207   C1052   1.414   1_554 S
C208   C222    1.418   .     A
C209   C211    1.409   .     A
C210   H235    1.079   .     S
C210   C1057   1.402   .     S
C211   O269    1.392   .     S
C211   C1056   1.402   1_554 S
C212   H246    1.080   .     S
C212   C1068   1.393   1_554 S
C213   O282    1.221   .     D
C213   H260    1.085   .     S
C214   O266    1.221   .     D
C214   H261    1.083   .     S
C215   O267    1.221   .     D
C215   H262    1.084   .     S
C216   H236    1.085   .     S
C216   O268    1.221   .     D
C217   H237    1.114   .     S
C217   H238    1.111   .     S
C217   O269    1.411   .     S
C217   C218    1.532   .     S
C218   H239    1.112   .     S
C218   H240    1.112   .     S
C219   H241    1.111   .     S
C219   H242    1.110   .     S
C219   H243    1.109   .     S
C219   C30     1.525   1_655 S
C220   H245    1.112   .     S
C220   O270    1.417   .     S
C220   C221    1.532   .     S
C220   H56     1.109   1_655 S
C221   C223    1.526   .     S
C221   H247    1.111   .     S
C221   H248    1.111   .     S
C222   O270    1.385   .     S
C222   C1058   1.393   .     S
C223   H249    1.111   .     S
C223   H250    1.110   .     S
C223   H63     1.111   1_655 S
C224   O271    1.220   .     D
C224   H252    1.084   .     S
C225   H253    1.084   .     S
C225   O272    1.220   .     D
C226   H254    1.076   .     S
C226   O273    1.221   .     D
C227   H255    1.076   .     S
C227   O274    1.221   .     D
C228   H256    1.083   .     S
C229   C232    1.402   .     A
C229   H257    1.083   .     S
C229   C43     1.383   1_655 S
C230   H258    1.083   .     S
C230   C232    1.399   .     A
C230   C40     1.383   1_655 S
C231   H259    1.082   .     S
Cu233  Cu234   2.713   .     S
Cu233  O280    1.960   .     S
Cu233  O276    1.959   .     S
Cu233  O278    1.965   .     S
Cu233  N263    2.039   .     S
Cu233  O265    1.963   .     S
Cu234  N264    2.039   .     S
Cu234  O277    1.959   .     S
Cu234  O279    1.965   .     S
Cu234  O275    1.963   .     S
Cu234  O281    1.960   .     S
C283   O359    1.303   .     A
C283   C284    1.449   .     S
C283   O371    1.300   .     A
C284   C325    1.399   .     A
C284   C322    1.402   .     A
C285   N358    1.374   .     A
C285   C318    1.475   .     S
C286   N357    1.372   .     A
C286   C319    1.476   .     S
C286   C569    1.429   .     S
C287   C320    1.472   .     S
C287   N358    1.378   .     A
C288   N357    1.378   .     A
C288   C321    1.478   .     S
C288   C567    1.430   .     S
C289   O375    1.300   .     A
C289   O372    1.299   .     A
C289   C295    1.452   .     S
C290   O374    1.296   .     A
C290   O373    1.305   .     A
C290   C293    1.458   .     S
C291   C307    1.490   .     S
C291   C302    1.416   .     A
C291   C293    1.409   .     A
C292   C308    1.492   .     S
C292   C303    1.408   .     A
C292   C295    1.403   .     A
C293   C296    1.411   .     A
C294   O370    1.299   .     A
C294   O369    1.303   .     A
C294   C326    1.449   .     S
C295   C297    1.409   .     A
C296   C309    1.493   .     S
C296   C298    1.411   .     A
C297   C299    1.414   .     A
C297   C310    1.491   .     S
C298   C300    1.417   .     A
C298   C304    1.411   .     A
C299   C306    1.403   .     A
C299   C301    1.416   .     A
C300   C302    1.421   .     A
C300   C1147   1.414   .     S
C301   C303    1.415   .     A
C301   C1146   1.414   1_554 S
C302   C316    1.418   .     A
C303   C305    1.409   .     A
C304   H329    1.079   .     S
C304   C1151   1.402   .     S
C305   O363    1.392   .     S
C305   C1150   1.402   1_554 S
C306   H340    1.080   .     S
C306   C1162   1.393   1_554 S
C307   O376    1.221   .     D
C307   H354    1.085   .     S
C308   O360    1.221   .     D
C308   H355    1.083   .     S
C309   O361    1.221   .     D
C309   H356    1.084   .     S
C310   H330    1.085   .     S
C310   O362    1.221   .     D
C311   H331    1.114   .     S
C311   H332    1.111   .     S
C311   O363    1.411   .     S
C311   C312    1.532   .     S
C312   H333    1.112   .     S
C312   H334    1.112   .     S
C312   C501    1.525   1_455 S
C313   H335    1.111   .     S
C313   H336    1.110   .     S
C313   H337    1.109   .     S
C313   C406    1.525   .     S
C314   H339    1.112   .     S
C314   O364    1.417   .     S
C314   C315    1.532   .     S
C314   H432    1.109   .     S
C315   C317    1.526   .     S
C315   H341    1.111   .     S
C315   H342    1.111   .     S
C316   O364    1.385   .     S
C316   C1152   1.393   .     S
C317   H343    1.111   .     S
C317   H344    1.110   .     S
C317   H439    1.111   .     S
C318   O365    1.220   .     D
C318   H346    1.084   .     S
C319   H347    1.084   .     S
C319   O366    1.220   .     D
C320   H348    1.076   .     S
C320   O367    1.221   .     D
C321   H349    1.076   .     S
C321   O368    1.221   .     D
C322   H350    1.083   .     S
C322   C512    1.383   1_455 S
C323   C326    1.402   .     A
C323   H351    1.083   .     S
C323   C419    1.383   .     S
C324   H352    1.083   .     S
C324   C326    1.399   .     A
C324   C416    1.383   .     S
C325   H353    1.082   .     S
C325   C511    1.383   1_455 S
Cu327  Cu328   2.713   .     S
Cu327  O374    1.960   .     S
Cu327  O370    1.959   .     S
Cu327  O372    1.965   .     S
Cu327  N357    2.039   .     S
Cu327  O359    1.963   .     S
Cu328  N358    2.039   .     S
Cu328  O371    1.959   .     S
Cu328  O373    1.965   .     S
Cu328  O369    1.963   .     S
Cu328  O375    1.960   .     S
H338   C502    1.109   1_455 S
H345   C505    1.111   1_455 S
C377   O453    1.303   .     A
C377   C378    1.449   .     S
C377   O465    1.300   .     A
C378   C419    1.399   .     A
C378   C416    1.402   .     A
C379   N452    1.374   .     A
C379   C412    1.475   .     S
C380   N451    1.372   .     A
C380   C413    1.476   .     S
C380   C663    1.429   .     S
C381   C414    1.472   .     S
C381   N452    1.378   .     A
C382   N451    1.378   .     A
C382   C415    1.478   .     S
C382   C661    1.430   .     S
C383   O469    1.300   .     A
C383   O466    1.299   .     A
C383   C389    1.452   .     S
C384   O468    1.296   .     A
C384   O467    1.305   .     A
C384   C387    1.458   .     S
C385   C401    1.490   .     S
C385   C396    1.416   .     A
C385   C387    1.409   .     A
C386   C402    1.492   .     S
C386   C397    1.408   .     A
C386   C389    1.403   .     A
C387   C390    1.411   .     A
C388   O464    1.299   .     A
C388   O463    1.303   .     A
C388   C420    1.449   .     S
C389   C391    1.409   .     A
C390   C403    1.493   .     S
C390   C392    1.411   .     A
C391   C393    1.414   .     A
C391   C404    1.491   .     S
C392   C394    1.417   .     A
C392   C398    1.411   .     A
C393   C400    1.403   .     A
C393   C395    1.416   .     A
C394   C396    1.421   .     A
C394   C1241   1.414   .     S
C395   C397    1.415   .     A
C395   C1240   1.414   1_554 S
C396   C410    1.418   .     A
C397   C399    1.409   .     A
C398   H423    1.079   .     S
C398   C1245   1.402   .     S
C399   O457    1.392   .     S
C399   C1244   1.402   1_554 S
C400   H434    1.080   .     S
C400   C1256   1.393   1_554 S
C401   O470    1.221   .     D
C401   H448    1.085   .     S
C402   O454    1.221   .     D
C402   H449    1.083   .     S
C403   O455    1.221   .     D
C403   H450    1.084   .     S
C404   H424    1.085   .     S
C404   O456    1.221   .     D
C405   H425    1.114   .     S
C405   H426    1.111   .     S
C405   O457    1.411   .     S
C405   C406    1.532   .     S
C406   H427    1.112   .     S
C406   H428    1.112   .     S
C407   H429    1.111   .     S
C407   H430    1.110   .     S
C407   H431    1.109   .     S
C407   C500    1.525   .     S
C408   H433    1.112   .     S
C408   O458    1.417   .     S
C408   C409    1.532   .     S
C408   H526    1.109   .     S
C409   C411    1.526   .     S
C409   H435    1.111   .     S
C409   H436    1.111   .     S
C410   O458    1.385   .     S
C410   C1246   1.393   .     S
C411   H437    1.111   .     S
C411   H438    1.110   .     S
C411   H533    1.111   .     S
C412   O459    1.220   .     D
C412   H440    1.084   .     S
C413   H441    1.084   .     S
C413   O460    1.220   .     D
C414   H442    1.076   .     S
C414   O461    1.221   .     D
C415   H443    1.076   .     S
C415   O462    1.221   .     D
C416   H444    1.083   .     S
C417   C420    1.402   .     A
C417   H445    1.083   .     S
C417   C513    1.383   .     S
C418   H446    1.083   .     S
C418   C420    1.399   .     A
C418   C510    1.383   .     S
C419   H447    1.082   .     S
Cu421  Cu422   2.713   .     S
Cu421  O468    1.960   .     S
Cu421  O464    1.959   .     S
Cu421  O466    1.965   .     S
Cu421  N451    2.039   .     S
Cu421  O453    1.963   .     S
Cu422  N452    2.039   .     S
Cu422  O465    1.959   .     S
Cu422  O467    1.965   .     S
Cu422  O463    1.963   .     S
Cu422  O469    1.960   .     S
C471   O547    1.303   .     A
C471   C472    1.449   .     S
C471   O559    1.300   .     A
C472   C513    1.399   .     A
C472   C510    1.402   .     A
C473   N546    1.374   .     A
C473   C506    1.475   .     S
C474   N545    1.372   .     A
C474   C507    1.476   .     S
C474   C757    1.429   .     S
C475   C508    1.472   .     S
C475   N546    1.378   .     A
C476   N545    1.378   .     A
C476   C509    1.478   .     S
C476   C755    1.430   .     S
C477   O563    1.300   .     A
C477   O560    1.299   .     A
C477   C483    1.452   .     S
C478   O562    1.296   .     A
C478   O561    1.305   .     A
C478   C481    1.458   .     S
C479   C495    1.490   .     S
C479   C490    1.416   .     A
C479   C481    1.409   .     A
C480   C496    1.492   .     S
C480   C491    1.408   .     A
C480   C483    1.403   .     A
C481   C484    1.411   .     A
C482   O558    1.299   .     A
C482   O557    1.303   .     A
C482   C514    1.449   .     S
C483   C485    1.409   .     A
C484   C497    1.493   .     S
C484   C486    1.411   .     A
C485   C487    1.414   .     A
C485   C498    1.491   .     S
C486   C488    1.417   .     A
C486   C492    1.411   .     A
C487   C494    1.403   .     A
C487   C489    1.416   .     A
C488   C490    1.421   .     A
C488   C1335   1.414   .     S
C489   C491    1.415   .     A
C489   C1334   1.414   1_554 S
C490   C504    1.418   .     A
C491   C493    1.409   .     A
C492   H517    1.079   .     S
C492   C1339   1.402   .     S
C493   O551    1.392   .     S
C493   C1338   1.402   1_554 S
C494   H528    1.080   .     S
C494   C1350   1.393   1_554 S
C495   O564    1.221   .     D
C495   H542    1.085   .     S
C496   O548    1.221   .     D
C496   H543    1.083   .     S
C497   O549    1.221   .     D
C497   H544    1.084   .     S
C498   H518    1.085   .     S
C498   O550    1.221   .     D
C499   H519    1.114   .     S
C499   H520    1.111   .     S
C499   O551    1.411   .     S
C499   C500    1.532   .     S
C500   H521    1.112   .     S
C500   H522    1.112   .     S
C501   H523    1.111   .     S
C501   H524    1.110   .     S
C501   H525    1.109   .     S
C501   C312    1.525   1_655 S
C502   H527    1.112   .     S
C502   O552    1.417   .     S
C502   C503    1.532   .     S
C502   H338    1.109   1_655 S
C503   C505    1.526   .     S
C503   H529    1.111   .     S
C503   H530    1.111   .     S
C504   O552    1.385   .     S
C504   C1340   1.393   .     S
C505   H531    1.111   .     S
C505   H532    1.110   .     S
C505   H345    1.111   1_655 S
C506   O553    1.220   .     D
C506   H534    1.084   .     S
C507   H535    1.084   .     S
C507   O554    1.220   .     D
C508   H536    1.076   .     S
C508   O555    1.221   .     D
C509   H537    1.076   .     S
C509   O556    1.221   .     D
C510   H538    1.083   .     S
C511   C514    1.402   .     A
C511   H539    1.083   .     S
C511   C325    1.383   1_655 S
C512   H540    1.083   .     S
C512   C514    1.399   .     A
C512   C322    1.383   1_655 S
C513   H541    1.082   .     S
Cu515  Cu516   2.713   .     S
Cu515  O562    1.960   .     S
Cu515  O558    1.959   .     S
Cu515  O560    1.965   .     S
Cu515  N545    2.039   .     S
Cu515  O547    1.963   .     S
Cu516  N546    2.039   .     S
Cu516  O559    1.959   .     S
Cu516  O561    1.965   .     S
Cu516  O557    1.963   .     S
Cu516  O563    1.960   .     S
C565   O641    1.303   .     A
C565   C566    1.449   .     S
C565   O653    1.300   .     A
C566   C607    1.399   .     A
C566   C604    1.402   .     A
C567   N640    1.374   .     A
C567   C600    1.475   .     S
C568   N639    1.372   .     A
C568   C601    1.476   .     S
C568   C5      1.429   1_565 S
C569   C602    1.472   .     S
C569   N640    1.378   .     A
C570   N639    1.378   .     A
C570   C603    1.478   .     S
C570   C3      1.430   1_565 S
C571   O657    1.300   .     A
C571   O654    1.299   .     A
C571   C577    1.452   .     S
C572   O656    1.296   .     A
C572   O655    1.305   .     A
C572   C575    1.458   .     S
C573   C589    1.490   .     S
C573   C584    1.416   .     A
C573   C575    1.409   .     A
C574   C590    1.492   .     S
C574   C585    1.408   .     A
C574   C577    1.403   .     A
C575   C578    1.411   .     A
C576   O652    1.299   .     A
C576   O651    1.303   .     A
C576   C608    1.449   .     S
C577   C579    1.409   .     A
C578   C591    1.493   .     S
C578   C580    1.411   .     A
C579   C581    1.414   .     A
C579   C592    1.491   .     S
C580   C582    1.417   .     A
C580   C586    1.411   .     A
C581   C588    1.403   .     A
C581   C583    1.416   .     A
C582   C584    1.421   .     A
C582   C1429   1.414   .     S
C583   C585    1.415   .     A
C583   C1428   1.414   1_554 S
C584   C598    1.418   .     A
C585   C587    1.409   .     A
C586   H611    1.079   .     S
C586   C1433   1.402   .     S
C587   O645    1.392   .     S
C587   C1432   1.402   1_554 S
C588   H622    1.080   .     S
C588   C1444   1.393   1_554 S
C589   O658    1.221   .     D
C589   H636    1.085   .     S
C590   O642    1.221   .     D
C590   H637    1.083   .     S
C591   O643    1.221   .     D
C591   H638    1.084   .     S
C592   H612    1.085   .     S
C592   O644    1.221   .     D
C593   H613    1.114   .     S
C593   H614    1.111   .     S
C593   O645    1.411   .     S
C593   C594    1.532   .     S
C594   H615    1.112   .     S
C594   H616    1.112   .     S
C594   C783    1.525   1_455 S
C595   H617    1.111   .     S
C595   H618    1.110   .     S
C595   H619    1.109   .     S
C595   C688    1.525   .     S
C596   H621    1.112   .     S
C596   O646    1.417   .     S
C596   C597    1.532   .     S
C596   H714    1.109   .     S
C597   C599    1.526   .     S
C597   H623    1.111   .     S
C597   H624    1.111   .     S
C598   O646    1.385   .     S
C598   C1434   1.393   .     S
C599   H625    1.111   .     S
C599   H626    1.110   .     S
C599   H721    1.111   .     S
C600   O647    1.220   .     D
C600   H628    1.084   .     S
C601   H629    1.084   .     S
C601   O648    1.220   .     D
C602   H630    1.076   .     S
C602   O649    1.221   .     D
C603   H631    1.076   .     S
C603   O650    1.221   .     D
C604   H632    1.083   .     S
C604   C794    1.383   1_455 S
C605   C608    1.402   .     A
C605   H633    1.083   .     S
C605   C701    1.383   .     S
C606   H634    1.083   .     S
C606   C608    1.399   .     A
C606   C698    1.383   .     S
C607   H635    1.082   .     S
C607   C793    1.383   1_455 S
Cu609  Cu610   2.713   .     S
Cu609  O656    1.960   .     S
Cu609  O652    1.959   .     S
Cu609  O654    1.965   .     S
Cu609  N639    2.039   .     S
Cu609  O641    1.963   .     S
Cu610  N640    2.039   .     S
Cu610  O653    1.959   .     S
Cu610  O655    1.965   .     S
Cu610  O651    1.963   .     S
Cu610  O657    1.960   .     S
H620   C784    1.109   1_455 S
H627   C787    1.111   1_455 S
C659   O735    1.303   .     A
C659   C660    1.449   .     S
C659   O747    1.300   .     A
C660   C701    1.399   .     A
C660   C698    1.402   .     A
C661   N734    1.374   .     A
C661   C694    1.475   .     S
C662   N733    1.372   .     A
C662   C695    1.476   .     S
C662   C99     1.429   1_565 S
C663   C696    1.472   .     S
C663   N734    1.378   .     A
C664   N733    1.378   .     A
C664   C697    1.478   .     S
C664   C97     1.430   1_565 S
C665   O751    1.300   .     A
C665   O748    1.299   .     A
C665   C671    1.452   .     S
C666   O750    1.296   .     A
C666   O749    1.305   .     A
C666   C669    1.458   .     S
C667   C683    1.490   .     S
C667   C678    1.416   .     A
C667   C669    1.409   .     A
C668   C684    1.492   .     S
C668   C679    1.408   .     A
C668   C671    1.403   .     A
C669   C672    1.411   .     A
C670   O746    1.299   .     A
C670   O745    1.303   .     A
C670   C702    1.449   .     S
C671   C673    1.409   .     A
C672   C685    1.493   .     S
C672   C674    1.411   .     A
C673   C675    1.414   .     A
C673   C686    1.491   .     S
C674   C676    1.417   .     A
C674   C680    1.411   .     A
C675   C682    1.403   .     A
C675   C677    1.416   .     A
C676   C678    1.421   .     A
C676   C1523   1.414   .     S
C677   C679    1.415   .     A
C677   C1522   1.414   1_554 S
C678   C692    1.418   .     A
C679   C681    1.409   .     A
C680   H705    1.079   .     S
C680   C1527   1.402   .     S
C681   O739    1.392   .     S
C681   C1526   1.402   1_554 S
C682   H716    1.080   .     S
C682   C1538   1.393   1_554 S
C683   O752    1.221   .     D
C683   H730    1.085   .     S
C684   O736    1.221   .     D
C684   H731    1.083   .     S
C685   O737    1.221   .     D
C685   H732    1.084   .     S
C686   H706    1.085   .     S
C686   O738    1.221   .     D
C687   H707    1.114   .     S
C687   H708    1.111   .     S
C687   O739    1.411   .     S
C687   C688    1.532   .     S
C688   H709    1.112   .     S
C688   H710    1.112   .     S
C689   H711    1.111   .     S
C689   H712    1.110   .     S
C689   H713    1.109   .     S
C689   C782    1.525   .     S
C690   H715    1.112   .     S
C690   O740    1.417   .     S
C690   C691    1.532   .     S
C690   H808    1.109   .     S
C691   C693    1.526   .     S
C691   H717    1.111   .     S
C691   H718    1.111   .     S
C692   O740    1.385   .     S
C692   C1528   1.393   .     S
C693   H719    1.111   .     S
C693   H720    1.110   .     S
C693   H815    1.111   .     S
C694   O741    1.220   .     D
C694   H722    1.084   .     S
C695   H723    1.084   .     S
C695   O742    1.220   .     D
C696   H724    1.076   .     S
C696   O743    1.221   .     D
C697   H725    1.076   .     S
C697   O744    1.221   .     D
C698   H726    1.083   .     S
C699   C702    1.402   .     A
C699   H727    1.083   .     S
C699   C795    1.383   .     S
C700   H728    1.083   .     S
C700   C702    1.399   .     A
C700   C792    1.383   .     S
C701   H729    1.082   .     S
Cu703  Cu704   2.713   .     S
Cu703  O750    1.960   .     S
Cu703  O746    1.959   .     S
Cu703  O748    1.965   .     S
Cu703  N733    2.039   .     S
Cu703  O735    1.963   .     S
Cu704  N734    2.039   .     S
Cu704  O747    1.959   .     S
Cu704  O749    1.965   .     S
Cu704  O745    1.963   .     S
Cu704  O751    1.960   .     S
C753   O829    1.303   .     A
C753   C754    1.449   .     S
C753   O841    1.300   .     A
C754   C795    1.399   .     A
C754   C792    1.402   .     A
C755   N828    1.374   .     A
C755   C788    1.475   .     S
C756   N827    1.372   .     A
C756   C789    1.476   .     S
C756   C193    1.429   1_565 S
C757   C790    1.472   .     S
C757   N828    1.378   .     A
C758   N827    1.378   .     A
C758   C791    1.478   .     S
C758   C191    1.430   1_565 S
C759   O845    1.300   .     A
C759   O842    1.299   .     A
C759   C765    1.452   .     S
C760   O844    1.296   .     A
C760   O843    1.305   .     A
C760   C763    1.458   .     S
C761   C777    1.490   .     S
C761   C772    1.416   .     A
C761   C763    1.409   .     A
C762   C778    1.492   .     S
C762   C773    1.408   .     A
C762   C765    1.403   .     A
C763   C766    1.411   .     A
C764   O840    1.299   .     A
C764   O839    1.303   .     A
C764   C796    1.449   .     S
C765   C767    1.409   .     A
C766   C779    1.493   .     S
C766   C768    1.411   .     A
C767   C769    1.414   .     A
C767   C780    1.491   .     S
C768   C770    1.417   .     A
C768   C774    1.411   .     A
C769   C776    1.403   .     A
C769   C771    1.416   .     A
C770   C772    1.421   .     A
C770   C1617   1.414   .     S
C771   C773    1.415   .     A
C771   C1616   1.414   1_554 S
C772   C786    1.418   .     A
C773   C775    1.409   .     A
C774   H799    1.079   .     S
C774   C1621   1.402   .     S
C775   O833    1.392   .     S
C775   C1620   1.402   1_554 S
C776   H810    1.080   .     S
C776   C1632   1.393   1_554 S
C777   O846    1.221   .     D
C777   H824    1.085   .     S
C778   O830    1.221   .     D
C778   H825    1.083   .     S
C779   O831    1.221   .     D
C779   H826    1.084   .     S
C780   H800    1.085   .     S
C780   O832    1.221   .     D
C781   H801    1.114   .     S
C781   H802    1.111   .     S
C781   O833    1.411   .     S
C781   C782    1.532   .     S
C782   H803    1.112   .     S
C782   H804    1.112   .     S
C783   H805    1.111   .     S
C783   H806    1.110   .     S
C783   H807    1.109   .     S
C783   C594    1.525   1_655 S
C784   H809    1.112   .     S
C784   O834    1.417   .     S
C784   C785    1.532   .     S
C784   H620    1.109   1_655 S
C785   C787    1.526   .     S
C785   H811    1.111   .     S
C785   H812    1.111   .     S
C786   O834    1.385   .     S
C786   C1622   1.393   .     S
C787   H813    1.111   .     S
C787   H814    1.110   .     S
C787   H627    1.111   1_655 S
C788   O835    1.220   .     D
C788   H816    1.084   .     S
C789   H817    1.084   .     S
C789   O836    1.220   .     D
C790   H818    1.076   .     S
C790   O837    1.221   .     D
C791   H819    1.076   .     S
C791   O838    1.221   .     D
C792   H820    1.083   .     S
C793   C796    1.402   .     A
C793   H821    1.083   .     S
C793   C607    1.383   1_655 S
C794   H822    1.083   .     S
C794   C796    1.399   .     A
C794   C604    1.383   1_655 S
C795   H823    1.082   .     S
Cu797  Cu798   2.713   .     S
Cu797  O844    1.960   .     S
Cu797  O840    1.959   .     S
Cu797  O842    1.965   .     S
Cu797  N827    2.039   .     S
Cu797  O829    1.963   .     S
Cu798  N828    2.039   .     S
Cu798  O841    1.959   .     S
Cu798  O843    1.965   .     S
Cu798  O839    1.963   .     S
Cu798  O845    1.960   .     S
C847   O923    1.303   .     A
C847   C848    1.449   .     S
C847   O935    1.300   .     A
C848   C889    1.399   .     A
C848   C886    1.402   .     A
C849   N922    1.374   .     A
C849   C882    1.475   .     S
C849   C1416   1.430   1_545 S
C850   N921    1.372   .     A
C850   C883    1.476   .     S
C850   C1133   1.429   .     S
C851   C884    1.472   .     S
C851   N922    1.378   .     A
C851   C1414   1.429   1_545 S
C852   N921    1.378   .     A
C852   C885    1.478   .     S
C852   C1131   1.430   .     S
C853   O939    1.300   .     A
C853   O936    1.299   .     A
C853   C859    1.452   .     S
C854   O938    1.296   .     A
C854   O937    1.305   .     A
C854   C857    1.458   .     S
C855   C871    1.490   .     S
C855   C866    1.416   .     A
C855   C857    1.409   .     A
C856   C872    1.492   .     S
C856   C867    1.408   .     A
C856   C859    1.403   .     A
C857   C860    1.411   .     A
C858   O934    1.299   .     A
C858   O933    1.303   .     A
C858   C890    1.449   .     S
C859   C861    1.409   .     A
C860   C873    1.493   .     S
C860   C862    1.411   .     A
C861   C863    1.414   .     A
C861   C874    1.491   .     S
C862   C864    1.417   .     A
C862   C868    1.411   .     A
C863   C870    1.403   .     A
C863   C865    1.416   .     A
C864   C866    1.421   .     A
C864   C19     1.414   1_556 S
C865   C867    1.415   .     A
C866   C880    1.418   .     A
C867   C869    1.409   .     A
C868   H893    1.079   .     S
C868   C23     1.402   1_556 S
C869   O927    1.392   .     S
C870   H904    1.080   .     S
C871   O940    1.221   .     D
C871   H918    1.085   .     S
C872   O924    1.221   .     D
C872   H919    1.083   .     S
C873   O925    1.221   .     D
C873   H920    1.084   .     S
C874   H894    1.085   .     S
C874   O926    1.221   .     D
C875   H895    1.114   .     S
C875   H896    1.111   .     S
C875   O927    1.411   .     S
C875   C876    1.532   .     S
C876   H897    1.112   .     S
C876   H898    1.112   .     S
C876   C1065   1.525   1_455 S
C877   H899    1.111   .     S
C877   H900    1.110   .     S
C877   H901    1.109   .     S
C877   C970    1.525   .     S
C878   H903    1.112   .     S
C878   O928    1.417   .     S
C878   C879    1.532   .     S
C878   H996    1.109   .     S
C879   C881    1.526   .     S
C879   H905    1.111   .     S
C879   H906    1.111   .     S
C880   O928    1.385   .     S
C880   C24     1.393   1_556 S
C881   H907    1.111   .     S
C881   H908    1.110   .     S
C881   H1003   1.111   .     S
C882   O929    1.220   .     D
C882   H910    1.084   .     S
C883   H911    1.084   .     S
C883   O930    1.220   .     D
C884   H912    1.076   .     S
C884   O931    1.221   .     D
C885   H913    1.076   .     S
C885   O932    1.221   .     D
C886   H914    1.083   .     S
C886   C1076   1.383   1_455 S
C887   C890    1.402   .     A
C887   H915    1.083   .     S
C887   C983    1.383   .     S
C888   H916    1.083   .     S
C888   C890    1.399   .     A
C888   C980    1.383   .     S
C889   H917    1.082   .     S
C889   C1075   1.383   1_455 S
Cu891  Cu892   2.713   .     S
Cu891  O938    1.960   .     S
Cu891  O934    1.959   .     S
Cu891  O936    1.965   .     S
Cu891  N921    2.039   .     S
Cu891  O923    1.963   .     S
Cu892  N922    2.039   .     S
Cu892  O935    1.959   .     S
Cu892  O937    1.965   .     S
Cu892  O933    1.963   .     S
Cu892  O939    1.960   .     S
H902   C1066   1.109   1_455 S
H909   C1069   1.111   1_455 S
C941   O1017   1.303   .     A
C941   C942    1.449   .     S
C941   O1029   1.300   .     A
C942   C983    1.399   .     A
C942   C980    1.402   .     A
C943   N1016   1.374   .     A
C943   C976    1.475   .     S
C943   C1510   1.430   1_545 S
C944   N1015   1.372   .     A
C944   C977    1.476   .     S
C944   C1227   1.429   .     S
C945   C978    1.472   .     S
C945   N1016   1.378   .     A
C945   C1508   1.429   1_545 S
C946   N1015   1.378   .     A
C946   C979    1.478   .     S
C946   C1225   1.430   .     S
C947   O1033   1.300   .     A
C947   O1030   1.299   .     A
C947   C953    1.452   .     S
C948   O1032   1.296   .     A
C948   O1031   1.305   .     A
C948   C951    1.458   .     S
C949   C965    1.490   .     S
C949   C960    1.416   .     A
C949   C951    1.409   .     A
C950   C966    1.492   .     S
C950   C961    1.408   .     A
C950   C953    1.403   .     A
C951   C954    1.411   .     A
C952   O1028   1.299   .     A
C952   O1027   1.303   .     A
C952   C984    1.449   .     S
C953   C955    1.409   .     A
C954   C967    1.493   .     S
C954   C956    1.411   .     A
C955   C957    1.414   .     A
C955   C968    1.491   .     S
C956   C958    1.417   .     A
C956   C962    1.411   .     A
C957   C964    1.403   .     A
C957   C959    1.416   .     A
C958   C960    1.421   .     A
C958   C113    1.414   1_556 S
C959   C961    1.415   .     A
C960   C974    1.418   .     A
C961   C963    1.409   .     A
C962   H987    1.079   .     S
C962   C117    1.402   1_556 S
C963   O1021   1.392   .     S
C964   H998    1.080   .     S
C965   O1034   1.221   .     D
C965   H1012   1.085   .     S
C966   O1018   1.221   .     D
C966   H1013   1.083   .     S
C967   O1019   1.221   .     D
C967   H1014   1.084   .     S
C968   H988    1.085   .     S
C968   O1020   1.221   .     D
C969   H989    1.114   .     S
C969   H990    1.111   .     S
C969   O1021   1.411   .     S
C969   C970    1.532   .     S
C970   H991    1.112   .     S
C970   H992    1.112   .     S
C971   H993    1.111   .     S
C971   H994    1.110   .     S
C971   H995    1.109   .     S
C971   C1064   1.525   .     S
C972   H997    1.112   .     S
C972   O1022   1.417   .     S
C972   C973    1.532   .     S
C972   H1090   1.109   .     S
C973   C975    1.526   .     S
C973   H999    1.111   .     S
C973   H1000   1.111   .     S
C974   O1022   1.385   .     S
C974   C118    1.393   1_556 S
C975   H1001   1.111   .     S
C975   H1002   1.110   .     S
C975   H1097   1.111   .     S
C976   O1023   1.220   .     D
C976   H1004   1.084   .     S
C977   H1005   1.084   .     S
C977   O1024   1.220   .     D
C978   H1006   1.076   .     S
C978   O1025   1.221   .     D
C979   H1007   1.076   .     S
C979   O1026   1.221   .     D
C980   H1008   1.083   .     S
C981   C984    1.402   .     A
C981   H1009   1.083   .     S
C981   C1077   1.383   .     S
C982   H1010   1.083   .     S
C982   C984    1.399   .     A
C982   C1074   1.383   .     S
C983   H1011   1.082   .     S
Cu985  Cu986   2.713   .     S
Cu985  O1032   1.960   .     S
Cu985  O1028   1.959   .     S
Cu985  O1030   1.965   .     S
Cu985  N1015   2.039   .     S
Cu985  O1017   1.963   .     S
Cu986  N1016   2.039   .     S
Cu986  O1029   1.959   .     S
Cu986  O1031   1.965   .     S
Cu986  O1027   1.963   .     S
Cu986  O1033   1.960   .     S
C1035  O1111   1.303   .     A
C1035  C1036   1.449   .     S
C1035  O1123   1.300   .     A
C1036  C1077   1.399   .     A
C1036  C1074   1.402   .     A
C1037  N1110   1.374   .     A
C1037  C1070   1.475   .     S
C1037  C1604   1.430   1_545 S
C1038  N1109   1.372   .     A
C1038  C1071   1.476   .     S
C1038  C1321   1.429   .     S
C1039  C1072   1.472   .     S
C1039  N1110   1.378   .     A
C1039  C1602   1.429   1_545 S
C1040  N1109   1.378   .     A
C1040  C1073   1.478   .     S
C1040  C1319   1.430   .     S
C1041  O1127   1.300   .     A
C1041  O1124   1.299   .     A
C1041  C1047   1.452   .     S
C1042  O1126   1.296   .     A
C1042  O1125   1.305   .     A
C1042  C1045   1.458   .     S
C1043  C1059   1.490   .     S
C1043  C1054   1.416   .     A
C1043  C1045   1.409   .     A
C1044  C1060   1.492   .     S
C1044  C1055   1.408   .     A
C1044  C1047   1.403   .     A
C1045  C1048   1.411   .     A
C1046  O1122   1.299   .     A
C1046  O1121   1.303   .     A
C1046  C1078   1.449   .     S
C1047  C1049   1.409   .     A
C1048  C1061   1.493   .     S
C1048  C1050   1.411   .     A
C1049  C1051   1.414   .     A
C1049  C1062   1.491   .     S
C1050  C1052   1.417   .     A
C1050  C1056   1.411   .     A
C1051  C1058   1.403   .     A
C1051  C1053   1.416   .     A
C1052  C1054   1.421   .     A
C1052  C207    1.414   1_556 S
C1053  C1055   1.415   .     A
C1054  C1068   1.418   .     A
C1055  C1057   1.409   .     A
C1056  H1081   1.079   .     S
C1056  C211    1.402   1_556 S
C1057  O1115   1.392   .     S
C1058  H1092   1.080   .     S
C1059  O1128   1.221   .     D
C1059  H1106   1.085   .     S
C1060  O1112   1.221   .     D
C1060  H1107   1.083   .     S
C1061  O1113   1.221   .     D
C1061  H1108   1.084   .     S
C1062  H1082   1.085   .     S
C1062  O1114   1.221   .     D
C1063  H1083   1.114   .     S
C1063  H1084   1.111   .     S
C1063  O1115   1.411   .     S
C1063  C1064   1.532   .     S
C1064  H1085   1.112   .     S
C1064  H1086   1.112   .     S
C1065  H1087   1.111   .     S
C1065  H1088   1.110   .     S
C1065  H1089   1.109   .     S
C1065  C876    1.525   1_655 S
C1066  H1091   1.112   .     S
C1066  O1116   1.417   .     S
C1066  C1067   1.532   .     S
C1066  H902    1.109   1_655 S
C1067  C1069   1.526   .     S
C1067  H1093   1.111   .     S
C1067  H1094   1.111   .     S
C1068  O1116   1.385   .     S
C1068  C212    1.393   1_556 S
C1069  H1095   1.111   .     S
C1069  H1096   1.110   .     S
C1069  H909    1.111   1_655 S
C1070  O1117   1.220   .     D
C1070  H1098   1.084   .     S
C1071  H1099   1.084   .     S
C1071  O1118   1.220   .     D
C1072  H1100   1.076   .     S
C1072  O1119   1.221   .     D
C1073  H1101   1.076   .     S
C1073  O1120   1.221   .     D
C1074  H1102   1.083   .     S
C1075  C1078   1.402   .     A
C1075  H1103   1.083   .     S
C1075  C889    1.383   1_655 S
C1076  H1104   1.083   .     S
C1076  C1078   1.399   .     A
C1076  C886    1.383   1_655 S
C1077  H1105   1.082   .     S
Cu1079 Cu1080  2.713   .     S
Cu1079 O1126   1.960   .     S
Cu1079 O1122   1.959   .     S
Cu1079 O1124   1.965   .     S
Cu1079 N1109   2.039   .     S
Cu1079 O1111   1.963   .     S
Cu1080 N1110   2.039   .     S
Cu1080 O1123   1.959   .     S
Cu1080 O1125   1.965   .     S
Cu1080 O1121   1.963   .     S
Cu1080 O1127   1.960   .     S
C1129  O1205   1.303   .     A
C1129  C1130   1.449   .     S
C1129  O1217   1.300   .     A
C1130  C1171   1.399   .     A
C1130  C1168   1.402   .     A
C1131  N1204   1.374   .     A
C1131  C1164   1.475   .     S
C1132  N1203   1.372   .     A
C1132  C1165   1.476   .     S
C1132  C1415   1.429   .     S
C1133  C1166   1.472   .     S
C1133  N1204   1.378   .     A
C1134  N1203   1.378   .     A
C1134  C1167   1.478   .     S
C1134  C1413   1.430   .     S
C1135  O1221   1.300   .     A
C1135  O1218   1.299   .     A
C1135  C1141   1.452   .     S
C1136  O1220   1.296   .     A
C1136  O1219   1.305   .     A
C1136  C1139   1.458   .     S
C1137  C1153   1.490   .     S
C1137  C1148   1.416   .     A
C1137  C1139   1.409   .     A
C1138  C1154   1.492   .     S
C1138  C1149   1.408   .     A
C1138  C1141   1.403   .     A
C1139  C1142   1.411   .     A
C1140  O1216   1.299   .     A
C1140  O1215   1.303   .     A
C1140  C1172   1.449   .     S
C1141  C1143   1.409   .     A
C1142  C1155   1.493   .     S
C1142  C1144   1.411   .     A
C1143  C1145   1.414   .     A
C1143  C1156   1.491   .     S
C1144  C1146   1.417   .     A
C1144  C1150   1.411   .     A
C1145  C1152   1.403   .     A
C1145  C1147   1.416   .     A
C1146  C1148   1.421   .     A
C1146  C301    1.414   1_556 S
C1147  C1149   1.415   .     A
C1148  C1162   1.418   .     A
C1149  C1151   1.409   .     A
C1150  H1175   1.079   .     S
C1150  C305    1.402   1_556 S
C1151  O1209   1.392   .     S
C1152  H1186   1.080   .     S
C1153  O1222   1.221   .     D
C1153  H1200   1.085   .     S
C1154  O1206   1.221   .     D
C1154  H1201   1.083   .     S
C1155  O1207   1.221   .     D
C1155  H1202   1.084   .     S
C1156  H1176   1.085   .     S
C1156  O1208   1.221   .     D
C1157  H1177   1.114   .     S
C1157  H1178   1.111   .     S
C1157  O1209   1.411   .     S
C1157  C1158   1.532   .     S
C1158  H1179   1.112   .     S
C1158  H1180   1.112   .     S
C1158  C1347   1.525   1_455 S
C1159  H1181   1.111   .     S
C1159  H1182   1.110   .     S
C1159  H1183   1.109   .     S
C1159  C1252   1.525   .     S
C1160  H1185   1.112   .     S
C1160  O1210   1.417   .     S
C1160  C1161   1.532   .     S
C1160  H1278   1.109   .     S
C1161  C1163   1.526   .     S
C1161  H1187   1.111   .     S
C1161  H1188   1.111   .     S
C1162  O1210   1.385   .     S
C1162  C306    1.393   1_556 S
C1163  H1189   1.111   .     S
C1163  H1190   1.110   .     S
C1163  H1285   1.111   .     S
C1164  O1211   1.220   .     D
C1164  H1192   1.084   .     S
C1165  H1193   1.084   .     S
C1165  O1212   1.220   .     D
C1166  H1194   1.076   .     S
C1166  O1213   1.221   .     D
C1167  H1195   1.076   .     S
C1167  O1214   1.221   .     D
C1168  H1196   1.083   .     S
C1168  C1358   1.383   1_455 S
C1169  C1172   1.402   .     A
C1169  H1197   1.083   .     S
C1169  C1265   1.383   .     S
C1170  H1198   1.083   .     S
C1170  C1172   1.399   .     A
C1170  C1262   1.383   .     S
C1171  H1199   1.082   .     S
C1171  C1357   1.383   1_455 S
Cu1173 Cu1174  2.713   .     S
Cu1173 O1220   1.960   .     S
Cu1173 O1216   1.959   .     S
Cu1173 O1218   1.965   .     S
Cu1173 N1203   2.039   .     S
Cu1173 O1205   1.963   .     S
Cu1174 N1204   2.039   .     S
Cu1174 O1217   1.959   .     S
Cu1174 O1219   1.965   .     S
Cu1174 O1215   1.963   .     S
Cu1174 O1221   1.960   .     S
H1184  C1348   1.109   1_455 S
H1191  C1351   1.111   1_455 S
C1223  O1299   1.303   .     A
C1223  C1224   1.449   .     S
C1223  O1311   1.300   .     A
C1224  C1265   1.399   .     A
C1224  C1262   1.402   .     A
C1225  N1298   1.374   .     A
C1225  C1258   1.475   .     S
C1226  N1297   1.372   .     A
C1226  C1259   1.476   .     S
C1226  C1509   1.429   .     S
C1227  C1260   1.472   .     S
C1227  N1298   1.378   .     A
C1228  N1297   1.378   .     A
C1228  C1261   1.478   .     S
C1228  C1507   1.430   .     S
C1229  O1315   1.300   .     A
C1229  O1312   1.299   .     A
C1229  C1235   1.452   .     S
C1230  O1314   1.296   .     A
C1230  O1313   1.305   .     A
C1230  C1233   1.458   .     S
C1231  C1247   1.490   .     S
C1231  C1242   1.416   .     A
C1231  C1233   1.409   .     A
C1232  C1248   1.492   .     S
C1232  C1243   1.408   .     A
C1232  C1235   1.403   .     A
C1233  C1236   1.411   .     A
C1234  O1310   1.299   .     A
C1234  O1309   1.303   .     A
C1234  C1266   1.449   .     S
C1235  C1237   1.409   .     A
C1236  C1249   1.493   .     S
C1236  C1238   1.411   .     A
C1237  C1239   1.414   .     A
C1237  C1250   1.491   .     S
C1238  C1240   1.417   .     A
C1238  C1244   1.411   .     A
C1239  C1246   1.403   .     A
C1239  C1241   1.416   .     A
C1240  C1242   1.421   .     A
C1240  C395    1.414   1_556 S
C1241  C1243   1.415   .     A
C1242  C1256   1.418   .     A
C1243  C1245   1.409   .     A
C1244  H1269   1.079   .     S
C1244  C399    1.402   1_556 S
C1245  O1303   1.392   .     S
C1246  H1280   1.080   .     S
C1247  O1316   1.221   .     D
C1247  H1294   1.085   .     S
C1248  O1300   1.221   .     D
C1248  H1295   1.083   .     S
C1249  O1301   1.221   .     D
C1249  H1296   1.084   .     S
C1250  H1270   1.085   .     S
C1250  O1302   1.221   .     D
C1251  H1271   1.114   .     S
C1251  H1272   1.111   .     S
C1251  O1303   1.411   .     S
C1251  C1252   1.532   .     S
C1252  H1273   1.112   .     S
C1252  H1274   1.112   .     S
C1253  H1275   1.111   .     S
C1253  H1276   1.110   .     S
C1253  H1277   1.109   .     S
C1253  C1346   1.525   .     S
C1254  H1279   1.112   .     S
C1254  O1304   1.417   .     S
C1254  C1255   1.532   .     S
C1254  H1372   1.109   .     S
C1255  C1257   1.526   .     S
C1255  H1281   1.111   .     S
C1255  H1282   1.111   .     S
C1256  O1304   1.385   .     S
C1256  C400    1.393   1_556 S
C1257  H1283   1.111   .     S
C1257  H1284   1.110   .     S
C1257  H1379   1.111   .     S
C1258  O1305   1.220   .     D
C1258  H1286   1.084   .     S
C1259  H1287   1.084   .     S
C1259  O1306   1.220   .     D
C1260  H1288   1.076   .     S
C1260  O1307   1.221   .     D
C1261  H1289   1.076   .     S
C1261  O1308   1.221   .     D
C1262  H1290   1.083   .     S
C1263  C1266   1.402   .     A
C1263  H1291   1.083   .     S
C1263  C1359   1.383   .     S
C1264  H1292   1.083   .     S
C1264  C1266   1.399   .     A
C1264  C1356   1.383   .     S
C1265  H1293   1.082   .     S
Cu1267 Cu1268  2.713   .     S
Cu1267 O1314   1.960   .     S
Cu1267 O1310   1.959   .     S
Cu1267 O1312   1.965   .     S
Cu1267 N1297   2.039   .     S
Cu1267 O1299   1.963   .     S
Cu1268 N1298   2.039   .     S
Cu1268 O1311   1.959   .     S
Cu1268 O1313   1.965   .     S
Cu1268 O1309   1.963   .     S
Cu1268 O1315   1.960   .     S
C1317  O1393   1.303   .     A
C1317  C1318   1.449   .     S
C1317  O1405   1.300   .     A
C1318  C1359   1.399   .     A
C1318  C1356   1.402   .     A
C1319  N1392   1.374   .     A
C1319  C1352   1.475   .     S
C1320  N1391   1.372   .     A
C1320  C1353   1.476   .     S
C1320  C1603   1.429   .     S
C1321  C1354   1.472   .     S
C1321  N1392   1.378   .     A
C1322  N1391   1.378   .     A
C1322  C1355   1.478   .     S
C1322  C1601   1.430   .     S
C1323  O1409   1.300   .     A
C1323  O1406   1.299   .     A
C1323  C1329   1.452   .     S
C1324  O1408   1.296   .     A
C1324  O1407   1.305   .     A
C1324  C1327   1.458   .     S
C1325  C1341   1.490   .     S
C1325  C1336   1.416   .     A
C1325  C1327   1.409   .     A
C1326  C1342   1.492   .     S
C1326  C1337   1.408   .     A
C1326  C1329   1.403   .     A
C1327  C1330   1.411   .     A
C1328  O1404   1.299   .     A
C1328  O1403   1.303   .     A
C1328  C1360   1.449   .     S
C1329  C1331   1.409   .     A
C1330  C1343   1.493   .     S
C1330  C1332   1.411   .     A
C1331  C1333   1.414   .     A
C1331  C1344   1.491   .     S
C1332  C1334   1.417   .     A
C1332  C1338   1.411   .     A
C1333  C1340   1.403   .     A
C1333  C1335   1.416   .     A
C1334  C1336   1.421   .     A
C1334  C489    1.414   1_556 S
C1335  C1337   1.415   .     A
C1336  C1350   1.418   .     A
C1337  C1339   1.409   .     A
C1338  H1363   1.079   .     S
C1338  C493    1.402   1_556 S
C1339  O1397   1.392   .     S
C1340  H1374   1.080   .     S
C1341  O1410   1.221   .     D
C1341  H1388   1.085   .     S
C1342  O1394   1.221   .     D
C1342  H1389   1.083   .     S
C1343  O1395   1.221   .     D
C1343  H1390   1.084   .     S
C1344  H1364   1.085   .     S
C1344  O1396   1.221   .     D
C1345  H1365   1.114   .     S
C1345  H1366   1.111   .     S
C1345  O1397   1.411   .     S
C1345  C1346   1.532   .     S
C1346  H1367   1.112   .     S
C1346  H1368   1.112   .     S
C1347  H1369   1.111   .     S
C1347  H1370   1.110   .     S
C1347  H1371   1.109   .     S
C1347  C1158   1.525   1_655 S
C1348  H1373   1.112   .     S
C1348  O1398   1.417   .     S
C1348  C1349   1.532   .     S
C1348  H1184   1.109   1_655 S
C1349  C1351   1.526   .     S
C1349  H1375   1.111   .     S
C1349  H1376   1.111   .     S
C1350  O1398   1.385   .     S
C1350  C494    1.393   1_556 S
C1351  H1377   1.111   .     S
C1351  H1378   1.110   .     S
C1351  H1191   1.111   1_655 S
C1352  O1399   1.220   .     D
C1352  H1380   1.084   .     S
C1353  H1381   1.084   .     S
C1353  O1400   1.220   .     D
C1354  H1382   1.076   .     S
C1354  O1401   1.221   .     D
C1355  H1383   1.076   .     S
C1355  O1402   1.221   .     D
C1356  H1384   1.083   .     S
C1357  C1360   1.402   .     A
C1357  H1385   1.083   .     S
C1357  C1171   1.383   1_655 S
C1358  H1386   1.083   .     S
C1358  C1360   1.399   .     A
C1358  C1168   1.383   1_655 S
C1359  H1387   1.082   .     S
Cu1361 Cu1362  2.713   .     S
Cu1361 O1408   1.960   .     S
Cu1361 O1404   1.959   .     S
Cu1361 O1406   1.965   .     S
Cu1361 N1391   2.039   .     S
Cu1361 O1393   1.963   .     S
Cu1362 N1392   2.039   .     S
Cu1362 O1405   1.959   .     S
Cu1362 O1407   1.965   .     S
Cu1362 O1403   1.963   .     S
Cu1362 O1409   1.960   .     S
C1411  O1487   1.303   .     A
C1411  C1412   1.449   .     S
C1411  O1499   1.300   .     A
C1412  C1453   1.399   .     A
C1412  C1450   1.402   .     A
C1413  N1486   1.374   .     A
C1413  C1446   1.475   .     S
C1414  N1485   1.372   .     A
C1414  C1447   1.476   .     S
C1414  C851    1.429   1_565 S
C1415  C1448   1.472   .     S
C1415  N1486   1.378   .     A
C1416  N1485   1.378   .     A
C1416  C1449   1.478   .     S
C1416  C849    1.430   1_565 S
C1417  O1503   1.300   .     A
C1417  O1500   1.299   .     A
C1417  C1423   1.452   .     S
C1418  O1502   1.296   .     A
C1418  O1501   1.305   .     A
C1418  C1421   1.458   .     S
C1419  C1435   1.490   .     S
C1419  C1430   1.416   .     A
C1419  C1421   1.409   .     A
C1420  C1436   1.492   .     S
C1420  C1431   1.408   .     A
C1420  C1423   1.403   .     A
C1421  C1424   1.411   .     A
C1422  O1498   1.299   .     A
C1422  O1497   1.303   .     A
C1422  C1454   1.449   .     S
C1423  C1425   1.409   .     A
C1424  C1437   1.493   .     S
C1424  C1426   1.411   .     A
C1425  C1427   1.414   .     A
C1425  C1438   1.491   .     S
C1426  C1428   1.417   .     A
C1426  C1432   1.411   .     A
C1427  C1434   1.403   .     A
C1427  C1429   1.416   .     A
C1428  C1430   1.421   .     A
C1428  C583    1.414   1_556 S
C1429  C1431   1.415   .     A
C1430  C1444   1.418   .     A
C1431  C1433   1.409   .     A
C1432  H1457   1.079   .     S
C1432  C587    1.402   1_556 S
C1433  O1491   1.392   .     S
C1434  H1468   1.080   .     S
C1435  O1504   1.221   .     D
C1435  H1482   1.085   .     S
C1436  O1488   1.221   .     D
C1436  H1483   1.083   .     S
C1437  O1489   1.221   .     D
C1437  H1484   1.084   .     S
C1438  H1458   1.085   .     S
C1438  O1490   1.221   .     D
C1439  H1459   1.114   .     S
C1439  H1460   1.111   .     S
C1439  O1491   1.411   .     S
C1439  C1440   1.532   .     S
C1440  H1461   1.112   .     S
C1440  H1462   1.112   .     S
C1440  C1629   1.525   1_455 S
C1441  H1463   1.111   .     S
C1441  H1464   1.110   .     S
C1441  H1465   1.109   .     S
C1441  C1534   1.525   .     S
C1442  H1467   1.112   .     S
C1442  O1492   1.417   .     S
C1442  C1443   1.532   .     S
C1442  H1560   1.109   .     S
C1443  C1445   1.526   .     S
C1443  H1469   1.111   .     S
C1443  H1470   1.111   .     S
C1444  O1492   1.385   .     S
C1444  C588    1.393   1_556 S
C1445  H1471   1.111   .     S
C1445  H1472   1.110   .     S
C1445  H1567   1.111   .     S
C1446  O1493   1.220   .     D
C1446  H1474   1.084   .     S
C1447  H1475   1.084   .     S
C1447  O1494   1.220   .     D
C1448  H1476   1.076   .     S
C1448  O1495   1.221   .     D
C1449  H1477   1.076   .     S
C1449  O1496   1.221   .     D
C1450  H1478   1.083   .     S
C1450  C1640   1.383   1_455 S
C1451  C1454   1.402   .     A
C1451  H1479   1.083   .     S
C1451  C1547   1.383   .     S
C1452  H1480   1.083   .     S
C1452  C1454   1.399   .     A
C1452  C1544   1.383   .     S
C1453  H1481   1.082   .     S
C1453  C1639   1.383   1_455 S
Cu1455 Cu1456  2.713   .     S
Cu1455 O1502   1.960   .     S
Cu1455 O1498   1.959   .     S
Cu1455 O1500   1.965   .     S
Cu1455 N1485   2.039   .     S
Cu1455 O1487   1.963   .     S
Cu1456 N1486   2.039   .     S
Cu1456 O1499   1.959   .     S
Cu1456 O1501   1.965   .     S
Cu1456 O1497   1.963   .     S
Cu1456 O1503   1.960   .     S
H1466  C1630   1.109   1_455 S
H1473  C1633   1.111   1_455 S
C1505  O1581   1.303   .     A
C1505  C1506   1.449   .     S
C1505  O1593   1.300   .     A
C1506  C1547   1.399   .     A
C1506  C1544   1.402   .     A
C1507  N1580   1.374   .     A
C1507  C1540   1.475   .     S
C1508  N1579   1.372   .     A
C1508  C1541   1.476   .     S
C1508  C945    1.429   1_565 S
C1509  C1542   1.472   .     S
C1509  N1580   1.378   .     A
C1510  N1579   1.378   .     A
C1510  C1543   1.478   .     S
C1510  C943    1.430   1_565 S
C1511  O1597   1.300   .     A
C1511  O1594   1.299   .     A
C1511  C1517   1.452   .     S
C1512  O1596   1.296   .     A
C1512  O1595   1.305   .     A
C1512  C1515   1.458   .     S
C1513  C1529   1.490   .     S
C1513  C1524   1.416   .     A
C1513  C1515   1.409   .     A
C1514  C1530   1.492   .     S
C1514  C1525   1.408   .     A
C1514  C1517   1.403   .     A
C1515  C1518   1.411   .     A
C1516  O1592   1.299   .     A
C1516  O1591   1.303   .     A
C1516  C1548   1.449   .     S
C1517  C1519   1.409   .     A
C1518  C1531   1.493   .     S
C1518  C1520   1.411   .     A
C1519  C1521   1.414   .     A
C1519  C1532   1.491   .     S
C1520  C1522   1.417   .     A
C1520  C1526   1.411   .     A
C1521  C1528   1.403   .     A
C1521  C1523   1.416   .     A
C1522  C1524   1.421   .     A
C1522  C677    1.414   1_556 S
C1523  C1525   1.415   .     A
C1524  C1538   1.418   .     A
C1525  C1527   1.409   .     A
C1526  H1551   1.079   .     S
C1526  C681    1.402   1_556 S
C1527  O1585   1.392   .     S
C1528  H1562   1.080   .     S
C1529  O1598   1.221   .     D
C1529  H1576   1.085   .     S
C1530  O1582   1.221   .     D
C1530  H1577   1.083   .     S
C1531  O1583   1.221   .     D
C1531  H1578   1.084   .     S
C1532  H1552   1.085   .     S
C1532  O1584   1.221   .     D
C1533  H1553   1.114   .     S
C1533  H1554   1.111   .     S
C1533  O1585   1.411   .     S
C1533  C1534   1.532   .     S
C1534  H1555   1.112   .     S
C1534  H1556   1.112   .     S
C1535  H1557   1.111   .     S
C1535  H1558   1.110   .     S
C1535  H1559   1.109   .     S
C1535  C1628   1.525   .     S
C1536  H1561   1.112   .     S
C1536  O1586   1.417   .     S
C1536  C1537   1.532   .     S
C1536  H1654   1.109   .     S
C1537  C1539   1.526   .     S
C1537  H1563   1.111   .     S
C1537  H1564   1.111   .     S
C1538  O1586   1.385   .     S
C1538  C682    1.393   1_556 S
C1539  H1565   1.111   .     S
C1539  H1566   1.110   .     S
C1539  H1661   1.111   .     S
C1540  O1587   1.220   .     D
C1540  H1568   1.084   .     S
C1541  H1569   1.084   .     S
C1541  O1588   1.220   .     D
C1542  H1570   1.076   .     S
C1542  O1589   1.221   .     D
C1543  H1571   1.076   .     S
C1543  O1590   1.221   .     D
C1544  H1572   1.083   .     S
C1545  C1548   1.402   .     A
C1545  H1573   1.083   .     S
C1545  C1641   1.383   .     S
C1546  H1574   1.083   .     S
C1546  C1548   1.399   .     A
C1546  C1638   1.383   .     S
C1547  H1575   1.082   .     S
Cu1549 Cu1550  2.713   .     S
Cu1549 O1596   1.960   .     S
Cu1549 O1592   1.959   .     S
Cu1549 O1594   1.965   .     S
Cu1549 N1579   2.039   .     S
Cu1549 O1581   1.963   .     S
Cu1550 N1580   2.039   .     S
Cu1550 O1593   1.959   .     S
Cu1550 O1595   1.965   .     S
Cu1550 O1591   1.963   .     S
Cu1550 O1597   1.960   .     S
C1599  O1675   1.303   .     A
C1599  C1600   1.449   .     S
C1599  O1687   1.300   .     A
C1600  C1641   1.399   .     A
C1600  C1638   1.402   .     A
C1601  N1674   1.374   .     A
C1601  C1634   1.475   .     S
C1602  N1673   1.372   .     A
C1602  C1635   1.476   .     S
C1602  C1039   1.429   1_565 S
C1603  C1636   1.472   .     S
C1603  N1674   1.378   .     A
C1604  N1673   1.378   .     A
C1604  C1637   1.478   .     S
C1604  C1037   1.430   1_565 S
C1605  O1691   1.300   .     A
C1605  O1688   1.299   .     A
C1605  C1611   1.452   .     S
C1606  O1690   1.296   .     A
C1606  O1689   1.305   .     A
C1606  C1609   1.458   .     S
C1607  C1623   1.490   .     S
C1607  C1618   1.416   .     A
C1607  C1609   1.409   .     A
C1608  C1624   1.492   .     S
C1608  C1619   1.408   .     A
C1608  C1611   1.403   .     A
C1609  C1612   1.411   .     A
C1610  O1686   1.299   .     A
C1610  O1685   1.303   .     A
C1610  C1642   1.449   .     S
C1611  C1613   1.409   .     A
C1612  C1625   1.493   .     S
C1612  C1614   1.411   .     A
C1613  C1615   1.414   .     A
C1613  C1626   1.491   .     S
C1614  C1616   1.417   .     A
C1614  C1620   1.411   .     A
C1615  C1622   1.403   .     A
C1615  C1617   1.416   .     A
C1616  C1618   1.421   .     A
C1616  C771    1.414   1_556 S
C1617  C1619   1.415   .     A
C1618  C1632   1.418   .     A
C1619  C1621   1.409   .     A
C1620  H1645   1.079   .     S
C1620  C775    1.402   1_556 S
C1621  O1679   1.392   .     S
C1622  H1656   1.080   .     S
C1623  O1692   1.221   .     D
C1623  H1670   1.085   .     S
C1624  O1676   1.221   .     D
C1624  H1671   1.083   .     S
C1625  O1677   1.221   .     D
C1625  H1672   1.084   .     S
C1626  H1646   1.085   .     S
C1626  O1678   1.221   .     D
C1627  H1647   1.114   .     S
C1627  H1648   1.111   .     S
C1627  O1679   1.411   .     S
C1627  C1628   1.532   .     S
C1628  H1649   1.112   .     S
C1628  H1650   1.112   .     S
C1629  H1651   1.111   .     S
C1629  H1652   1.110   .     S
C1629  H1653   1.109   .     S
C1629  C1440   1.525   1_655 S
C1630  H1655   1.112   .     S
C1630  O1680   1.417   .     S
C1630  C1631   1.532   .     S
C1630  H1466   1.109   1_655 S
C1631  C1633   1.526   .     S
C1631  H1657   1.111   .     S
C1631  H1658   1.111   .     S
C1632  O1680   1.385   .     S
C1632  C776    1.393   1_556 S
C1633  H1659   1.111   .     S
C1633  H1660   1.110   .     S
C1633  H1473   1.111   1_655 S
C1634  O1681   1.220   .     D
C1634  H1662   1.084   .     S
C1635  H1663   1.084   .     S
C1635  O1682   1.220   .     D
C1636  H1664   1.076   .     S
C1636  O1683   1.221   .     D
C1637  H1665   1.076   .     S
C1637  O1684   1.221   .     D
C1638  H1666   1.083   .     S
C1639  C1642   1.402   .     A
C1639  H1667   1.083   .     S
C1639  C1453   1.383   1_655 S
C1640  H1668   1.083   .     S
C1640  C1642   1.399   .     A
C1640  C1450   1.383   1_655 S
C1641  H1669   1.082   .     S
Cu1643 Cu1644  2.713   .     S
Cu1643 O1690   1.960   .     S
Cu1643 O1686   1.959   .     S
Cu1643 O1688   1.965   .     S
Cu1643 N1673   2.039   .     S
Cu1643 O1675   1.963   .     S
Cu1644 N1674   2.039   .     S
Cu1644 O1687   1.959   .     S
Cu1644 O1689   1.965   .     S
Cu1644 O1685   1.963   .     S
Cu1644 O1691   1.960   .     S
