data_str_m2_o10_o16_pcu_sym.160
_audit_creation_date              2020-01-03
_audit_creation_method            'Materials Studio'
_symmetry_space_group_name_H-M    'P1'
_symmetry_Int_Tables_number       1
_symmetry_cell_setting            triclinic
loop_
_symmetry_equiv_pos_as_xyz
  x,y,z
_cell_length_a                    22.5488
_cell_length_b                    26.2958
_cell_length_c                    26.6236
_cell_angle_alpha                 95.4379
_cell_angle_beta                  79.9803
_cell_angle_gamma                 101.8255
loop_
_atom_site_label
_atom_site_type_symbol
_atom_site_fract_x
_atom_site_fract_y
_atom_site_fract_z
_atom_site_U_iso_or_equiv
_atom_site_adp_type
_atom_site_occupancy
C1     C     0.18138   0.26623   0.25046   0.00000  Uiso   1.00
C2     C     0.14170   0.12347   0.48008   0.00000  Uiso   1.00
C3     C     0.16141   0.12865   0.42701   0.00000  Uiso   1.00
C4     C     0.18602   0.14308   0.01339   0.00000  Uiso   1.00
C5     C     0.24862   0.15958   0.49194   0.00000  Uiso   1.00
C6     C     0.26693   0.15280   0.43982   0.00000  Uiso   1.00
C7     C     0.22439   0.13105   0.40841   0.00000  Uiso   1.00
C8     C     0.17037   0.15035   0.06662   0.00000  Uiso   1.00
C9     C     0.27709   0.18363   0.07545   0.00000  Uiso   1.00
C10    C     0.11768   0.12865   0.39463   0.00000  Uiso   1.00
C11    C     0.19039   0.32076   0.24301   0.00000  Uiso   1.00
C12    C     0.13434   0.15332   0.34447   0.00000  Uiso   1.00
C13    C     0.14315   0.01256   0.25560   0.00000  Uiso   1.00
C14    C     0.15218   0.06709   0.24877   0.00000  Uiso   1.00
C15    C     0.19887   0.16959   0.15317   0.00000  Uiso   1.00
C16    C     0.29321   0.18015   0.02282   0.00000  Uiso   1.00
C17    C     0.21583   0.16834   0.09761   0.00000  Uiso   1.00
C18    C     0.05781   0.10303   0.41041   0.00000  Uiso   1.00
C19    C     0.03990   0.08519   0.45950   0.00000  Uiso   1.00
C20    C     0.08059   0.09638   0.49612   0.00000  Uiso   1.00
Cu21   Cu    0.10710   0.16105   0.24435   0.00000  Uiso   1.00
Cu22   Cu    0.22623   0.17228   0.25564   0.00000  Uiso   1.00
H23    H     0.31255   0.19819   0.09877   0.00000  Uiso   1.00
H24    H     0.31461   0.16351   0.42346   0.00000  Uiso   1.00
H25    H     0.00765   0.19211   0.00626   0.00000  Uiso   1.00
H26    H     0.12308   0.14361   0.08465   0.00000  Uiso   1.00
H27    H     0.02501   0.09560   0.38410   0.00000  Uiso   1.00
H28    H     0.32697   0.06336   0.46822   0.00000  Uiso   1.00
N29    N     0.31574   0.18074   0.26416   0.00000  Uiso   1.00
N30    N     0.01759   0.15259   0.23584   0.00000  Uiso   1.00
O31    O     0.12797   0.23807   0.24633   0.00000  Uiso   1.00
O32    O     0.22858   0.24755   0.25586   0.00000  Uiso   1.00
O33    O     0.09181   0.15960   0.31840   0.00000  Uiso   1.00
O34    O     0.19242   0.16908   0.32793   0.00000  Uiso   1.00
O35    O     0.10476   0.08578   0.24414   0.00000  Uiso   1.00
O36    O     0.20536   0.09526   0.25367   0.00000  Uiso   1.00
O37    O     0.14092   0.16425   0.17207   0.00000  Uiso   1.00
O38    O     0.24152   0.17373   0.18160   0.00000  Uiso   1.00
N39    N     0.08409   0.32085   0.28027   0.00000  Uiso   1.00
H40    H     0.07352   0.00810   0.31519   0.00000  Uiso   1.00
H41    H     0.05150   0.32326   0.25749   0.00000  Uiso   1.00
O42    O     0.01478   0.22204   0.28790   0.00000  Uiso   1.00
C43    C     0.31244   0.23746   0.33306   0.00000  Uiso   1.00
H44    H     0.28938   0.20423   0.35530   0.00000  Uiso   1.00
H45    H     0.28024   0.26138   0.32595   0.00000  Uiso   1.00
H46    H     0.01024   0.26224   0.35743   0.00000  Uiso   1.00
N47    N     0.32516   0.11893   0.19888   0.00000  Uiso   1.00
H48    H     0.00939   0.08506   0.19783   0.00000  Uiso   1.00
H49    H     0.01052   0.13494   0.16380   0.00000  Uiso   1.00
O50    O     0.06697   0.07520   0.04399   0.00000  Uiso   1.00
C51    C     0.00422   0.05506   0.05996   0.00000  Uiso   1.00
H52    H     0.33108   0.04629   0.10071   0.00000  Uiso   1.00
H53    H     0.32272   0.01780   0.03812   0.00000  Uiso   1.00
H54    H     0.30847   0.08376   0.05739   0.00000  Uiso   1.00
O55    O     0.24544   0.10872   0.36121   0.00000  Uiso   1.00
C56    C     0.22975   0.05408   0.36300   0.00000  Uiso   1.00
H57    H     0.17976   0.04014   0.36298   0.00000  Uiso   1.00
H58    H     0.24388   0.04027   0.39662   0.00000  Uiso   1.00
H59    H     0.25467   0.03639   0.32842   0.00000  Uiso   1.00
N60    N     0.24925   0.01256   0.21787   0.00000  Uiso   1.00
H61    H     0.28244   0.00900   0.23957   0.00000  Uiso   1.00
H62    H     0.25878   0.32609   0.18235   0.00000  Uiso   1.00
C63    C     0.51472   0.26623   0.25046   0.00000  Uiso   1.00
C64    C     0.47503   0.12347   0.48008   0.00000  Uiso   1.00
C65    C     0.49474   0.12865   0.42701   0.00000  Uiso   1.00
C66    C     0.51935   0.14308   0.01339   0.00000  Uiso   1.00
C67    C     0.58195   0.15958   0.49194   0.00000  Uiso   1.00
C68    C     0.60026   0.15280   0.43982   0.00000  Uiso   1.00
C69    C     0.55773   0.13105   0.40841   0.00000  Uiso   1.00
C70    C     0.50371   0.15035   0.06662   0.00000  Uiso   1.00
C71    C     0.61042   0.18363   0.07545   0.00000  Uiso   1.00
C72    C     0.45102   0.12865   0.39463   0.00000  Uiso   1.00
C73    C     0.52372   0.32076   0.24301   0.00000  Uiso   1.00
C74    C     0.46767   0.15332   0.34447   0.00000  Uiso   1.00
C75    C     0.47649   0.01256   0.25560   0.00000  Uiso   1.00
C76    C     0.48552   0.06709   0.24877   0.00000  Uiso   1.00
C77    C     0.53220   0.16959   0.15317   0.00000  Uiso   1.00
C78    C     0.62655   0.18015   0.02282   0.00000  Uiso   1.00
C79    C     0.54917   0.16834   0.09761   0.00000  Uiso   1.00
C80    C     0.39114   0.10303   0.41041   0.00000  Uiso   1.00
C81    C     0.37323   0.08519   0.45950   0.00000  Uiso   1.00
C82    C     0.41393   0.09638   0.49612   0.00000  Uiso   1.00
Cu83   Cu    0.44043   0.16105   0.24435   0.00000  Uiso   1.00
Cu84   Cu    0.55957   0.17228   0.25564   0.00000  Uiso   1.00
H85    H     0.64588   0.19819   0.09877   0.00000  Uiso   1.00
H86    H     0.64794   0.16351   0.42346   0.00000  Uiso   1.00
H87    H     0.34099   0.19211   0.00626   0.00000  Uiso   1.00
H88    H     0.45641   0.14361   0.08465   0.00000  Uiso   1.00
H89    H     0.35834   0.09560   0.38410   0.00000  Uiso   1.00
H90    H     0.66030   0.06336   0.46822   0.00000  Uiso   1.00
N91    N     0.64908   0.18074   0.26416   0.00000  Uiso   1.00
N92    N     0.35092   0.15259   0.23584   0.00000  Uiso   1.00
O93    O     0.46131   0.23807   0.24633   0.00000  Uiso   1.00
O94    O     0.56191   0.24755   0.25586   0.00000  Uiso   1.00
O95    O     0.42515   0.15960   0.31840   0.00000  Uiso   1.00
O96    O     0.52575   0.16908   0.32793   0.00000  Uiso   1.00
O97    O     0.43809   0.08578   0.24414   0.00000  Uiso   1.00
O98    O     0.53869   0.09526   0.25367   0.00000  Uiso   1.00
O99    O     0.47425   0.16425   0.17207   0.00000  Uiso   1.00
O100   O     0.57485   0.17373   0.18160   0.00000  Uiso   1.00
N101   N     0.41742   0.32085   0.28027   0.00000  Uiso   1.00
H102   H     0.40685   0.00810   0.31519   0.00000  Uiso   1.00
H103   H     0.38483   0.32326   0.25749   0.00000  Uiso   1.00
O104   O     0.34811   0.22204   0.28790   0.00000  Uiso   1.00
C105   C     0.64578   0.23746   0.33306   0.00000  Uiso   1.00
H106   H     0.62271   0.20423   0.35530   0.00000  Uiso   1.00
H107   H     0.61357   0.26138   0.32595   0.00000  Uiso   1.00
H108   H     0.34357   0.26224   0.35743   0.00000  Uiso   1.00
N109   N     0.65849   0.11893   0.19888   0.00000  Uiso   1.00
H110   H     0.34272   0.08506   0.19783   0.00000  Uiso   1.00
H111   H     0.34385   0.13494   0.16380   0.00000  Uiso   1.00
O112   O     0.40030   0.07520   0.04399   0.00000  Uiso   1.00
C113   C     0.33755   0.05506   0.05996   0.00000  Uiso   1.00
H114   H     0.66441   0.04629   0.10071   0.00000  Uiso   1.00
H115   H     0.65605   0.01780   0.03812   0.00000  Uiso   1.00
H116   H     0.64180   0.08376   0.05739   0.00000  Uiso   1.00
O117   O     0.57878   0.10872   0.36121   0.00000  Uiso   1.00
C118   C     0.56308   0.05408   0.36300   0.00000  Uiso   1.00
H119   H     0.51309   0.04014   0.36298   0.00000  Uiso   1.00
H120   H     0.57722   0.04027   0.39662   0.00000  Uiso   1.00
H121   H     0.58800   0.03639   0.32842   0.00000  Uiso   1.00
N122   N     0.58258   0.01256   0.21787   0.00000  Uiso   1.00
H123   H     0.61577   0.00900   0.23957   0.00000  Uiso   1.00
H124   H     0.59212   0.32609   0.18235   0.00000  Uiso   1.00
C125   C     0.84805   0.26623   0.25046   0.00000  Uiso   1.00
C126   C     0.80836   0.12347   0.48008   0.00000  Uiso   1.00
C127   C     0.82808   0.12865   0.42701   0.00000  Uiso   1.00
C128   C     0.85269   0.14308   0.01339   0.00000  Uiso   1.00
C129   C     0.91529   0.15958   0.49194   0.00000  Uiso   1.00
C130   C     0.93359   0.15280   0.43982   0.00000  Uiso   1.00
C131   C     0.89106   0.13105   0.40841   0.00000  Uiso   1.00
C132   C     0.83704   0.15035   0.06662   0.00000  Uiso   1.00
C133   C     0.94375   0.18363   0.07545   0.00000  Uiso   1.00
C134   C     0.78435   0.12865   0.39463   0.00000  Uiso   1.00
C135   C     0.85705   0.32076   0.24301   0.00000  Uiso   1.00
C136   C     0.80101   0.15332   0.34447   0.00000  Uiso   1.00
C137   C     0.80982   0.01256   0.25560   0.00000  Uiso   1.00
C138   C     0.81885   0.06709   0.24877   0.00000  Uiso   1.00
C139   C     0.86553   0.16959   0.15317   0.00000  Uiso   1.00
C140   C     0.95988   0.18015   0.02282   0.00000  Uiso   1.00
C141   C     0.88250   0.16834   0.09761   0.00000  Uiso   1.00
C142   C     0.72447   0.10303   0.41041   0.00000  Uiso   1.00
C143   C     0.70657   0.08519   0.45950   0.00000  Uiso   1.00
C144   C     0.74726   0.09638   0.49612   0.00000  Uiso   1.00
Cu145  Cu    0.77377   0.16105   0.24435   0.00000  Uiso   1.00
Cu146  Cu    0.89290   0.17228   0.25564   0.00000  Uiso   1.00
H147   H     0.97922   0.19819   0.09877   0.00000  Uiso   1.00
H148   H     0.98127   0.16351   0.42346   0.00000  Uiso   1.00
H149   H     0.67432   0.19211   0.00626   0.00000  Uiso   1.00
H150   H     0.78974   0.14361   0.08465   0.00000  Uiso   1.00
H151   H     0.69167   0.09560   0.38410   0.00000  Uiso   1.00
H152   H     0.99363   0.06336   0.46822   0.00000  Uiso   1.00
N153   N     0.98241   0.18074   0.26416   0.00000  Uiso   1.00
N154   N     0.68426   0.15259   0.23584   0.00000  Uiso   1.00
O155   O     0.79464   0.23807   0.24633   0.00000  Uiso   1.00
O156   O     0.89524   0.24755   0.25586   0.00000  Uiso   1.00
O157   O     0.75848   0.15960   0.31840   0.00000  Uiso   1.00
O158   O     0.85908   0.16908   0.32793   0.00000  Uiso   1.00
O159   O     0.77142   0.08578   0.24414   0.00000  Uiso   1.00
O160   O     0.87203   0.09526   0.25367   0.00000  Uiso   1.00
O161   O     0.80758   0.16425   0.17207   0.00000  Uiso   1.00
O162   O     0.90819   0.17373   0.18160   0.00000  Uiso   1.00
N163   N     0.75076   0.32085   0.28027   0.00000  Uiso   1.00
H164   H     0.74018   0.00810   0.31519   0.00000  Uiso   1.00
H165   H     0.71816   0.32326   0.25749   0.00000  Uiso   1.00
O166   O     0.68144   0.22204   0.28790   0.00000  Uiso   1.00
C167   C     0.97911   0.23746   0.33306   0.00000  Uiso   1.00
H168   H     0.95605   0.20423   0.35530   0.00000  Uiso   1.00
H169   H     0.94691   0.26138   0.32595   0.00000  Uiso   1.00
H170   H     0.67690   0.26224   0.35743   0.00000  Uiso   1.00
N171   N     0.99183   0.11893   0.19888   0.00000  Uiso   1.00
H172   H     0.67605   0.08506   0.19783   0.00000  Uiso   1.00
H173   H     0.67718   0.13494   0.16380   0.00000  Uiso   1.00
O174   O     0.73363   0.07520   0.04399   0.00000  Uiso   1.00
C175   C     0.67088   0.05506   0.05996   0.00000  Uiso   1.00
H176   H     0.99775   0.04629   0.10071   0.00000  Uiso   1.00
H177   H     0.98938   0.01780   0.03812   0.00000  Uiso   1.00
H178   H     0.97514   0.08376   0.05739   0.00000  Uiso   1.00
O179   O     0.91211   0.10872   0.36121   0.00000  Uiso   1.00
C180   C     0.89642   0.05408   0.36300   0.00000  Uiso   1.00
H181   H     0.84642   0.04014   0.36298   0.00000  Uiso   1.00
H182   H     0.91055   0.04027   0.39662   0.00000  Uiso   1.00
H183   H     0.92133   0.03639   0.32842   0.00000  Uiso   1.00
N184   N     0.91591   0.01256   0.21787   0.00000  Uiso   1.00
H185   H     0.94911   0.00900   0.23957   0.00000  Uiso   1.00
H186   H     0.92545   0.32609   0.18235   0.00000  Uiso   1.00
C187   C     0.18138   0.59957   0.25046   0.00000  Uiso   1.00
C188   C     0.14170   0.45680   0.48008   0.00000  Uiso   1.00
C189   C     0.16141   0.46199   0.42701   0.00000  Uiso   1.00
C190   C     0.18602   0.47642   0.01339   0.00000  Uiso   1.00
C191   C     0.24862   0.49291   0.49194   0.00000  Uiso   1.00
C192   C     0.26693   0.48614   0.43982   0.00000  Uiso   1.00
C193   C     0.22439   0.46439   0.40841   0.00000  Uiso   1.00
C194   C     0.17037   0.48369   0.06662   0.00000  Uiso   1.00
C195   C     0.27709   0.51697   0.07545   0.00000  Uiso   1.00
C196   C     0.11768   0.46198   0.39463   0.00000  Uiso   1.00
C197   C     0.19039   0.65409   0.24301   0.00000  Uiso   1.00
C198   C     0.13434   0.48665   0.34447   0.00000  Uiso   1.00
C199   C     0.14315   0.34590   0.25560   0.00000  Uiso   1.00
C200   C     0.15218   0.40042   0.24877   0.00000  Uiso   1.00
C201   C     0.19887   0.50292   0.15317   0.00000  Uiso   1.00
C202   C     0.29321   0.51348   0.02282   0.00000  Uiso   1.00
C203   C     0.21583   0.50168   0.09761   0.00000  Uiso   1.00
C204   C     0.05781   0.43636   0.41041   0.00000  Uiso   1.00
C205   C     0.03990   0.41852   0.45950   0.00000  Uiso   1.00
C206   C     0.08059   0.42972   0.49612   0.00000  Uiso   1.00
Cu207  Cu    0.10710   0.49439   0.24435   0.00000  Uiso   1.00
Cu208  Cu    0.22623   0.50561   0.25564   0.00000  Uiso   1.00
H209   H     0.31255   0.53152   0.09877   0.00000  Uiso   1.00
H210   H     0.31461   0.49684   0.42346   0.00000  Uiso   1.00
H211   H     0.00765   0.52544   0.00626   0.00000  Uiso   1.00
H212   H     0.12308   0.47694   0.08465   0.00000  Uiso   1.00
H213   H     0.02501   0.42894   0.38410   0.00000  Uiso   1.00
H214   H     0.32697   0.39669   0.46822   0.00000  Uiso   1.00
N215   N     0.31574   0.51407   0.26416   0.00000  Uiso   1.00
N216   N     0.01759   0.48593   0.23584   0.00000  Uiso   1.00
O217   O     0.12797   0.57141   0.24633   0.00000  Uiso   1.00
O218   O     0.22858   0.58089   0.25586   0.00000  Uiso   1.00
O219   O     0.09181   0.49293   0.31840   0.00000  Uiso   1.00
O220   O     0.19242   0.50241   0.32793   0.00000  Uiso   1.00
O221   O     0.10476   0.41911   0.24414   0.00000  Uiso   1.00
O222   O     0.20536   0.42859   0.25367   0.00000  Uiso   1.00
O223   O     0.14092   0.49759   0.17207   0.00000  Uiso   1.00
O224   O     0.24152   0.50707   0.18160   0.00000  Uiso   1.00
N225   N     0.08409   0.65419   0.28027   0.00000  Uiso   1.00
H226   H     0.07352   0.34143   0.31519   0.00000  Uiso   1.00
H227   H     0.05150   0.65660   0.25749   0.00000  Uiso   1.00
O228   O     0.01478   0.55538   0.28790   0.00000  Uiso   1.00
C229   C     0.31244   0.57080   0.33306   0.00000  Uiso   1.00
H230   H     0.28938   0.53756   0.35530   0.00000  Uiso   1.00
H231   H     0.28024   0.59471   0.32595   0.00000  Uiso   1.00
H232   H     0.01024   0.59557   0.35743   0.00000  Uiso   1.00
N233   N     0.32516   0.45226   0.19888   0.00000  Uiso   1.00
H234   H     0.00939   0.41840   0.19783   0.00000  Uiso   1.00
H235   H     0.01052   0.46828   0.16380   0.00000  Uiso   1.00
O236   O     0.06697   0.40853   0.04399   0.00000  Uiso   1.00
C237   C     0.00422   0.38839   0.05996   0.00000  Uiso   1.00
H238   H     0.33108   0.37962   0.10071   0.00000  Uiso   1.00
H239   H     0.32272   0.35113   0.03812   0.00000  Uiso   1.00
H240   H     0.30847   0.41710   0.05739   0.00000  Uiso   1.00
O241   O     0.24544   0.44206   0.36121   0.00000  Uiso   1.00
C242   C     0.22975   0.38742   0.36300   0.00000  Uiso   1.00
H243   H     0.17976   0.37347   0.36298   0.00000  Uiso   1.00
H244   H     0.24388   0.37361   0.39662   0.00000  Uiso   1.00
H245   H     0.25467   0.36972   0.32842   0.00000  Uiso   1.00
N246   N     0.24925   0.34590   0.21787   0.00000  Uiso   1.00
H247   H     0.28244   0.34233   0.23957   0.00000  Uiso   1.00
H248   H     0.25878   0.65942   0.18235   0.00000  Uiso   1.00
C249   C     0.51472   0.59957   0.25046   0.00000  Uiso   1.00
C250   C     0.47503   0.45680   0.48008   0.00000  Uiso   1.00
C251   C     0.49474   0.46199   0.42701   0.00000  Uiso   1.00
C252   C     0.51935   0.47642   0.01339   0.00000  Uiso   1.00
C253   C     0.58195   0.49291   0.49194   0.00000  Uiso   1.00
C254   C     0.60026   0.48614   0.43982   0.00000  Uiso   1.00
C255   C     0.55773   0.46439   0.40841   0.00000  Uiso   1.00
C256   C     0.50371   0.48369   0.06662   0.00000  Uiso   1.00
C257   C     0.61042   0.51697   0.07545   0.00000  Uiso   1.00
C258   C     0.45102   0.46198   0.39463   0.00000  Uiso   1.00
C259   C     0.52372   0.65409   0.24301   0.00000  Uiso   1.00
C260   C     0.46767   0.48665   0.34447   0.00000  Uiso   1.00
C261   C     0.47649   0.34590   0.25560   0.00000  Uiso   1.00
C262   C     0.48552   0.40042   0.24877   0.00000  Uiso   1.00
C263   C     0.53220   0.50292   0.15317   0.00000  Uiso   1.00
C264   C     0.62655   0.51348   0.02282   0.00000  Uiso   1.00
C265   C     0.54917   0.50168   0.09761   0.00000  Uiso   1.00
C266   C     0.39114   0.43636   0.41041   0.00000  Uiso   1.00
C267   C     0.37323   0.41852   0.45950   0.00000  Uiso   1.00
C268   C     0.41393   0.42972   0.49612   0.00000  Uiso   1.00
Cu269  Cu    0.44043   0.49439   0.24435   0.00000  Uiso   1.00
Cu270  Cu    0.55957   0.50561   0.25564   0.00000  Uiso   1.00
H271   H     0.64588   0.53152   0.09877   0.00000  Uiso   1.00
H272   H     0.64794   0.49684   0.42346   0.00000  Uiso   1.00
H273   H     0.34099   0.52544   0.00626   0.00000  Uiso   1.00
H274   H     0.45641   0.47694   0.08465   0.00000  Uiso   1.00
H275   H     0.35834   0.42894   0.38410   0.00000  Uiso   1.00
H276   H     0.66030   0.39669   0.46822   0.00000  Uiso   1.00
N277   N     0.64908   0.51407   0.26416   0.00000  Uiso   1.00
N278   N     0.35092   0.48593   0.23584   0.00000  Uiso   1.00
O279   O     0.46131   0.57141   0.24633   0.00000  Uiso   1.00
O280   O     0.56191   0.58089   0.25586   0.00000  Uiso   1.00
O281   O     0.42515   0.49293   0.31840   0.00000  Uiso   1.00
O282   O     0.52575   0.50241   0.32793   0.00000  Uiso   1.00
O283   O     0.43809   0.41911   0.24414   0.00000  Uiso   1.00
O284   O     0.53869   0.42859   0.25367   0.00000  Uiso   1.00
O285   O     0.47425   0.49759   0.17207   0.00000  Uiso   1.00
O286   O     0.57485   0.50707   0.18160   0.00000  Uiso   1.00
N287   N     0.41742   0.65419   0.28027   0.00000  Uiso   1.00
H288   H     0.40685   0.34143   0.31519   0.00000  Uiso   1.00
H289   H     0.38483   0.65660   0.25749   0.00000  Uiso   1.00
O290   O     0.34811   0.55538   0.28790   0.00000  Uiso   1.00
C291   C     0.64578   0.57080   0.33306   0.00000  Uiso   1.00
H292   H     0.62271   0.53756   0.35530   0.00000  Uiso   1.00
H293   H     0.61357   0.59471   0.32595   0.00000  Uiso   1.00
H294   H     0.34357   0.59557   0.35743   0.00000  Uiso   1.00
N295   N     0.65849   0.45226   0.19888   0.00000  Uiso   1.00
H296   H     0.34272   0.41840   0.19783   0.00000  Uiso   1.00
H297   H     0.34385   0.46828   0.16380   0.00000  Uiso   1.00
O298   O     0.40030   0.40853   0.04399   0.00000  Uiso   1.00
C299   C     0.33755   0.38839   0.05996   0.00000  Uiso   1.00
H300   H     0.66441   0.37962   0.10071   0.00000  Uiso   1.00
H301   H     0.65605   0.35113   0.03812   0.00000  Uiso   1.00
H302   H     0.64180   0.41710   0.05739   0.00000  Uiso   1.00
O303   O     0.57878   0.44206   0.36121   0.00000  Uiso   1.00
C304   C     0.56308   0.38742   0.36300   0.00000  Uiso   1.00
H305   H     0.51309   0.37347   0.36298   0.00000  Uiso   1.00
H306   H     0.57722   0.37361   0.39662   0.00000  Uiso   1.00
H307   H     0.58800   0.36972   0.32842   0.00000  Uiso   1.00
N308   N     0.58258   0.34590   0.21787   0.00000  Uiso   1.00
H309   H     0.61577   0.34233   0.23957   0.00000  Uiso   1.00
H310   H     0.59212   0.65942   0.18235   0.00000  Uiso   1.00
C311   C     0.84805   0.59957   0.25046   0.00000  Uiso   1.00
C312   C     0.80836   0.45680   0.48008   0.00000  Uiso   1.00
C313   C     0.82808   0.46199   0.42701   0.00000  Uiso   1.00
C314   C     0.85269   0.47642   0.01339   0.00000  Uiso   1.00
C315   C     0.91529   0.49291   0.49194   0.00000  Uiso   1.00
C316   C     0.93359   0.48614   0.43982   0.00000  Uiso   1.00
C317   C     0.89106   0.46439   0.40841   0.00000  Uiso   1.00
C318   C     0.83704   0.48369   0.06662   0.00000  Uiso   1.00
C319   C     0.94375   0.51697   0.07545   0.00000  Uiso   1.00
C320   C     0.78435   0.46198   0.39463   0.00000  Uiso   1.00
C321   C     0.85705   0.65409   0.24301   0.00000  Uiso   1.00
C322   C     0.80101   0.48665   0.34447   0.00000  Uiso   1.00
C323   C     0.80982   0.34590   0.25560   0.00000  Uiso   1.00
C324   C     0.81885   0.40042   0.24877   0.00000  Uiso   1.00
C325   C     0.86553   0.50292   0.15317   0.00000  Uiso   1.00
C326   C     0.95988   0.51348   0.02282   0.00000  Uiso   1.00
C327   C     0.88250   0.50168   0.09761   0.00000  Uiso   1.00
C328   C     0.72447   0.43636   0.41041   0.00000  Uiso   1.00
C329   C     0.70657   0.41852   0.45950   0.00000  Uiso   1.00
C330   C     0.74726   0.42972   0.49612   0.00000  Uiso   1.00
Cu331  Cu    0.77377   0.49439   0.24435   0.00000  Uiso   1.00
Cu332  Cu    0.89290   0.50561   0.25564   0.00000  Uiso   1.00
H333   H     0.97922   0.53152   0.09877   0.00000  Uiso   1.00
H334   H     0.98127   0.49684   0.42346   0.00000  Uiso   1.00
H335   H     0.67432   0.52544   0.00626   0.00000  Uiso   1.00
H336   H     0.78974   0.47694   0.08465   0.00000  Uiso   1.00
H337   H     0.69167   0.42894   0.38410   0.00000  Uiso   1.00
H338   H     0.99363   0.39669   0.46822   0.00000  Uiso   1.00
N339   N     0.98241   0.51407   0.26416   0.00000  Uiso   1.00
N340   N     0.68426   0.48593   0.23584   0.00000  Uiso   1.00
O341   O     0.79464   0.57141   0.24633   0.00000  Uiso   1.00
O342   O     0.89524   0.58089   0.25586   0.00000  Uiso   1.00
O343   O     0.75848   0.49293   0.31840   0.00000  Uiso   1.00
O344   O     0.85908   0.50241   0.32793   0.00000  Uiso   1.00
O345   O     0.77142   0.41911   0.24414   0.00000  Uiso   1.00
O346   O     0.87203   0.42859   0.25367   0.00000  Uiso   1.00
O347   O     0.80758   0.49759   0.17207   0.00000  Uiso   1.00
O348   O     0.90819   0.50707   0.18160   0.00000  Uiso   1.00
N349   N     0.75076   0.65419   0.28027   0.00000  Uiso   1.00
H350   H     0.74018   0.34143   0.31519   0.00000  Uiso   1.00
H351   H     0.71816   0.65660   0.25749   0.00000  Uiso   1.00
O352   O     0.68144   0.55538   0.28790   0.00000  Uiso   1.00
C353   C     0.97911   0.57080   0.33306   0.00000  Uiso   1.00
H354   H     0.95605   0.53756   0.35530   0.00000  Uiso   1.00
H355   H     0.94691   0.59471   0.32595   0.00000  Uiso   1.00
H356   H     0.67690   0.59557   0.35743   0.00000  Uiso   1.00
N357   N     0.99183   0.45226   0.19888   0.00000  Uiso   1.00
H358   H     0.67605   0.41840   0.19783   0.00000  Uiso   1.00
H359   H     0.67718   0.46828   0.16380   0.00000  Uiso   1.00
O360   O     0.73363   0.40853   0.04399   0.00000  Uiso   1.00
C361   C     0.67088   0.38839   0.05996   0.00000  Uiso   1.00
H362   H     0.99775   0.37962   0.10071   0.00000  Uiso   1.00
H363   H     0.98938   0.35113   0.03812   0.00000  Uiso   1.00
H364   H     0.97514   0.41710   0.05739   0.00000  Uiso   1.00
O365   O     0.91211   0.44206   0.36121   0.00000  Uiso   1.00
C366   C     0.89642   0.38742   0.36300   0.00000  Uiso   1.00
H367   H     0.84642   0.37347   0.36298   0.00000  Uiso   1.00
H368   H     0.91055   0.37361   0.39662   0.00000  Uiso   1.00
H369   H     0.92133   0.36972   0.32842   0.00000  Uiso   1.00
N370   N     0.91591   0.34590   0.21787   0.00000  Uiso   1.00
H371   H     0.94911   0.34233   0.23957   0.00000  Uiso   1.00
H372   H     0.92545   0.65942   0.18235   0.00000  Uiso   1.00
C373   C     0.18138   0.93290   0.25046   0.00000  Uiso   1.00
C374   C     0.14170   0.79014   0.48008   0.00000  Uiso   1.00
C375   C     0.16141   0.79532   0.42701   0.00000  Uiso   1.00
C376   C     0.18602   0.80975   0.01339   0.00000  Uiso   1.00
C377   C     0.24862   0.82624   0.49194   0.00000  Uiso   1.00
C378   C     0.26693   0.81947   0.43982   0.00000  Uiso   1.00
C379   C     0.22439   0.79772   0.40841   0.00000  Uiso   1.00
C380   C     0.17037   0.81702   0.06662   0.00000  Uiso   1.00
C381   C     0.27709   0.85030   0.07545   0.00000  Uiso   1.00
C382   C     0.11768   0.79532   0.39463   0.00000  Uiso   1.00
C383   C     0.19039   0.98743   0.24301   0.00000  Uiso   1.00
C384   C     0.13434   0.81999   0.34447   0.00000  Uiso   1.00
C385   C     0.14315   0.67923   0.25560   0.00000  Uiso   1.00
C386   C     0.15218   0.73376   0.24877   0.00000  Uiso   1.00
C387   C     0.19887   0.83626   0.15317   0.00000  Uiso   1.00
C388   C     0.29321   0.84681   0.02282   0.00000  Uiso   1.00
C389   C     0.21583   0.83501   0.09761   0.00000  Uiso   1.00
C390   C     0.05781   0.76970   0.41041   0.00000  Uiso   1.00
C391   C     0.03990   0.75186   0.45950   0.00000  Uiso   1.00
C392   C     0.08059   0.76305   0.49612   0.00000  Uiso   1.00
Cu393  Cu    0.10710   0.82772   0.24435   0.00000  Uiso   1.00
Cu394  Cu    0.22623   0.83895   0.25564   0.00000  Uiso   1.00
H395   H     0.31255   0.86485   0.09877   0.00000  Uiso   1.00
H396   H     0.31461   0.83018   0.42346   0.00000  Uiso   1.00
H397   H     0.00765   0.85878   0.00626   0.00000  Uiso   1.00
H398   H     0.12308   0.81028   0.08465   0.00000  Uiso   1.00
H399   H     0.02501   0.76227   0.38410   0.00000  Uiso   1.00
H400   H     0.32697   0.73003   0.46822   0.00000  Uiso   1.00
N401   N     0.31574   0.84741   0.26416   0.00000  Uiso   1.00
N402   N     0.01759   0.81926   0.23584   0.00000  Uiso   1.00
O403   O     0.12797   0.90474   0.24633   0.00000  Uiso   1.00
O404   O     0.22858   0.91422   0.25586   0.00000  Uiso   1.00
O405   O     0.09181   0.82627   0.31840   0.00000  Uiso   1.00
O406   O     0.19242   0.83575   0.32793   0.00000  Uiso   1.00
O407   O     0.10476   0.75245   0.24414   0.00000  Uiso   1.00
O408   O     0.20536   0.76193   0.25367   0.00000  Uiso   1.00
O409   O     0.14092   0.83092   0.17207   0.00000  Uiso   1.00
O410   O     0.24152   0.84040   0.18160   0.00000  Uiso   1.00
N411   N     0.08409   0.98752   0.28027   0.00000  Uiso   1.00
H412   H     0.07352   0.67477   0.31519   0.00000  Uiso   1.00
H413   H     0.05150   0.98993   0.25749   0.00000  Uiso   1.00
O414   O     0.01478   0.88871   0.28790   0.00000  Uiso   1.00
C415   C     0.31244   0.90413   0.33306   0.00000  Uiso   1.00
H416   H     0.28938   0.87089   0.35530   0.00000  Uiso   1.00
H417   H     0.28024   0.92804   0.32595   0.00000  Uiso   1.00
H418   H     0.01024   0.92891   0.35743   0.00000  Uiso   1.00
N419   N     0.32516   0.78560   0.19888   0.00000  Uiso   1.00
H420   H     0.00939   0.75173   0.19783   0.00000  Uiso   1.00
H421   H     0.01052   0.80161   0.16380   0.00000  Uiso   1.00
O422   O     0.06697   0.74186   0.04399   0.00000  Uiso   1.00
C423   C     0.00422   0.72172   0.05996   0.00000  Uiso   1.00
H424   H     0.33108   0.71296   0.10071   0.00000  Uiso   1.00
H425   H     0.32272   0.68447   0.03812   0.00000  Uiso   1.00
H426   H     0.30847   0.75043   0.05739   0.00000  Uiso   1.00
O427   O     0.24544   0.77539   0.36121   0.00000  Uiso   1.00
C428   C     0.22975   0.72075   0.36300   0.00000  Uiso   1.00
H429   H     0.17976   0.70681   0.36298   0.00000  Uiso   1.00
H430   H     0.24388   0.70694   0.39662   0.00000  Uiso   1.00
H431   H     0.25467   0.70305   0.32842   0.00000  Uiso   1.00
N432   N     0.24925   0.67923   0.21787   0.00000  Uiso   1.00
H433   H     0.28244   0.67566   0.23957   0.00000  Uiso   1.00
H434   H     0.25878   0.99276   0.18235   0.00000  Uiso   1.00
C435   C     0.51472   0.93290   0.25046   0.00000  Uiso   1.00
C436   C     0.47503   0.79014   0.48008   0.00000  Uiso   1.00
C437   C     0.49474   0.79532   0.42701   0.00000  Uiso   1.00
C438   C     0.51935   0.80975   0.01339   0.00000  Uiso   1.00
C439   C     0.58195   0.82624   0.49194   0.00000  Uiso   1.00
C440   C     0.60026   0.81947   0.43982   0.00000  Uiso   1.00
C441   C     0.55773   0.79772   0.40841   0.00000  Uiso   1.00
C442   C     0.50371   0.81702   0.06662   0.00000  Uiso   1.00
C443   C     0.61042   0.85030   0.07545   0.00000  Uiso   1.00
C444   C     0.45102   0.79532   0.39463   0.00000  Uiso   1.00
C445   C     0.52372   0.98743   0.24301   0.00000  Uiso   1.00
C446   C     0.46767   0.81999   0.34447   0.00000  Uiso   1.00
C447   C     0.47649   0.67923   0.25560   0.00000  Uiso   1.00
C448   C     0.48552   0.73376   0.24877   0.00000  Uiso   1.00
C449   C     0.53220   0.83626   0.15317   0.00000  Uiso   1.00
C450   C     0.62655   0.84681   0.02282   0.00000  Uiso   1.00
C451   C     0.54917   0.83501   0.09761   0.00000  Uiso   1.00
C452   C     0.39114   0.76970   0.41041   0.00000  Uiso   1.00
C453   C     0.37323   0.75186   0.45950   0.00000  Uiso   1.00
C454   C     0.41393   0.76305   0.49612   0.00000  Uiso   1.00
Cu455  Cu    0.44043   0.82772   0.24435   0.00000  Uiso   1.00
Cu456  Cu    0.55957   0.83895   0.25564   0.00000  Uiso   1.00
H457   H     0.64588   0.86485   0.09877   0.00000  Uiso   1.00
H458   H     0.64794   0.83018   0.42346   0.00000  Uiso   1.00
H459   H     0.34099   0.85878   0.00626   0.00000  Uiso   1.00
H460   H     0.45641   0.81028   0.08465   0.00000  Uiso   1.00
H461   H     0.35834   0.76227   0.38410   0.00000  Uiso   1.00
H462   H     0.66030   0.73003   0.46822   0.00000  Uiso   1.00
N463   N     0.64908   0.84741   0.26416   0.00000  Uiso   1.00
N464   N     0.35092   0.81926   0.23584   0.00000  Uiso   1.00
O465   O     0.46131   0.90474   0.24633   0.00000  Uiso   1.00
O466   O     0.56191   0.91422   0.25586   0.00000  Uiso   1.00
O467   O     0.42515   0.82627   0.31840   0.00000  Uiso   1.00
O468   O     0.52575   0.83575   0.32793   0.00000  Uiso   1.00
O469   O     0.43809   0.75245   0.24414   0.00000  Uiso   1.00
O470   O     0.53869   0.76193   0.25367   0.00000  Uiso   1.00
O471   O     0.47425   0.83092   0.17207   0.00000  Uiso   1.00
O472   O     0.57485   0.84040   0.18160   0.00000  Uiso   1.00
N473   N     0.41742   0.98752   0.28027   0.00000  Uiso   1.00
H474   H     0.40685   0.67477   0.31519   0.00000  Uiso   1.00
H475   H     0.38483   0.98993   0.25749   0.00000  Uiso   1.00
O476   O     0.34811   0.88871   0.28790   0.00000  Uiso   1.00
C477   C     0.64578   0.90413   0.33306   0.00000  Uiso   1.00
H478   H     0.62271   0.87089   0.35530   0.00000  Uiso   1.00
H479   H     0.61357   0.92804   0.32595   0.00000  Uiso   1.00
H480   H     0.34357   0.92891   0.35743   0.00000  Uiso   1.00
N481   N     0.65849   0.78560   0.19888   0.00000  Uiso   1.00
H482   H     0.34272   0.75173   0.19783   0.00000  Uiso   1.00
H483   H     0.34385   0.80161   0.16380   0.00000  Uiso   1.00
O484   O     0.40030   0.74186   0.04399   0.00000  Uiso   1.00
C485   C     0.33755   0.72172   0.05996   0.00000  Uiso   1.00
H486   H     0.66441   0.71296   0.10071   0.00000  Uiso   1.00
H487   H     0.65605   0.68447   0.03812   0.00000  Uiso   1.00
H488   H     0.64180   0.75043   0.05739   0.00000  Uiso   1.00
O489   O     0.57878   0.77539   0.36121   0.00000  Uiso   1.00
C490   C     0.56308   0.72075   0.36300   0.00000  Uiso   1.00
H491   H     0.51309   0.70681   0.36298   0.00000  Uiso   1.00
H492   H     0.57722   0.70694   0.39662   0.00000  Uiso   1.00
H493   H     0.58800   0.70305   0.32842   0.00000  Uiso   1.00
N494   N     0.58258   0.67923   0.21787   0.00000  Uiso   1.00
H495   H     0.61577   0.67566   0.23957   0.00000  Uiso   1.00
H496   H     0.59212   0.99276   0.18235   0.00000  Uiso   1.00
C497   C     0.84805   0.93290   0.25046   0.00000  Uiso   1.00
C498   C     0.80836   0.79014   0.48008   0.00000  Uiso   1.00
C499   C     0.82808   0.79532   0.42701   0.00000  Uiso   1.00
C500   C     0.85269   0.80975   0.01339   0.00000  Uiso   1.00
C501   C     0.91529   0.82624   0.49194   0.00000  Uiso   1.00
C502   C     0.93359   0.81947   0.43982   0.00000  Uiso   1.00
C503   C     0.89106   0.79772   0.40841   0.00000  Uiso   1.00
C504   C     0.83704   0.81702   0.06662   0.00000  Uiso   1.00
C505   C     0.94375   0.85030   0.07545   0.00000  Uiso   1.00
C506   C     0.78435   0.79532   0.39463   0.00000  Uiso   1.00
C507   C     0.85705   0.98743   0.24301   0.00000  Uiso   1.00
C508   C     0.80101   0.81999   0.34447   0.00000  Uiso   1.00
C509   C     0.80982   0.67923   0.25560   0.00000  Uiso   1.00
C510   C     0.81885   0.73376   0.24877   0.00000  Uiso   1.00
C511   C     0.86553   0.83626   0.15317   0.00000  Uiso   1.00
C512   C     0.95988   0.84681   0.02282   0.00000  Uiso   1.00
C513   C     0.88250   0.83501   0.09761   0.00000  Uiso   1.00
C514   C     0.72447   0.76970   0.41041   0.00000  Uiso   1.00
C515   C     0.70657   0.75186   0.45950   0.00000  Uiso   1.00
C516   C     0.74726   0.76305   0.49612   0.00000  Uiso   1.00
Cu517  Cu    0.77377   0.82772   0.24435   0.00000  Uiso   1.00
Cu518  Cu    0.89290   0.83895   0.25564   0.00000  Uiso   1.00
H519   H     0.97922   0.86485   0.09877   0.00000  Uiso   1.00
H520   H     0.98127   0.83018   0.42346   0.00000  Uiso   1.00
H521   H     0.67432   0.85878   0.00626   0.00000  Uiso   1.00
H522   H     0.78974   0.81028   0.08465   0.00000  Uiso   1.00
H523   H     0.69167   0.76227   0.38410   0.00000  Uiso   1.00
H524   H     0.99363   0.73003   0.46822   0.00000  Uiso   1.00
N525   N     0.98241   0.84741   0.26416   0.00000  Uiso   1.00
N526   N     0.68426   0.81926   0.23584   0.00000  Uiso   1.00
O527   O     0.79464   0.90474   0.24633   0.00000  Uiso   1.00
O528   O     0.89524   0.91422   0.25586   0.00000  Uiso   1.00
O529   O     0.75848   0.82627   0.31840   0.00000  Uiso   1.00
O530   O     0.85908   0.83575   0.32793   0.00000  Uiso   1.00
O531   O     0.77142   0.75245   0.24414   0.00000  Uiso   1.00
O532   O     0.87203   0.76193   0.25367   0.00000  Uiso   1.00
O533   O     0.80758   0.83092   0.17207   0.00000  Uiso   1.00
O534   O     0.90819   0.84040   0.18160   0.00000  Uiso   1.00
N535   N     0.75076   0.98752   0.28027   0.00000  Uiso   1.00
H536   H     0.74018   0.67477   0.31519   0.00000  Uiso   1.00
H537   H     0.71816   0.98993   0.25749   0.00000  Uiso   1.00
O538   O     0.68144   0.88871   0.28790   0.00000  Uiso   1.00
C539   C     0.97911   0.90413   0.33306   0.00000  Uiso   1.00
H540   H     0.95605   0.87089   0.35530   0.00000  Uiso   1.00
H541   H     0.94691   0.92804   0.32595   0.00000  Uiso   1.00
H542   H     0.67690   0.92891   0.35743   0.00000  Uiso   1.00
N543   N     0.99183   0.78560   0.19888   0.00000  Uiso   1.00
H544   H     0.67605   0.75173   0.19783   0.00000  Uiso   1.00
H545   H     0.67718   0.80161   0.16380   0.00000  Uiso   1.00
O546   O     0.73363   0.74186   0.04399   0.00000  Uiso   1.00
C547   C     0.67088   0.72172   0.05996   0.00000  Uiso   1.00
H548   H     0.99775   0.71296   0.10071   0.00000  Uiso   1.00
H549   H     0.98938   0.68447   0.03812   0.00000  Uiso   1.00
H550   H     0.97514   0.75043   0.05739   0.00000  Uiso   1.00
O551   O     0.91211   0.77539   0.36121   0.00000  Uiso   1.00
C552   C     0.89642   0.72075   0.36300   0.00000  Uiso   1.00
H553   H     0.84642   0.70681   0.36298   0.00000  Uiso   1.00
H554   H     0.91055   0.70694   0.39662   0.00000  Uiso   1.00
H555   H     0.92133   0.70305   0.32842   0.00000  Uiso   1.00
N556   N     0.91591   0.67923   0.21787   0.00000  Uiso   1.00
H557   H     0.94911   0.67566   0.23957   0.00000  Uiso   1.00
H558   H     0.92545   0.99276   0.18235   0.00000  Uiso   1.00
C559   C     0.18138   0.26623   0.75046   0.00000  Uiso   1.00
C560   C     0.14170   0.12347   0.98008   0.00000  Uiso   1.00
C561   C     0.16141   0.12865   0.92701   0.00000  Uiso   1.00
C562   C     0.18602   0.14308   0.51339   0.00000  Uiso   1.00
C563   C     0.24862   0.15958   0.99194   0.00000  Uiso   1.00
C564   C     0.26693   0.15280   0.93982   0.00000  Uiso   1.00
C565   C     0.22439   0.13105   0.90841   0.00000  Uiso   1.00
C566   C     0.17037   0.15035   0.56662   0.00000  Uiso   1.00
C567   C     0.27709   0.18363   0.57545   0.00000  Uiso   1.00
C568   C     0.11768   0.12865   0.89463   0.00000  Uiso   1.00
C569   C     0.19039   0.32076   0.74301   0.00000  Uiso   1.00
C570   C     0.13434   0.15332   0.84447   0.00000  Uiso   1.00
C571   C     0.14315   0.01256   0.75560   0.00000  Uiso   1.00
C572   C     0.15218   0.06709   0.74877   0.00000  Uiso   1.00
C573   C     0.19887   0.16959   0.65317   0.00000  Uiso   1.00
C574   C     0.29321   0.18015   0.52282   0.00000  Uiso   1.00
C575   C     0.21583   0.16834   0.59761   0.00000  Uiso   1.00
C576   C     0.05781   0.10303   0.91041   0.00000  Uiso   1.00
C577   C     0.03990   0.08519   0.95950   0.00000  Uiso   1.00
C578   C     0.08059   0.09638   0.99612   0.00000  Uiso   1.00
Cu579  Cu    0.10710   0.16105   0.74435   0.00000  Uiso   1.00
Cu580  Cu    0.22623   0.17228   0.75564   0.00000  Uiso   1.00
H581   H     0.31255   0.19819   0.59877   0.00000  Uiso   1.00
H582   H     0.31461   0.16351   0.92346   0.00000  Uiso   1.00
H583   H     0.00765   0.19211   0.50626   0.00000  Uiso   1.00
H584   H     0.12308   0.14361   0.58465   0.00000  Uiso   1.00
H585   H     0.02501   0.09560   0.88410   0.00000  Uiso   1.00
H586   H     0.32697   0.06336   0.96822   0.00000  Uiso   1.00
N587   N     0.31574   0.18074   0.76416   0.00000  Uiso   1.00
N588   N     0.01759   0.15259   0.73584   0.00000  Uiso   1.00
O589   O     0.12797   0.23807   0.74633   0.00000  Uiso   1.00
O590   O     0.22858   0.24755   0.75586   0.00000  Uiso   1.00
O591   O     0.09181   0.15960   0.81840   0.00000  Uiso   1.00
O592   O     0.19242   0.16908   0.82793   0.00000  Uiso   1.00
O593   O     0.10476   0.08578   0.74414   0.00000  Uiso   1.00
O594   O     0.20536   0.09526   0.75367   0.00000  Uiso   1.00
O595   O     0.14092   0.16425   0.67207   0.00000  Uiso   1.00
O596   O     0.24152   0.17373   0.68160   0.00000  Uiso   1.00
N597   N     0.08409   0.32085   0.78027   0.00000  Uiso   1.00
H598   H     0.07352   0.00810   0.81519   0.00000  Uiso   1.00
H599   H     0.05150   0.32326   0.75749   0.00000  Uiso   1.00
O600   O     0.01478   0.22204   0.78790   0.00000  Uiso   1.00
C601   C     0.31244   0.23746   0.83306   0.00000  Uiso   1.00
H602   H     0.28938   0.20423   0.85530   0.00000  Uiso   1.00
H603   H     0.28024   0.26138   0.82595   0.00000  Uiso   1.00
H604   H     0.01024   0.26224   0.85743   0.00000  Uiso   1.00
N605   N     0.32516   0.11893   0.69888   0.00000  Uiso   1.00
H606   H     0.00939   0.08506   0.69783   0.00000  Uiso   1.00
H607   H     0.01052   0.13494   0.66380   0.00000  Uiso   1.00
O608   O     0.06697   0.07520   0.54399   0.00000  Uiso   1.00
C609   C     0.00422   0.05506   0.55996   0.00000  Uiso   1.00
H610   H     0.33108   0.04629   0.60071   0.00000  Uiso   1.00
H611   H     0.32272   0.01780   0.53812   0.00000  Uiso   1.00
H612   H     0.30847   0.08376   0.55739   0.00000  Uiso   1.00
O613   O     0.24544   0.10872   0.86121   0.00000  Uiso   1.00
C614   C     0.22975   0.05408   0.86300   0.00000  Uiso   1.00
H615   H     0.17976   0.04014   0.86298   0.00000  Uiso   1.00
H616   H     0.24388   0.04027   0.89662   0.00000  Uiso   1.00
H617   H     0.25467   0.03639   0.82842   0.00000  Uiso   1.00
N618   N     0.24925   0.01256   0.71787   0.00000  Uiso   1.00
H619   H     0.28244   0.00900   0.73957   0.00000  Uiso   1.00
H620   H     0.25878   0.32609   0.68235   0.00000  Uiso   1.00
C621   C     0.51472   0.26623   0.75046   0.00000  Uiso   1.00
C622   C     0.47503   0.12347   0.98008   0.00000  Uiso   1.00
C623   C     0.49474   0.12865   0.92701   0.00000  Uiso   1.00
C624   C     0.51935   0.14308   0.51339   0.00000  Uiso   1.00
C625   C     0.58195   0.15958   0.99194   0.00000  Uiso   1.00
C626   C     0.60026   0.15280   0.93982   0.00000  Uiso   1.00
C627   C     0.55773   0.13105   0.90841   0.00000  Uiso   1.00
C628   C     0.50371   0.15035   0.56662   0.00000  Uiso   1.00
C629   C     0.61042   0.18363   0.57545   0.00000  Uiso   1.00
C630   C     0.45102   0.12865   0.89463   0.00000  Uiso   1.00
C631   C     0.52372   0.32076   0.74301   0.00000  Uiso   1.00
C632   C     0.46767   0.15332   0.84447   0.00000  Uiso   1.00
C633   C     0.47649   0.01256   0.75560   0.00000  Uiso   1.00
C634   C     0.48552   0.06709   0.74877   0.00000  Uiso   1.00
C635   C     0.53220   0.16959   0.65317   0.00000  Uiso   1.00
C636   C     0.62655   0.18015   0.52282   0.00000  Uiso   1.00
C637   C     0.54917   0.16834   0.59761   0.00000  Uiso   1.00
C638   C     0.39114   0.10303   0.91041   0.00000  Uiso   1.00
C639   C     0.37323   0.08519   0.95950   0.00000  Uiso   1.00
C640   C     0.41393   0.09638   0.99612   0.00000  Uiso   1.00
Cu641  Cu    0.44043   0.16105   0.74435   0.00000  Uiso   1.00
Cu642  Cu    0.55957   0.17228   0.75564   0.00000  Uiso   1.00
H643   H     0.64588   0.19819   0.59877   0.00000  Uiso   1.00
H644   H     0.64794   0.16351   0.92346   0.00000  Uiso   1.00
H645   H     0.34099   0.19211   0.50626   0.00000  Uiso   1.00
H646   H     0.45641   0.14361   0.58465   0.00000  Uiso   1.00
H647   H     0.35834   0.09560   0.88410   0.00000  Uiso   1.00
H648   H     0.66030   0.06336   0.96822   0.00000  Uiso   1.00
N649   N     0.64908   0.18074   0.76416   0.00000  Uiso   1.00
N650   N     0.35092   0.15259   0.73584   0.00000  Uiso   1.00
O651   O     0.46131   0.23807   0.74633   0.00000  Uiso   1.00
O652   O     0.56191   0.24755   0.75586   0.00000  Uiso   1.00
O653   O     0.42515   0.15960   0.81840   0.00000  Uiso   1.00
O654   O     0.52575   0.16908   0.82793   0.00000  Uiso   1.00
O655   O     0.43809   0.08578   0.74414   0.00000  Uiso   1.00
O656   O     0.53869   0.09526   0.75367   0.00000  Uiso   1.00
O657   O     0.47425   0.16425   0.67207   0.00000  Uiso   1.00
O658   O     0.57485   0.17373   0.68160   0.00000  Uiso   1.00
N659   N     0.41742   0.32085   0.78027   0.00000  Uiso   1.00
H660   H     0.40685   0.00810   0.81519   0.00000  Uiso   1.00
H661   H     0.38483   0.32326   0.75749   0.00000  Uiso   1.00
O662   O     0.34811   0.22204   0.78790   0.00000  Uiso   1.00
C663   C     0.64578   0.23746   0.83306   0.00000  Uiso   1.00
H664   H     0.62271   0.20423   0.85530   0.00000  Uiso   1.00
H665   H     0.61357   0.26138   0.82595   0.00000  Uiso   1.00
H666   H     0.34357   0.26224   0.85743   0.00000  Uiso   1.00
N667   N     0.65849   0.11893   0.69888   0.00000  Uiso   1.00
H668   H     0.34272   0.08506   0.69783   0.00000  Uiso   1.00
H669   H     0.34385   0.13494   0.66380   0.00000  Uiso   1.00
O670   O     0.40030   0.07520   0.54399   0.00000  Uiso   1.00
C671   C     0.33755   0.05506   0.55996   0.00000  Uiso   1.00
H672   H     0.66441   0.04629   0.60071   0.00000  Uiso   1.00
H673   H     0.65605   0.01780   0.53812   0.00000  Uiso   1.00
H674   H     0.64180   0.08376   0.55739   0.00000  Uiso   1.00
O675   O     0.57878   0.10872   0.86121   0.00000  Uiso   1.00
C676   C     0.56308   0.05408   0.86300   0.00000  Uiso   1.00
H677   H     0.51309   0.04014   0.86298   0.00000  Uiso   1.00
H678   H     0.57722   0.04027   0.89662   0.00000  Uiso   1.00
H679   H     0.58800   0.03639   0.82842   0.00000  Uiso   1.00
N680   N     0.58258   0.01256   0.71787   0.00000  Uiso   1.00
H681   H     0.61577   0.00900   0.73957   0.00000  Uiso   1.00
H682   H     0.59212   0.32609   0.68235   0.00000  Uiso   1.00
C683   C     0.84805   0.26623   0.75046   0.00000  Uiso   1.00
C684   C     0.80836   0.12347   0.98008   0.00000  Uiso   1.00
C685   C     0.82808   0.12865   0.92701   0.00000  Uiso   1.00
C686   C     0.85269   0.14308   0.51339   0.00000  Uiso   1.00
C687   C     0.91529   0.15958   0.99194   0.00000  Uiso   1.00
C688   C     0.93359   0.15280   0.93982   0.00000  Uiso   1.00
C689   C     0.89106   0.13105   0.90841   0.00000  Uiso   1.00
C690   C     0.83704   0.15035   0.56662   0.00000  Uiso   1.00
C691   C     0.94375   0.18363   0.57545   0.00000  Uiso   1.00
C692   C     0.78435   0.12865   0.89463   0.00000  Uiso   1.00
C693   C     0.85705   0.32076   0.74301   0.00000  Uiso   1.00
C694   C     0.80101   0.15332   0.84447   0.00000  Uiso   1.00
C695   C     0.80982   0.01256   0.75560   0.00000  Uiso   1.00
C696   C     0.81885   0.06709   0.74877   0.00000  Uiso   1.00
C697   C     0.86553   0.16959   0.65317   0.00000  Uiso   1.00
C698   C     0.95988   0.18015   0.52282   0.00000  Uiso   1.00
C699   C     0.88250   0.16834   0.59761   0.00000  Uiso   1.00
C700   C     0.72447   0.10303   0.91041   0.00000  Uiso   1.00
C701   C     0.70657   0.08519   0.95950   0.00000  Uiso   1.00
C702   C     0.74726   0.09638   0.99612   0.00000  Uiso   1.00
Cu703  Cu    0.77377   0.16105   0.74435   0.00000  Uiso   1.00
Cu704  Cu    0.89290   0.17228   0.75564   0.00000  Uiso   1.00
H705   H     0.97922   0.19819   0.59877   0.00000  Uiso   1.00
H706   H     0.98127   0.16351   0.92346   0.00000  Uiso   1.00
H707   H     0.67432   0.19211   0.50626   0.00000  Uiso   1.00
H708   H     0.78974   0.14361   0.58465   0.00000  Uiso   1.00
H709   H     0.69167   0.09560   0.88410   0.00000  Uiso   1.00
H710   H     0.99363   0.06336   0.96822   0.00000  Uiso   1.00
N711   N     0.98241   0.18074   0.76416   0.00000  Uiso   1.00
N712   N     0.68426   0.15259   0.73584   0.00000  Uiso   1.00
O713   O     0.79464   0.23807   0.74633   0.00000  Uiso   1.00
O714   O     0.89524   0.24755   0.75586   0.00000  Uiso   1.00
O715   O     0.75848   0.15960   0.81840   0.00000  Uiso   1.00
O716   O     0.85908   0.16908   0.82793   0.00000  Uiso   1.00
O717   O     0.77142   0.08578   0.74414   0.00000  Uiso   1.00
O718   O     0.87203   0.09526   0.75367   0.00000  Uiso   1.00
O719   O     0.80758   0.16425   0.67207   0.00000  Uiso   1.00
O720   O     0.90819   0.17373   0.68160   0.00000  Uiso   1.00
N721   N     0.75076   0.32085   0.78027   0.00000  Uiso   1.00
H722   H     0.74018   0.00810   0.81519   0.00000  Uiso   1.00
H723   H     0.71816   0.32326   0.75749   0.00000  Uiso   1.00
O724   O     0.68144   0.22204   0.78790   0.00000  Uiso   1.00
C725   C     0.97911   0.23746   0.83306   0.00000  Uiso   1.00
H726   H     0.95605   0.20423   0.85530   0.00000  Uiso   1.00
H727   H     0.94691   0.26138   0.82595   0.00000  Uiso   1.00
H728   H     0.67690   0.26224   0.85743   0.00000  Uiso   1.00
N729   N     0.99183   0.11893   0.69888   0.00000  Uiso   1.00
H730   H     0.67605   0.08506   0.69783   0.00000  Uiso   1.00
H731   H     0.67718   0.13494   0.66380   0.00000  Uiso   1.00
O732   O     0.73363   0.07520   0.54399   0.00000  Uiso   1.00
C733   C     0.67088   0.05506   0.55996   0.00000  Uiso   1.00
H734   H     0.99775   0.04629   0.60071   0.00000  Uiso   1.00
H735   H     0.98938   0.01780   0.53812   0.00000  Uiso   1.00
H736   H     0.97514   0.08376   0.55739   0.00000  Uiso   1.00
O737   O     0.91211   0.10872   0.86121   0.00000  Uiso   1.00
C738   C     0.89642   0.05408   0.86300   0.00000  Uiso   1.00
H739   H     0.84642   0.04014   0.86298   0.00000  Uiso   1.00
H740   H     0.91055   0.04027   0.89662   0.00000  Uiso   1.00
H741   H     0.92133   0.03639   0.82842   0.00000  Uiso   1.00
N742   N     0.91591   0.01256   0.71787   0.00000  Uiso   1.00
H743   H     0.94911   0.00900   0.73957   0.00000  Uiso   1.00
H744   H     0.92545   0.32609   0.68235   0.00000  Uiso   1.00
C745   C     0.18138   0.59957   0.75046   0.00000  Uiso   1.00
C746   C     0.14170   0.45680   0.98008   0.00000  Uiso   1.00
C747   C     0.16141   0.46199   0.92701   0.00000  Uiso   1.00
C748   C     0.18602   0.47642   0.51339   0.00000  Uiso   1.00
C749   C     0.24862   0.49291   0.99194   0.00000  Uiso   1.00
C750   C     0.26693   0.48614   0.93982   0.00000  Uiso   1.00
C751   C     0.22439   0.46439   0.90841   0.00000  Uiso   1.00
C752   C     0.17037   0.48369   0.56662   0.00000  Uiso   1.00
C753   C     0.27709   0.51697   0.57545   0.00000  Uiso   1.00
C754   C     0.11768   0.46198   0.89463   0.00000  Uiso   1.00
C755   C     0.19039   0.65409   0.74301   0.00000  Uiso   1.00
C756   C     0.13434   0.48665   0.84447   0.00000  Uiso   1.00
C757   C     0.14315   0.34590   0.75560   0.00000  Uiso   1.00
C758   C     0.15218   0.40042   0.74877   0.00000  Uiso   1.00
C759   C     0.19887   0.50292   0.65317   0.00000  Uiso   1.00
C760   C     0.29321   0.51348   0.52282   0.00000  Uiso   1.00
C761   C     0.21583   0.50168   0.59761   0.00000  Uiso   1.00
C762   C     0.05781   0.43636   0.91041   0.00000  Uiso   1.00
C763   C     0.03990   0.41852   0.95950   0.00000  Uiso   1.00
C764   C     0.08059   0.42972   0.99612   0.00000  Uiso   1.00
Cu765  Cu    0.10710   0.49439   0.74435   0.00000  Uiso   1.00
Cu766  Cu    0.22623   0.50561   0.75564   0.00000  Uiso   1.00
H767   H     0.31255   0.53152   0.59877   0.00000  Uiso   1.00
H768   H     0.31461   0.49684   0.92346   0.00000  Uiso   1.00
H769   H     0.00765   0.52544   0.50626   0.00000  Uiso   1.00
H770   H     0.12308   0.47694   0.58465   0.00000  Uiso   1.00
H771   H     0.02501   0.42894   0.88410   0.00000  Uiso   1.00
H772   H     0.32697   0.39669   0.96822   0.00000  Uiso   1.00
N773   N     0.31574   0.51407   0.76416   0.00000  Uiso   1.00
N774   N     0.01759   0.48593   0.73584   0.00000  Uiso   1.00
O775   O     0.12797   0.57141   0.74633   0.00000  Uiso   1.00
O776   O     0.22858   0.58089   0.75586   0.00000  Uiso   1.00
O777   O     0.09181   0.49293   0.81840   0.00000  Uiso   1.00
O778   O     0.19242   0.50241   0.82793   0.00000  Uiso   1.00
O779   O     0.10476   0.41911   0.74414   0.00000  Uiso   1.00
O780   O     0.20536   0.42859   0.75367   0.00000  Uiso   1.00
O781   O     0.14092   0.49759   0.67207   0.00000  Uiso   1.00
O782   O     0.24152   0.50707   0.68160   0.00000  Uiso   1.00
N783   N     0.08409   0.65419   0.78027   0.00000  Uiso   1.00
H784   H     0.07352   0.34143   0.81519   0.00000  Uiso   1.00
H785   H     0.05150   0.65660   0.75749   0.00000  Uiso   1.00
O786   O     0.01478   0.55538   0.78790   0.00000  Uiso   1.00
C787   C     0.31244   0.57080   0.83306   0.00000  Uiso   1.00
H788   H     0.28938   0.53756   0.85530   0.00000  Uiso   1.00
H789   H     0.28024   0.59471   0.82595   0.00000  Uiso   1.00
H790   H     0.01024   0.59557   0.85743   0.00000  Uiso   1.00
N791   N     0.32516   0.45226   0.69888   0.00000  Uiso   1.00
H792   H     0.00939   0.41840   0.69783   0.00000  Uiso   1.00
H793   H     0.01052   0.46828   0.66380   0.00000  Uiso   1.00
O794   O     0.06697   0.40853   0.54399   0.00000  Uiso   1.00
C795   C     0.00422   0.38839   0.55996   0.00000  Uiso   1.00
H796   H     0.33108   0.37962   0.60071   0.00000  Uiso   1.00
H797   H     0.32272   0.35113   0.53812   0.00000  Uiso   1.00
H798   H     0.30847   0.41710   0.55739   0.00000  Uiso   1.00
O799   O     0.24544   0.44206   0.86121   0.00000  Uiso   1.00
C800   C     0.22975   0.38742   0.86300   0.00000  Uiso   1.00
H801   H     0.17976   0.37347   0.86298   0.00000  Uiso   1.00
H802   H     0.24388   0.37361   0.89662   0.00000  Uiso   1.00
H803   H     0.25467   0.36972   0.82842   0.00000  Uiso   1.00
N804   N     0.24925   0.34590   0.71787   0.00000  Uiso   1.00
H805   H     0.28244   0.34233   0.73957   0.00000  Uiso   1.00
H806   H     0.25878   0.65942   0.68235   0.00000  Uiso   1.00
C807   C     0.51472   0.59957   0.75046   0.00000  Uiso   1.00
C808   C     0.47503   0.45680   0.98008   0.00000  Uiso   1.00
C809   C     0.49474   0.46199   0.92701   0.00000  Uiso   1.00
C810   C     0.51935   0.47642   0.51339   0.00000  Uiso   1.00
C811   C     0.58195   0.49291   0.99194   0.00000  Uiso   1.00
C812   C     0.60026   0.48614   0.93982   0.00000  Uiso   1.00
C813   C     0.55773   0.46439   0.90841   0.00000  Uiso   1.00
C814   C     0.50371   0.48369   0.56662   0.00000  Uiso   1.00
C815   C     0.61042   0.51697   0.57545   0.00000  Uiso   1.00
C816   C     0.45102   0.46198   0.89463   0.00000  Uiso   1.00
C817   C     0.52372   0.65409   0.74301   0.00000  Uiso   1.00
C818   C     0.46767   0.48665   0.84447   0.00000  Uiso   1.00
C819   C     0.47649   0.34590   0.75560   0.00000  Uiso   1.00
C820   C     0.48552   0.40042   0.74877   0.00000  Uiso   1.00
C821   C     0.53220   0.50292   0.65317   0.00000  Uiso   1.00
C822   C     0.62655   0.51348   0.52282   0.00000  Uiso   1.00
C823   C     0.54917   0.50168   0.59761   0.00000  Uiso   1.00
C824   C     0.39114   0.43636   0.91041   0.00000  Uiso   1.00
C825   C     0.37323   0.41852   0.95950   0.00000  Uiso   1.00
C826   C     0.41393   0.42972   0.99612   0.00000  Uiso   1.00
Cu827  Cu    0.44043   0.49439   0.74435   0.00000  Uiso   1.00
Cu828  Cu    0.55957   0.50561   0.75564   0.00000  Uiso   1.00
H829   H     0.64588   0.53152   0.59877   0.00000  Uiso   1.00
H830   H     0.64794   0.49684   0.92346   0.00000  Uiso   1.00
H831   H     0.34099   0.52544   0.50626   0.00000  Uiso   1.00
H832   H     0.45641   0.47694   0.58465   0.00000  Uiso   1.00
H833   H     0.35834   0.42894   0.88410   0.00000  Uiso   1.00
H834   H     0.66030   0.39669   0.96822   0.00000  Uiso   1.00
N835   N     0.64908   0.51407   0.76416   0.00000  Uiso   1.00
N836   N     0.35092   0.48593   0.73584   0.00000  Uiso   1.00
O837   O     0.46131   0.57141   0.74633   0.00000  Uiso   1.00
O838   O     0.56191   0.58089   0.75586   0.00000  Uiso   1.00
O839   O     0.42515   0.49293   0.81840   0.00000  Uiso   1.00
O840   O     0.52575   0.50241   0.82793   0.00000  Uiso   1.00
O841   O     0.43809   0.41911   0.74414   0.00000  Uiso   1.00
O842   O     0.53869   0.42859   0.75367   0.00000  Uiso   1.00
O843   O     0.47425   0.49759   0.67207   0.00000  Uiso   1.00
O844   O     0.57485   0.50707   0.68160   0.00000  Uiso   1.00
N845   N     0.41742   0.65419   0.78027   0.00000  Uiso   1.00
H846   H     0.40685   0.34143   0.81519   0.00000  Uiso   1.00
H847   H     0.38483   0.65660   0.75749   0.00000  Uiso   1.00
O848   O     0.34811   0.55538   0.78790   0.00000  Uiso   1.00
C849   C     0.64578   0.57080   0.83306   0.00000  Uiso   1.00
H850   H     0.62271   0.53756   0.85530   0.00000  Uiso   1.00
H851   H     0.61357   0.59471   0.82595   0.00000  Uiso   1.00
H852   H     0.34357   0.59557   0.85743   0.00000  Uiso   1.00
N853   N     0.65849   0.45226   0.69888   0.00000  Uiso   1.00
H854   H     0.34272   0.41840   0.69783   0.00000  Uiso   1.00
H855   H     0.34385   0.46828   0.66380   0.00000  Uiso   1.00
O856   O     0.40030   0.40853   0.54399   0.00000  Uiso   1.00
C857   C     0.33755   0.38839   0.55996   0.00000  Uiso   1.00
H858   H     0.66441   0.37962   0.60071   0.00000  Uiso   1.00
H859   H     0.65605   0.35113   0.53812   0.00000  Uiso   1.00
H860   H     0.64180   0.41710   0.55739   0.00000  Uiso   1.00
O861   O     0.57878   0.44206   0.86121   0.00000  Uiso   1.00
C862   C     0.56308   0.38742   0.86300   0.00000  Uiso   1.00
H863   H     0.51309   0.37347   0.86298   0.00000  Uiso   1.00
H864   H     0.57722   0.37361   0.89662   0.00000  Uiso   1.00
H865   H     0.58800   0.36972   0.82842   0.00000  Uiso   1.00
N866   N     0.58258   0.34590   0.71787   0.00000  Uiso   1.00
H867   H     0.61577   0.34233   0.73957   0.00000  Uiso   1.00
H868   H     0.59212   0.65942   0.68235   0.00000  Uiso   1.00
C869   C     0.84805   0.59957   0.75046   0.00000  Uiso   1.00
C870   C     0.80836   0.45680   0.98008   0.00000  Uiso   1.00
C871   C     0.82808   0.46199   0.92701   0.00000  Uiso   1.00
C872   C     0.85269   0.47642   0.51339   0.00000  Uiso   1.00
C873   C     0.91529   0.49291   0.99194   0.00000  Uiso   1.00
C874   C     0.93359   0.48614   0.93982   0.00000  Uiso   1.00
C875   C     0.89106   0.46439   0.90841   0.00000  Uiso   1.00
C876   C     0.83704   0.48369   0.56662   0.00000  Uiso   1.00
C877   C     0.94375   0.51697   0.57545   0.00000  Uiso   1.00
C878   C     0.78435   0.46198   0.89463   0.00000  Uiso   1.00
C879   C     0.85705   0.65409   0.74301   0.00000  Uiso   1.00
C880   C     0.80101   0.48665   0.84447   0.00000  Uiso   1.00
C881   C     0.80982   0.34590   0.75560   0.00000  Uiso   1.00
C882   C     0.81885   0.40042   0.74877   0.00000  Uiso   1.00
C883   C     0.86553   0.50292   0.65317   0.00000  Uiso   1.00
C884   C     0.95988   0.51348   0.52282   0.00000  Uiso   1.00
C885   C     0.88250   0.50168   0.59761   0.00000  Uiso   1.00
C886   C     0.72447   0.43636   0.91041   0.00000  Uiso   1.00
C887   C     0.70657   0.41852   0.95950   0.00000  Uiso   1.00
C888   C     0.74726   0.42972   0.99612   0.00000  Uiso   1.00
Cu889  Cu    0.77377   0.49439   0.74435   0.00000  Uiso   1.00
Cu890  Cu    0.89290   0.50561   0.75564   0.00000  Uiso   1.00
H891   H     0.97922   0.53152   0.59877   0.00000  Uiso   1.00
H892   H     0.98127   0.49684   0.92346   0.00000  Uiso   1.00
H893   H     0.67432   0.52544   0.50626   0.00000  Uiso   1.00
H894   H     0.78974   0.47694   0.58465   0.00000  Uiso   1.00
H895   H     0.69167   0.42894   0.88410   0.00000  Uiso   1.00
H896   H     0.99363   0.39669   0.96822   0.00000  Uiso   1.00
N897   N     0.98241   0.51407   0.76416   0.00000  Uiso   1.00
N898   N     0.68426   0.48593   0.73584   0.00000  Uiso   1.00
O899   O     0.79464   0.57141   0.74633   0.00000  Uiso   1.00
O900   O     0.89524   0.58089   0.75586   0.00000  Uiso   1.00
O901   O     0.75848   0.49293   0.81840   0.00000  Uiso   1.00
O902   O     0.85908   0.50241   0.82793   0.00000  Uiso   1.00
O903   O     0.77142   0.41911   0.74414   0.00000  Uiso   1.00
O904   O     0.87203   0.42859   0.75367   0.00000  Uiso   1.00
O905   O     0.80758   0.49759   0.67207   0.00000  Uiso   1.00
O906   O     0.90819   0.50707   0.68160   0.00000  Uiso   1.00
N907   N     0.75076   0.65419   0.78027   0.00000  Uiso   1.00
H908   H     0.74018   0.34143   0.81519   0.00000  Uiso   1.00
H909   H     0.71816   0.65660   0.75749   0.00000  Uiso   1.00
O910   O     0.68144   0.55538   0.78790   0.00000  Uiso   1.00
C911   C     0.97911   0.57080   0.83306   0.00000  Uiso   1.00
H912   H     0.95605   0.53756   0.85530   0.00000  Uiso   1.00
H913   H     0.94691   0.59471   0.82595   0.00000  Uiso   1.00
H914   H     0.67690   0.59557   0.85743   0.00000  Uiso   1.00
N915   N     0.99183   0.45226   0.69888   0.00000  Uiso   1.00
H916   H     0.67605   0.41840   0.69783   0.00000  Uiso   1.00
H917   H     0.67718   0.46828   0.66380   0.00000  Uiso   1.00
O918   O     0.73363   0.40853   0.54399   0.00000  Uiso   1.00
C919   C     0.67088   0.38839   0.55996   0.00000  Uiso   1.00
H920   H     0.99775   0.37962   0.60071   0.00000  Uiso   1.00
H921   H     0.98938   0.35113   0.53812   0.00000  Uiso   1.00
H922   H     0.97514   0.41710   0.55739   0.00000  Uiso   1.00
O923   O     0.91211   0.44206   0.86121   0.00000  Uiso   1.00
C924   C     0.89642   0.38742   0.86300   0.00000  Uiso   1.00
H925   H     0.84642   0.37347   0.86298   0.00000  Uiso   1.00
H926   H     0.91055   0.37361   0.89662   0.00000  Uiso   1.00
H927   H     0.92133   0.36972   0.82842   0.00000  Uiso   1.00
N928   N     0.91591   0.34590   0.71787   0.00000  Uiso   1.00
H929   H     0.94911   0.34233   0.73957   0.00000  Uiso   1.00
H930   H     0.92545   0.65942   0.68235   0.00000  Uiso   1.00
C931   C     0.18138   0.93290   0.75046   0.00000  Uiso   1.00
C932   C     0.14170   0.79014   0.98008   0.00000  Uiso   1.00
C933   C     0.16141   0.79532   0.92701   0.00000  Uiso   1.00
C934   C     0.18602   0.80975   0.51339   0.00000  Uiso   1.00
C935   C     0.24862   0.82624   0.99194   0.00000  Uiso   1.00
C936   C     0.26693   0.81947   0.93982   0.00000  Uiso   1.00
C937   C     0.22439   0.79772   0.90841   0.00000  Uiso   1.00
C938   C     0.17037   0.81702   0.56662   0.00000  Uiso   1.00
C939   C     0.27709   0.85030   0.57545   0.00000  Uiso   1.00
C940   C     0.11768   0.79532   0.89463   0.00000  Uiso   1.00
C941   C     0.19039   0.98743   0.74301   0.00000  Uiso   1.00
C942   C     0.13434   0.81999   0.84447   0.00000  Uiso   1.00
C943   C     0.14315   0.67923   0.75560   0.00000  Uiso   1.00
C944   C     0.15218   0.73376   0.74877   0.00000  Uiso   1.00
C945   C     0.19887   0.83626   0.65317   0.00000  Uiso   1.00
C946   C     0.29321   0.84681   0.52282   0.00000  Uiso   1.00
C947   C     0.21583   0.83501   0.59761   0.00000  Uiso   1.00
C948   C     0.05781   0.76970   0.91041   0.00000  Uiso   1.00
C949   C     0.03990   0.75186   0.95950   0.00000  Uiso   1.00
C950   C     0.08059   0.76305   0.99612   0.00000  Uiso   1.00
Cu951  Cu    0.10710   0.82772   0.74435   0.00000  Uiso   1.00
Cu952  Cu    0.22623   0.83895   0.75564   0.00000  Uiso   1.00
H953   H     0.31255   0.86485   0.59877   0.00000  Uiso   1.00
H954   H     0.31461   0.83018   0.92346   0.00000  Uiso   1.00
H955   H     0.00765   0.85878   0.50626   0.00000  Uiso   1.00
H956   H     0.12308   0.81028   0.58465   0.00000  Uiso   1.00
H957   H     0.02501   0.76227   0.88410   0.00000  Uiso   1.00
H958   H     0.32697   0.73003   0.96822   0.00000  Uiso   1.00
N959   N     0.31574   0.84741   0.76416   0.00000  Uiso   1.00
N960   N     0.01759   0.81926   0.73584   0.00000  Uiso   1.00
O961   O     0.12797   0.90474   0.74633   0.00000  Uiso   1.00
O962   O     0.22858   0.91422   0.75586   0.00000  Uiso   1.00
O963   O     0.09181   0.82627   0.81840   0.00000  Uiso   1.00
O964   O     0.19242   0.83575   0.82793   0.00000  Uiso   1.00
O965   O     0.10476   0.75245   0.74414   0.00000  Uiso   1.00
O966   O     0.20536   0.76193   0.75367   0.00000  Uiso   1.00
O967   O     0.14092   0.83092   0.67207   0.00000  Uiso   1.00
O968   O     0.24152   0.84040   0.68160   0.00000  Uiso   1.00
N969   N     0.08409   0.98752   0.78027   0.00000  Uiso   1.00
H970   H     0.07352   0.67477   0.81519   0.00000  Uiso   1.00
H971   H     0.05150   0.98993   0.75749   0.00000  Uiso   1.00
O972   O     0.01478   0.88871   0.78790   0.00000  Uiso   1.00
C973   C     0.31244   0.90413   0.83306   0.00000  Uiso   1.00
H974   H     0.28938   0.87089   0.85530   0.00000  Uiso   1.00
H975   H     0.28024   0.92804   0.82595   0.00000  Uiso   1.00
H976   H     0.01024   0.92891   0.85743   0.00000  Uiso   1.00
N977   N     0.32516   0.78560   0.69888   0.00000  Uiso   1.00
H978   H     0.00939   0.75173   0.69783   0.00000  Uiso   1.00
H979   H     0.01052   0.80161   0.66380   0.00000  Uiso   1.00
O980   O     0.06697   0.74186   0.54399   0.00000  Uiso   1.00
C981   C     0.00422   0.72172   0.55996   0.00000  Uiso   1.00
H982   H     0.33108   0.71296   0.60071   0.00000  Uiso   1.00
H983   H     0.32272   0.68447   0.53812   0.00000  Uiso   1.00
H984   H     0.30847   0.75043   0.55739   0.00000  Uiso   1.00
O985   O     0.24544   0.77539   0.86121   0.00000  Uiso   1.00
C986   C     0.22975   0.72075   0.86300   0.00000  Uiso   1.00
H987   H     0.17976   0.70681   0.86298   0.00000  Uiso   1.00
H988   H     0.24388   0.70694   0.89662   0.00000  Uiso   1.00
H989   H     0.25467   0.70305   0.82842   0.00000  Uiso   1.00
N990   N     0.24925   0.67923   0.71787   0.00000  Uiso   1.00
H991   H     0.28244   0.67566   0.73957   0.00000  Uiso   1.00
H992   H     0.25878   0.99276   0.68235   0.00000  Uiso   1.00
C993   C     0.51472   0.93290   0.75046   0.00000  Uiso   1.00
C994   C     0.47503   0.79014   0.98008   0.00000  Uiso   1.00
C995   C     0.49474   0.79532   0.92701   0.00000  Uiso   1.00
C996   C     0.51935   0.80975   0.51339   0.00000  Uiso   1.00
C997   C     0.58195   0.82624   0.99194   0.00000  Uiso   1.00
C998   C     0.60026   0.81947   0.93982   0.00000  Uiso   1.00
C999   C     0.55773   0.79772   0.90841   0.00000  Uiso   1.00
C1000  C     0.50371   0.81702   0.56662   0.00000  Uiso   1.00
C1001  C     0.61042   0.85030   0.57545   0.00000  Uiso   1.00
C1002  C     0.45102   0.79532   0.89463   0.00000  Uiso   1.00
C1003  C     0.52372   0.98743   0.74301   0.00000  Uiso   1.00
C1004  C     0.46767   0.81999   0.84447   0.00000  Uiso   1.00
C1005  C     0.47649   0.67923   0.75560   0.00000  Uiso   1.00
C1006  C     0.48552   0.73376   0.74877   0.00000  Uiso   1.00
C1007  C     0.53220   0.83626   0.65317   0.00000  Uiso   1.00
C1008  C     0.62655   0.84681   0.52282   0.00000  Uiso   1.00
C1009  C     0.54917   0.83501   0.59761   0.00000  Uiso   1.00
C1010  C     0.39114   0.76970   0.91041   0.00000  Uiso   1.00
C1011  C     0.37323   0.75186   0.95950   0.00000  Uiso   1.00
C1012  C     0.41393   0.76305   0.99612   0.00000  Uiso   1.00
Cu1013 Cu    0.44043   0.82772   0.74435   0.00000  Uiso   1.00
Cu1014 Cu    0.55957   0.83895   0.75564   0.00000  Uiso   1.00
H1015  H     0.64588   0.86485   0.59877   0.00000  Uiso   1.00
H1016  H     0.64794   0.83018   0.92346   0.00000  Uiso   1.00
H1017  H     0.34099   0.85878   0.50626   0.00000  Uiso   1.00
H1018  H     0.45641   0.81028   0.58465   0.00000  Uiso   1.00
H1019  H     0.35834   0.76227   0.88410   0.00000  Uiso   1.00
H1020  H     0.66030   0.73003   0.96822   0.00000  Uiso   1.00
N1021  N     0.64908   0.84741   0.76416   0.00000  Uiso   1.00
N1022  N     0.35092   0.81926   0.73584   0.00000  Uiso   1.00
O1023  O     0.46131   0.90474   0.74633   0.00000  Uiso   1.00
O1024  O     0.56191   0.91422   0.75586   0.00000  Uiso   1.00
O1025  O     0.42515   0.82627   0.81840   0.00000  Uiso   1.00
O1026  O     0.52575   0.83575   0.82793   0.00000  Uiso   1.00
O1027  O     0.43809   0.75245   0.74414   0.00000  Uiso   1.00
O1028  O     0.53869   0.76193   0.75367   0.00000  Uiso   1.00
O1029  O     0.47425   0.83092   0.67207   0.00000  Uiso   1.00
O1030  O     0.57485   0.84040   0.68160   0.00000  Uiso   1.00
N1031  N     0.41742   0.98752   0.78027   0.00000  Uiso   1.00
H1032  H     0.40685   0.67477   0.81519   0.00000  Uiso   1.00
H1033  H     0.38483   0.98993   0.75749   0.00000  Uiso   1.00
O1034  O     0.34811   0.88871   0.78790   0.00000  Uiso   1.00
C1035  C     0.64578   0.90413   0.83306   0.00000  Uiso   1.00
H1036  H     0.62271   0.87089   0.85530   0.00000  Uiso   1.00
H1037  H     0.61357   0.92804   0.82595   0.00000  Uiso   1.00
H1038  H     0.34357   0.92891   0.85743   0.00000  Uiso   1.00
N1039  N     0.65849   0.78560   0.69888   0.00000  Uiso   1.00
H1040  H     0.34272   0.75173   0.69783   0.00000  Uiso   1.00
H1041  H     0.34385   0.80161   0.66380   0.00000  Uiso   1.00
O1042  O     0.40030   0.74186   0.54399   0.00000  Uiso   1.00
C1043  C     0.33755   0.72172   0.55996   0.00000  Uiso   1.00
H1044  H     0.66441   0.71296   0.60071   0.00000  Uiso   1.00
H1045  H     0.65605   0.68447   0.53812   0.00000  Uiso   1.00
H1046  H     0.64180   0.75043   0.55739   0.00000  Uiso   1.00
O1047  O     0.57878   0.77539   0.86121   0.00000  Uiso   1.00
C1048  C     0.56308   0.72075   0.86300   0.00000  Uiso   1.00
H1049  H     0.51309   0.70681   0.86298   0.00000  Uiso   1.00
H1050  H     0.57722   0.70694   0.89662   0.00000  Uiso   1.00
H1051  H     0.58800   0.70305   0.82842   0.00000  Uiso   1.00
N1052  N     0.58258   0.67923   0.71787   0.00000  Uiso   1.00
H1053  H     0.61577   0.67566   0.73957   0.00000  Uiso   1.00
H1054  H     0.59212   0.99276   0.68235   0.00000  Uiso   1.00
C1055  C     0.84805   0.93290   0.75046   0.00000  Uiso   1.00
C1056  C     0.80836   0.79014   0.98008   0.00000  Uiso   1.00
C1057  C     0.82808   0.79532   0.92701   0.00000  Uiso   1.00
C1058  C     0.85269   0.80975   0.51339   0.00000  Uiso   1.00
C1059  C     0.91529   0.82624   0.99194   0.00000  Uiso   1.00
C1060  C     0.93359   0.81947   0.93982   0.00000  Uiso   1.00
C1061  C     0.89106   0.79772   0.90841   0.00000  Uiso   1.00
C1062  C     0.83704   0.81702   0.56662   0.00000  Uiso   1.00
C1063  C     0.94375   0.85030   0.57545   0.00000  Uiso   1.00
C1064  C     0.78435   0.79532   0.89463   0.00000  Uiso   1.00
C1065  C     0.85705   0.98743   0.74301   0.00000  Uiso   1.00
C1066  C     0.80101   0.81999   0.84447   0.00000  Uiso   1.00
C1067  C     0.80982   0.67923   0.75560   0.00000  Uiso   1.00
C1068  C     0.81885   0.73376   0.74877   0.00000  Uiso   1.00
C1069  C     0.86553   0.83626   0.65317   0.00000  Uiso   1.00
C1070  C     0.95988   0.84681   0.52282   0.00000  Uiso   1.00
C1071  C     0.88250   0.83501   0.59761   0.00000  Uiso   1.00
C1072  C     0.72447   0.76970   0.91041   0.00000  Uiso   1.00
C1073  C     0.70657   0.75186   0.95950   0.00000  Uiso   1.00
C1074  C     0.74726   0.76305   0.99612   0.00000  Uiso   1.00
Cu1075 Cu    0.77377   0.82772   0.74435   0.00000  Uiso   1.00
Cu1076 Cu    0.89290   0.83895   0.75564   0.00000  Uiso   1.00
H1077  H     0.97922   0.86485   0.59877   0.00000  Uiso   1.00
H1078  H     0.98127   0.83018   0.92346   0.00000  Uiso   1.00
H1079  H     0.67432   0.85878   0.50626   0.00000  Uiso   1.00
H1080  H     0.78974   0.81028   0.58465   0.00000  Uiso   1.00
H1081  H     0.69167   0.76227   0.88410   0.00000  Uiso   1.00
H1082  H     0.99363   0.73003   0.96822   0.00000  Uiso   1.00
N1083  N     0.98241   0.84741   0.76416   0.00000  Uiso   1.00
N1084  N     0.68426   0.81926   0.73584   0.00000  Uiso   1.00
O1085  O     0.79464   0.90474   0.74633   0.00000  Uiso   1.00
O1086  O     0.89524   0.91422   0.75586   0.00000  Uiso   1.00
O1087  O     0.75848   0.82627   0.81840   0.00000  Uiso   1.00
O1088  O     0.85908   0.83575   0.82793   0.00000  Uiso   1.00
O1089  O     0.77142   0.75245   0.74414   0.00000  Uiso   1.00
O1090  O     0.87203   0.76193   0.75367   0.00000  Uiso   1.00
O1091  O     0.80758   0.83092   0.67207   0.00000  Uiso   1.00
O1092  O     0.90819   0.84040   0.68160   0.00000  Uiso   1.00
N1093  N     0.75076   0.98752   0.78027   0.00000  Uiso   1.00
H1094  H     0.74018   0.67477   0.81519   0.00000  Uiso   1.00
H1095  H     0.71816   0.98993   0.75749   0.00000  Uiso   1.00
O1096  O     0.68144   0.88871   0.78790   0.00000  Uiso   1.00
C1097  C     0.97911   0.90413   0.83306   0.00000  Uiso   1.00
H1098  H     0.95605   0.87089   0.85530   0.00000  Uiso   1.00
H1099  H     0.94691   0.92804   0.82595   0.00000  Uiso   1.00
H1100  H     0.67690   0.92891   0.85743   0.00000  Uiso   1.00
N1101  N     0.99183   0.78560   0.69888   0.00000  Uiso   1.00
H1102  H     0.67605   0.75173   0.69783   0.00000  Uiso   1.00
H1103  H     0.67718   0.80161   0.66380   0.00000  Uiso   1.00
O1104  O     0.73363   0.74186   0.54399   0.00000  Uiso   1.00
C1105  C     0.67088   0.72172   0.55996   0.00000  Uiso   1.00
H1106  H     0.99775   0.71296   0.60071   0.00000  Uiso   1.00
H1107  H     0.98938   0.68447   0.53812   0.00000  Uiso   1.00
H1108  H     0.97514   0.75043   0.55739   0.00000  Uiso   1.00
O1109  O     0.91211   0.77539   0.86121   0.00000  Uiso   1.00
C1110  C     0.89642   0.72075   0.86300   0.00000  Uiso   1.00
H1111  H     0.84642   0.70681   0.86298   0.00000  Uiso   1.00
H1112  H     0.91055   0.70694   0.89662   0.00000  Uiso   1.00
H1113  H     0.92133   0.70305   0.82842   0.00000  Uiso   1.00
N1114  N     0.91591   0.67923   0.71787   0.00000  Uiso   1.00
H1115  H     0.94911   0.67566   0.73957   0.00000  Uiso   1.00
H1116  H     0.92545   0.99276   0.68235   0.00000  Uiso   1.00
loop_
_geom_bond_atom_site_label_1
_geom_bond_atom_site_label_2
_geom_bond_distance
_geom_bond_site_symmetry_2
_ccdc_geom_bond_type
C1     C11     1.434   .     S
C1     O31     1.295   .     A
C1     O32     1.294   .     A
C2     C3      1.416   .     A
C2     C20     1.428   .     A
C2     C562    1.436   .     S
C3     C10     1.418   .     A
C3     C7      1.411   .     A
C4     C8      1.404   .     A
C4     C560    1.436   1_554 S
C4     C563    1.422   1_554 S
C5     C6      1.383   .     A
C5     C562    1.422   .     S
C5     C574    1.400   .     S
C6     H24     1.078   .     S
C6     C7      1.382   .     A
C7     O55     1.384   .     S
C8     H26     1.077   .     S
C8     C17     1.406   .     A
C9     C17     1.397   .     A
C9     C16     1.384   .     A
C9     H23     1.083   .     S
C10    C18     1.392   .     A
C10    C12     1.495   .     S
C11    C199    1.344   .     S
C11    N246    1.436   .     S
C12    O34     1.301   .     A
C12    O33     1.322   .     A
C13    C14     1.431   .     S
C13    C383    1.344   1_545 S
C13    N411    1.434   1_545 S
C14    O36     1.294   .     A
C14    O35     1.293   .     A
C15    O38     1.306   .     A
C15    C17     1.461   .     S
C15    O37     1.300   .     A
C16    C563    1.400   1_554 S
C16    H87     1.084   .     S
C18    C19     1.395   .     A
C18    H27     1.082   .     S
C19    C20     1.423   .     A
C19    H152    1.080   1_455 S
C20    O608    1.399   .     S
Cu21   O35     1.969   .     S
Cu21   N30     2.035   .     S
Cu21   O31     1.981   .     S
Cu21   O33     1.944   .     S
Cu21   O37     1.946   .     S
Cu21   Cu22    2.708   .     S
Cu22   N29     2.035   .     S
Cu22   O32     1.969   .     S
Cu22   O34     1.946   .     S
Cu22   O38     1.944   .     S
Cu22   O36     1.981   .     S
H25    C140    1.084   1_455 S
H28    C81     1.080   .     S
N29    N92     1.293   .     S
N29    O104    1.348   .     S
N30    N153    1.293   1_455 S
N30    N171    1.383   1_455 S
N39    H41     1.046   .     S
N39    C199    1.434   .     S
N39    H226    1.046   .     S
H40    N411    1.046   1_545 S
O42    N153    1.348   1_455 S
O42    C167    1.400   1_455 S
C43    H44     1.091   .     S
C43    H45     1.103   .     S
C43    O104    1.400   .     S
C43    H108    1.109   .     S
H46    C167    1.109   1_455 S
N47    N92     1.383   .     S
N47    H110    1.042   .     S
N47    H111    1.045   .     S
H48    N171    1.042   1_455 S
H49    N171    1.045   1_455 S
O50    C51     1.410   .     S
O50    C578    1.399   1_554 S
C51    H176    1.109   1_455 S
C51    H177    1.111   1_455 S
C51    H178    1.110   1_455 S
H52    C113    1.109   .     S
H53    C113    1.111   .     S
H54    C113    1.110   .     S
O55    C56     1.411   .     S
C56    H59     1.107   .     S
C56    H58     1.115   .     S
C56    H57     1.112   .     S
N60    H61     1.045   .     S
N60    C383    1.436   1_545 S
N60    H434    1.046   1_545 S
H62    N246    1.046   .     S
C63    C73     1.434   .     S
C63    O93     1.295   .     A
C63    O94     1.294   .     A
C64    C65     1.416   .     A
C64    C82     1.428   .     A
C64    C624    1.436   .     S
C65    C72     1.418   .     A
C65    C69     1.411   .     A
C66    C70     1.404   .     A
C66    C622    1.436   1_554 S
C66    C625    1.422   1_554 S
C67    C68     1.383   .     A
C67    C624    1.422   .     S
C67    C636    1.400   .     S
C68    H86     1.078   .     S
C68    C69     1.382   .     A
C69    O117    1.384   .     S
C70    H88     1.077   .     S
C70    C79     1.406   .     A
C71    C79     1.397   .     A
C71    C78     1.384   .     A
C71    H85     1.083   .     S
C72    C80     1.392   .     A
C72    C74     1.495   .     S
C73    C261    1.344   .     S
C73    N308    1.436   .     S
C74    O96     1.301   .     A
C74    O95     1.322   .     A
C75    C76     1.431   .     S
C75    C445    1.344   1_545 S
C75    N473    1.434   1_545 S
C76    O98     1.294   .     A
C76    O97     1.293   .     A
C77    O100    1.306   .     A
C77    C79     1.461   .     S
C77    O99     1.300   .     A
C78    C625    1.400   1_554 S
C78    H149    1.084   .     S
C80    C81     1.395   .     A
C80    H89     1.082   .     S
C81    C82     1.423   .     A
C82    O670    1.399   .     S
Cu83   O97     1.969   .     S
Cu83   N92     2.035   .     S
Cu83   O93     1.981   .     S
Cu83   O95     1.944   .     S
Cu83   O99     1.946   .     S
Cu83   Cu84    2.708   .     S
Cu84   N91     2.035   .     S
Cu84   O94     1.969   .     S
Cu84   O96     1.946   .     S
Cu84   O100    1.944   .     S
Cu84   O98     1.981   .     S
H90    C143    1.080   .     S
N91    N154    1.293   .     S
N91    O166    1.348   .     S
N101   H103    1.046   .     S
N101   C261    1.434   .     S
N101   H288    1.046   .     S
H102   N473    1.046   1_545 S
C105   H106    1.091   .     S
C105   H107    1.103   .     S
C105   O166    1.400   .     S
C105   H170    1.109   .     S
N109   N154    1.383   .     S
N109   H172    1.042   .     S
N109   H173    1.045   .     S
O112   C113    1.410   .     S
O112   C640    1.399   1_554 S
H114   C175    1.109   .     S
H115   C175    1.111   .     S
H116   C175    1.110   .     S
O117   C118    1.411   .     S
C118   H121    1.107   .     S
C118   H120    1.115   .     S
C118   H119    1.112   .     S
N122   H123    1.045   .     S
N122   C445    1.436   1_545 S
N122   H496    1.046   1_545 S
H124   N308    1.046   .     S
C125   C135    1.434   .     S
C125   O155    1.295   .     A
C125   O156    1.294   .     A
C126   C127    1.416   .     A
C126   C144    1.428   .     A
C126   C686    1.436   .     S
C127   C134    1.418   .     A
C127   C131    1.411   .     A
C128   C132    1.404   .     A
C128   C684    1.436   1_554 S
C128   C687    1.422   1_554 S
C129   C130    1.383   .     A
C129   C686    1.422   .     S
C129   C698    1.400   .     S
C130   H148    1.078   .     S
C130   C131    1.382   .     A
C131   O179    1.384   .     S
C132   H150    1.077   .     S
C132   C141    1.406   .     A
C133   C141    1.397   .     A
C133   C140    1.384   .     A
C133   H147    1.083   .     S
C134   C142    1.392   .     A
C134   C136    1.495   .     S
C135   C323    1.344   .     S
C135   N370    1.436   .     S
C136   O158    1.301   .     A
C136   O157    1.322   .     A
C137   C138    1.431   .     S
C137   C507    1.344   1_545 S
C137   N535    1.434   1_545 S
C138   O160    1.294   .     A
C138   O159    1.293   .     A
C139   O162    1.306   .     A
C139   C141    1.461   .     S
C139   O161    1.300   .     A
C140   C687    1.400   1_554 S
C140   H25     1.084   1_655 S
C142   C143    1.395   .     A
C142   H151    1.082   .     S
C143   C144    1.423   .     A
C144   O732    1.399   .     S
Cu145  O159    1.969   .     S
Cu145  N154    2.035   .     S
Cu145  O155    1.981   .     S
Cu145  O157    1.944   .     S
Cu145  O161    1.946   .     S
Cu145  Cu146   2.708   .     S
Cu146  N153    2.035   .     S
Cu146  O156    1.969   .     S
Cu146  O158    1.946   .     S
Cu146  O162    1.944   .     S
Cu146  O160    1.981   .     S
H152   C19     1.080   1_655 S
N153   N30     1.293   1_655 S
N153   O42     1.348   1_655 S
N163   H165    1.046   .     S
N163   C323    1.434   .     S
N163   H350    1.046   .     S
H164   N535    1.046   1_545 S
C167   H168    1.091   .     S
C167   H169    1.103   .     S
C167   O42     1.400   1_655 S
C167   H46     1.109   1_655 S
N171   N30     1.383   1_655 S
N171   H48     1.042   1_655 S
N171   H49     1.045   1_655 S
O174   C175    1.410   .     S
O174   C702    1.399   1_554 S
H176   C51     1.109   1_655 S
H177   C51     1.111   1_655 S
H178   C51     1.110   1_655 S
O179   C180    1.411   .     S
C180   H183    1.107   .     S
C180   H182    1.115   .     S
C180   H181    1.112   .     S
N184   H185    1.045   .     S
N184   C507    1.436   1_545 S
N184   H558    1.046   1_545 S
H186   N370    1.046   .     S
C187   C197    1.434   .     S
C187   O217    1.295   .     A
C187   O218    1.294   .     A
C188   C189    1.416   .     A
C188   C206    1.428   .     A
C188   C748    1.436   .     S
C189   C196    1.418   .     A
C189   C193    1.411   .     A
C190   C194    1.404   .     A
C190   C746    1.436   1_554 S
C190   C749    1.422   1_554 S
C191   C192    1.383   .     A
C191   C748    1.422   .     S
C191   C760    1.400   .     S
C192   H210    1.078   .     S
C192   C193    1.382   .     A
C193   O241    1.384   .     S
C194   H212    1.077   .     S
C194   C203    1.406   .     A
C195   C203    1.397   .     A
C195   C202    1.384   .     A
C195   H209    1.083   .     S
C196   C204    1.392   .     A
C196   C198    1.495   .     S
C197   C385    1.344   .     S
C197   N432    1.436   .     S
C198   O220    1.301   .     A
C198   O219    1.322   .     A
C199   C200    1.431   .     S
C200   O222    1.294   .     A
C200   O221    1.293   .     A
C201   O224    1.306   .     A
C201   C203    1.461   .     S
C201   O223    1.300   .     A
C202   C749    1.400   1_554 S
C202   H273    1.084   .     S
C204   C205    1.395   .     A
C204   H213    1.082   .     S
C205   C206    1.423   .     A
C205   H338    1.080   1_455 S
C206   O794    1.399   .     S
Cu207  O221    1.969   .     S
Cu207  N216    2.035   .     S
Cu207  O217    1.981   .     S
Cu207  O219    1.944   .     S
Cu207  O223    1.946   .     S
Cu207  Cu208   2.708   .     S
Cu208  N215    2.035   .     S
Cu208  O218    1.969   .     S
Cu208  O220    1.946   .     S
Cu208  O224    1.944   .     S
Cu208  O222    1.981   .     S
H211   C326    1.084   1_455 S
H214   C267    1.080   .     S
N215   N278    1.293   .     S
N215   O290    1.348   .     S
N216   N339    1.293   1_455 S
N216   N357    1.383   1_455 S
N225   H227    1.046   .     S
N225   C385    1.434   .     S
N225   H412    1.046   .     S
O228   N339    1.348   1_455 S
O228   C353    1.400   1_455 S
C229   H230    1.091   .     S
C229   H231    1.103   .     S
C229   O290    1.400   .     S
C229   H294    1.109   .     S
H232   C353    1.109   1_455 S
N233   N278    1.383   .     S
N233   H296    1.042   .     S
N233   H297    1.045   .     S
H234   N357    1.042   1_455 S
H235   N357    1.045   1_455 S
O236   C237    1.410   .     S
O236   C764    1.399   1_554 S
C237   H362    1.109   1_455 S
C237   H363    1.111   1_455 S
C237   H364    1.110   1_455 S
H238   C299    1.109   .     S
H239   C299    1.111   .     S
H240   C299    1.110   .     S
O241   C242    1.411   .     S
C242   H245    1.107   .     S
C242   H244    1.115   .     S
C242   H243    1.112   .     S
N246   H247    1.045   .     S
H248   N432    1.046   .     S
C249   C259    1.434   .     S
C249   O279    1.295   .     A
C249   O280    1.294   .     A
C250   C251    1.416   .     A
C250   C268    1.428   .     A
C250   C810    1.436   .     S
C251   C258    1.418   .     A
C251   C255    1.411   .     A
C252   C256    1.404   .     A
C252   C808    1.436   1_554 S
C252   C811    1.422   1_554 S
C253   C254    1.383   .     A
C253   C810    1.422   .     S
C253   C822    1.400   .     S
C254   H272    1.078   .     S
C254   C255    1.382   .     A
C255   O303    1.384   .     S
C256   H274    1.077   .     S
C256   C265    1.406   .     A
C257   C265    1.397   .     A
C257   C264    1.384   .     A
C257   H271    1.083   .     S
C258   C266    1.392   .     A
C258   C260    1.495   .     S
C259   C447    1.344   .     S
C259   N494    1.436   .     S
C260   O282    1.301   .     A
C260   O281    1.322   .     A
C261   C262    1.431   .     S
C262   O284    1.294   .     A
C262   O283    1.293   .     A
C263   O286    1.306   .     A
C263   C265    1.461   .     S
C263   O285    1.300   .     A
C264   C811    1.400   1_554 S
C264   H335    1.084   .     S
C266   C267    1.395   .     A
C266   H275    1.082   .     S
C267   C268    1.423   .     A
C268   O856    1.399   .     S
Cu269  O283    1.969   .     S
Cu269  N278    2.035   .     S
Cu269  O279    1.981   .     S
Cu269  O281    1.944   .     S
Cu269  O285    1.946   .     S
Cu269  Cu270   2.708   .     S
Cu270  N277    2.035   .     S
Cu270  O280    1.969   .     S
Cu270  O282    1.946   .     S
Cu270  O286    1.944   .     S
Cu270  O284    1.981   .     S
H276   C329    1.080   .     S
N277   N340    1.293   .     S
N277   O352    1.348   .     S
N287   H289    1.046   .     S
N287   C447    1.434   .     S
N287   H474    1.046   .     S
C291   H292    1.091   .     S
C291   H293    1.103   .     S
C291   O352    1.400   .     S
C291   H356    1.109   .     S
N295   N340    1.383   .     S
N295   H358    1.042   .     S
N295   H359    1.045   .     S
O298   C299    1.410   .     S
O298   C826    1.399   1_554 S
H300   C361    1.109   .     S
H301   C361    1.111   .     S
H302   C361    1.110   .     S
O303   C304    1.411   .     S
C304   H307    1.107   .     S
C304   H306    1.115   .     S
C304   H305    1.112   .     S
N308   H309    1.045   .     S
H310   N494    1.046   .     S
C311   C321    1.434   .     S
C311   O341    1.295   .     A
C311   O342    1.294   .     A
C312   C313    1.416   .     A
C312   C330    1.428   .     A
C312   C872    1.436   .     S
C313   C320    1.418   .     A
C313   C317    1.411   .     A
C314   C318    1.404   .     A
C314   C870    1.436   1_554 S
C314   C873    1.422   1_554 S
C315   C316    1.383   .     A
C315   C872    1.422   .     S
C315   C884    1.400   .     S
C316   H334    1.078   .     S
C316   C317    1.382   .     A
C317   O365    1.384   .     S
C318   H336    1.077   .     S
C318   C327    1.406   .     A
C319   C327    1.397   .     A
C319   C326    1.384   .     A
C319   H333    1.083   .     S
C320   C328    1.392   .     A
C320   C322    1.495   .     S
C321   C509    1.344   .     S
C321   N556    1.436   .     S
C322   O344    1.301   .     A
C322   O343    1.322   .     A
C323   C324    1.431   .     S
C324   O346    1.294   .     A
C324   O345    1.293   .     A
C325   O348    1.306   .     A
C325   C327    1.461   .     S
C325   O347    1.300   .     A
C326   C873    1.400   1_554 S
C326   H211    1.084   1_655 S
C328   C329    1.395   .     A
C328   H337    1.082   .     S
C329   C330    1.423   .     A
C330   O918    1.399   .     S
Cu331  O345    1.969   .     S
Cu331  N340    2.035   .     S
Cu331  O341    1.981   .     S
Cu331  O343    1.944   .     S
Cu331  O347    1.946   .     S
Cu331  Cu332   2.708   .     S
Cu332  N339    2.035   .     S
Cu332  O342    1.969   .     S
Cu332  O344    1.946   .     S
Cu332  O348    1.944   .     S
Cu332  O346    1.981   .     S
H338   C205    1.080   1_655 S
N339   N216    1.293   1_655 S
N339   O228    1.348   1_655 S
N349   H351    1.046   .     S
N349   C509    1.434   .     S
N349   H536    1.046   .     S
C353   H354    1.091   .     S
C353   H355    1.103   .     S
C353   O228    1.400   1_655 S
C353   H232    1.109   1_655 S
N357   N216    1.383   1_655 S
N357   H234    1.042   1_655 S
N357   H235    1.045   1_655 S
O360   C361    1.410   .     S
O360   C888    1.399   1_554 S
H362   C237    1.109   1_655 S
H363   C237    1.111   1_655 S
H364   C237    1.110   1_655 S
O365   C366    1.411   .     S
C366   H369    1.107   .     S
C366   H368    1.115   .     S
C366   H367    1.112   .     S
N370   H371    1.045   .     S
H372   N556    1.046   .     S
C373   C383    1.434   .     S
C373   O403    1.295   .     A
C373   O404    1.294   .     A
C374   C375    1.416   .     A
C374   C392    1.428   .     A
C374   C934    1.436   .     S
C375   C382    1.418   .     A
C375   C379    1.411   .     A
C376   C380    1.404   .     A
C376   C932    1.436   1_554 S
C376   C935    1.422   1_554 S
C377   C378    1.383   .     A
C377   C934    1.422   .     S
C377   C946    1.400   .     S
C378   H396    1.078   .     S
C378   C379    1.382   .     A
C379   O427    1.384   .     S
C380   H398    1.077   .     S
C380   C389    1.406   .     A
C381   C389    1.397   .     A
C381   C388    1.384   .     A
C381   H395    1.083   .     S
C382   C390    1.392   .     A
C382   C384    1.495   .     S
C383   C13     1.344   1_565 S
C383   N60     1.436   1_565 S
C384   O406    1.301   .     A
C384   O405    1.322   .     A
C385   C386    1.431   .     S
C386   O408    1.294   .     A
C386   O407    1.293   .     A
C387   O410    1.306   .     A
C387   C389    1.461   .     S
C387   O409    1.300   .     A
C388   C935    1.400   1_554 S
C388   H459    1.084   .     S
C390   C391    1.395   .     A
C390   H399    1.082   .     S
C391   C392    1.423   .     A
C391   H524    1.080   1_455 S
C392   O980    1.399   .     S
Cu393  O407    1.969   .     S
Cu393  N402    2.035   .     S
Cu393  O403    1.981   .     S
Cu393  O405    1.944   .     S
Cu393  O409    1.946   .     S
Cu393  Cu394   2.708   .     S
Cu394  N401    2.035   .     S
Cu394  O404    1.969   .     S
Cu394  O406    1.946   .     S
Cu394  O410    1.944   .     S
Cu394  O408    1.981   .     S
H397   C512    1.084   1_455 S
H400   C453    1.080   .     S
N401   N464    1.293   .     S
N401   O476    1.348   .     S
N402   N525    1.293   1_455 S
N402   N543    1.383   1_455 S
N411   H413    1.046   .     S
N411   C13     1.434   1_565 S
N411   H40     1.046   1_565 S
O414   N525    1.348   1_455 S
O414   C539    1.400   1_455 S
C415   H416    1.091   .     S
C415   H417    1.103   .     S
C415   O476    1.400   .     S
C415   H480    1.109   .     S
H418   C539    1.109   1_455 S
N419   N464    1.383   .     S
N419   H482    1.042   .     S
N419   H483    1.045   .     S
H420   N543    1.042   1_455 S
H421   N543    1.045   1_455 S
O422   C423    1.410   .     S
O422   C950    1.399   1_554 S
C423   H548    1.109   1_455 S
C423   H549    1.111   1_455 S
C423   H550    1.110   1_455 S
H424   C485    1.109   .     S
H425   C485    1.111   .     S
H426   C485    1.110   .     S
O427   C428    1.411   .     S
C428   H431    1.107   .     S
C428   H430    1.115   .     S
C428   H429    1.112   .     S
N432   H433    1.045   .     S
H434   N60     1.046   1_565 S
C435   C445    1.434   .     S
C435   O465    1.295   .     A
C435   O466    1.294   .     A
C436   C437    1.416   .     A
C436   C454    1.428   .     A
C436   C996    1.436   .     S
C437   C444    1.418   .     A
C437   C441    1.411   .     A
C438   C442    1.404   .     A
C438   C994    1.436   1_554 S
C438   C997    1.422   1_554 S
C439   C440    1.383   .     A
C439   C996    1.422   .     S
C439   C1008   1.400   .     S
C440   H458    1.078   .     S
C440   C441    1.382   .     A
C441   O489    1.384   .     S
C442   H460    1.077   .     S
C442   C451    1.406   .     A
C443   C451    1.397   .     A
C443   C450    1.384   .     A
C443   H457    1.083   .     S
C444   C452    1.392   .     A
C444   C446    1.495   .     S
C445   C75     1.344   1_565 S
C445   N122    1.436   1_565 S
C446   O468    1.301   .     A
C446   O467    1.322   .     A
C447   C448    1.431   .     S
C448   O470    1.294   .     A
C448   O469    1.293   .     A
C449   O472    1.306   .     A
C449   C451    1.461   .     S
C449   O471    1.300   .     A
C450   C997    1.400   1_554 S
C450   H521    1.084   .     S
C452   C453    1.395   .     A
C452   H461    1.082   .     S
C453   C454    1.423   .     A
C454   O1042   1.399   .     S
Cu455  O469    1.969   .     S
Cu455  N464    2.035   .     S
Cu455  O465    1.981   .     S
Cu455  O467    1.944   .     S
Cu455  O471    1.946   .     S
Cu455  Cu456   2.708   .     S
Cu456  N463    2.035   .     S
Cu456  O466    1.969   .     S
Cu456  O468    1.946   .     S
Cu456  O472    1.944   .     S
Cu456  O470    1.981   .     S
H462   C515    1.080   .     S
N463   N526    1.293   .     S
N463   O538    1.348   .     S
N473   H475    1.046   .     S
N473   C75     1.434   1_565 S
N473   H102    1.046   1_565 S
C477   H478    1.091   .     S
C477   H479    1.103   .     S
C477   O538    1.400   .     S
C477   H542    1.109   .     S
N481   N526    1.383   .     S
N481   H544    1.042   .     S
N481   H545    1.045   .     S
O484   C485    1.410   .     S
O484   C1012   1.399   1_554 S
H486   C547    1.109   .     S
H487   C547    1.111   .     S
H488   C547    1.110   .     S
O489   C490    1.411   .     S
C490   H493    1.107   .     S
C490   H492    1.115   .     S
C490   H491    1.112   .     S
N494   H495    1.045   .     S
H496   N122    1.046   1_565 S
C497   C507    1.434   .     S
C497   O527    1.295   .     A
C497   O528    1.294   .     A
C498   C499    1.416   .     A
C498   C516    1.428   .     A
C498   C1058   1.436   .     S
C499   C506    1.418   .     A
C499   C503    1.411   .     A
C500   C504    1.404   .     A
C500   C1056   1.436   1_554 S
C500   C1059   1.422   1_554 S
C501   C502    1.383   .     A
C501   C1058   1.422   .     S
C501   C1070   1.400   .     S
C502   H520    1.078   .     S
C502   C503    1.382   .     A
C503   O551    1.384   .     S
C504   H522    1.077   .     S
C504   C513    1.406   .     A
C505   C513    1.397   .     A
C505   C512    1.384   .     A
C505   H519    1.083   .     S
C506   C514    1.392   .     A
C506   C508    1.495   .     S
C507   C137    1.344   1_565 S
C507   N184    1.436   1_565 S
C508   O530    1.301   .     A
C508   O529    1.322   .     A
C509   C510    1.431   .     S
C510   O532    1.294   .     A
C510   O531    1.293   .     A
C511   O534    1.306   .     A
C511   C513    1.461   .     S
C511   O533    1.300   .     A
C512   C1059   1.400   1_554 S
C512   H397    1.084   1_655 S
C514   C515    1.395   .     A
C514   H523    1.082   .     S
C515   C516    1.423   .     A
C516   O1104   1.399   .     S
Cu517  O531    1.969   .     S
Cu517  N526    2.035   .     S
Cu517  O527    1.981   .     S
Cu517  O529    1.944   .     S
Cu517  O533    1.946   .     S
Cu517  Cu518   2.708   .     S
Cu518  N525    2.035   .     S
Cu518  O528    1.969   .     S
Cu518  O530    1.946   .     S
Cu518  O534    1.944   .     S
Cu518  O532    1.981   .     S
H524   C391    1.080   1_655 S
N525   N402    1.293   1_655 S
N525   O414    1.348   1_655 S
N535   H537    1.046   .     S
N535   C137    1.434   1_565 S
N535   H164    1.046   1_565 S
C539   H540    1.091   .     S
C539   H541    1.103   .     S
C539   O414    1.400   1_655 S
C539   H418    1.109   1_655 S
N543   N402    1.383   1_655 S
N543   H420    1.042   1_655 S
N543   H421    1.045   1_655 S
O546   C547    1.410   .     S
O546   C1074   1.399   1_554 S
H548   C423    1.109   1_655 S
H549   C423    1.111   1_655 S
H550   C423    1.110   1_655 S
O551   C552    1.411   .     S
C552   H555    1.107   .     S
C552   H554    1.115   .     S
C552   H553    1.112   .     S
N556   H557    1.045   .     S
H558   N184    1.046   1_565 S
C559   C569    1.434   .     S
C559   O589    1.295   .     A
C559   O590    1.294   .     A
C560   C561    1.416   .     A
C560   C578    1.428   .     A
C560   C4      1.436   1_556 S
C561   C568    1.418   .     A
C561   C565    1.411   .     A
C562   C566    1.404   .     A
C563   C564    1.383   .     A
C563   C4      1.422   1_556 S
C563   C16     1.400   1_556 S
C564   H582    1.078   .     S
C564   C565    1.382   .     A
C565   O613    1.384   .     S
C566   H584    1.077   .     S
C566   C575    1.406   .     A
C567   C575    1.397   .     A
C567   C574    1.384   .     A
C567   H581    1.083   .     S
C568   C576    1.392   .     A
C568   C570    1.495   .     S
C569   C757    1.344   .     S
C569   N804    1.436   .     S
C570   O592    1.301   .     A
C570   O591    1.322   .     A
C571   C572    1.431   .     S
C571   C941    1.344   1_545 S
C571   N969    1.434   1_545 S
C572   O594    1.294   .     A
C572   O593    1.293   .     A
C573   O596    1.306   .     A
C573   C575    1.461   .     S
C573   O595    1.300   .     A
C574   H645    1.084   .     S
C576   C577    1.395   .     A
C576   H585    1.082   .     S
C577   C578    1.423   .     A
C577   H710    1.080   1_455 S
C578   O50     1.399   1_556 S
Cu579  O593    1.969   .     S
Cu579  N588    2.035   .     S
Cu579  O589    1.981   .     S
Cu579  O591    1.944   .     S
Cu579  O595    1.946   .     S
Cu579  Cu580   2.708   .     S
Cu580  N587    2.035   .     S
Cu580  O590    1.969   .     S
Cu580  O592    1.946   .     S
Cu580  O596    1.944   .     S
Cu580  O594    1.981   .     S
H583   C698    1.084   1_455 S
H586   C639    1.080   .     S
N587   N650    1.293   .     S
N587   O662    1.348   .     S
N588   N711    1.293   1_455 S
N588   N729    1.383   1_455 S
N597   H599    1.046   .     S
N597   C757    1.434   .     S
N597   H784    1.046   .     S
H598   N969    1.046   1_545 S
O600   N711    1.348   1_455 S
O600   C725    1.400   1_455 S
C601   H602    1.091   .     S
C601   H603    1.103   .     S
C601   O662    1.400   .     S
C601   H666    1.109   .     S
H604   C725    1.109   1_455 S
N605   N650    1.383   .     S
N605   H668    1.042   .     S
N605   H669    1.045   .     S
H606   N729    1.042   1_455 S
H607   N729    1.045   1_455 S
O608   C609    1.410   .     S
C609   H734    1.109   1_455 S
C609   H735    1.111   1_455 S
C609   H736    1.110   1_455 S
H610   C671    1.109   .     S
H611   C671    1.111   .     S
H612   C671    1.110   .     S
O613   C614    1.411   .     S
C614   H617    1.107   .     S
C614   H616    1.115   .     S
C614   H615    1.112   .     S
N618   H619    1.045   .     S
N618   C941    1.436   1_545 S
N618   H992    1.046   1_545 S
H620   N804    1.046   .     S
C621   C631    1.434   .     S
C621   O651    1.295   .     A
C621   O652    1.294   .     A
C622   C623    1.416   .     A
C622   C640    1.428   .     A
C622   C66     1.436   1_556 S
C623   C630    1.418   .     A
C623   C627    1.411   .     A
C624   C628    1.404   .     A
C625   C626    1.383   .     A
C625   C66     1.422   1_556 S
C625   C78     1.400   1_556 S
C626   H644    1.078   .     S
C626   C627    1.382   .     A
C627   O675    1.384   .     S
C628   H646    1.077   .     S
C628   C637    1.406   .     A
C629   C637    1.397   .     A
C629   C636    1.384   .     A
C629   H643    1.083   .     S
C630   C638    1.392   .     A
C630   C632    1.495   .     S
C631   C819    1.344   .     S
C631   N866    1.436   .     S
C632   O654    1.301   .     A
C632   O653    1.322   .     A
C633   C634    1.431   .     S
C633   C1003   1.344   1_545 S
C633   N1031   1.434   1_545 S
C634   O656    1.294   .     A
C634   O655    1.293   .     A
C635   O658    1.306   .     A
C635   C637    1.461   .     S
C635   O657    1.300   .     A
C636   H707    1.084   .     S
C638   C639    1.395   .     A
C638   H647    1.082   .     S
C639   C640    1.423   .     A
C640   O112    1.399   1_556 S
Cu641  O655    1.969   .     S
Cu641  N650    2.035   .     S
Cu641  O651    1.981   .     S
Cu641  O653    1.944   .     S
Cu641  O657    1.946   .     S
Cu641  Cu642   2.708   .     S
Cu642  N649    2.035   .     S
Cu642  O652    1.969   .     S
Cu642  O654    1.946   .     S
Cu642  O658    1.944   .     S
Cu642  O656    1.981   .     S
H648   C701    1.080   .     S
N649   N712    1.293   .     S
N649   O724    1.348   .     S
N659   H661    1.046   .     S
N659   C819    1.434   .     S
N659   H846    1.046   .     S
H660   N1031   1.046   1_545 S
C663   H664    1.091   .     S
C663   H665    1.103   .     S
C663   O724    1.400   .     S
C663   H728    1.109   .     S
N667   N712    1.383   .     S
N667   H730    1.042   .     S
N667   H731    1.045   .     S
O670   C671    1.410   .     S
H672   C733    1.109   .     S
H673   C733    1.111   .     S
H674   C733    1.110   .     S
O675   C676    1.411   .     S
C676   H679    1.107   .     S
C676   H678    1.115   .     S
C676   H677    1.112   .     S
N680   H681    1.045   .     S
N680   C1003   1.436   1_545 S
N680   H1054   1.046   1_545 S
H682   N866    1.046   .     S
C683   C693    1.434   .     S
C683   O713    1.295   .     A
C683   O714    1.294   .     A
C684   C685    1.416   .     A
C684   C702    1.428   .     A
C684   C128    1.436   1_556 S
C685   C692    1.418   .     A
C685   C689    1.411   .     A
C686   C690    1.404   .     A
C687   C688    1.383   .     A
C687   C128    1.422   1_556 S
C687   C140    1.400   1_556 S
C688   H706    1.078   .     S
C688   C689    1.382   .     A
C689   O737    1.384   .     S
C690   H708    1.077   .     S
C690   C699    1.406   .     A
C691   C699    1.397   .     A
C691   C698    1.384   .     A
C691   H705    1.083   .     S
C692   C700    1.392   .     A
C692   C694    1.495   .     S
C693   C881    1.344   .     S
C693   N928    1.436   .     S
C694   O716    1.301   .     A
C694   O715    1.322   .     A
C695   C696    1.431   .     S
C695   C1065   1.344   1_545 S
C695   N1093   1.434   1_545 S
C696   O718    1.294   .     A
C696   O717    1.293   .     A
C697   O720    1.306   .     A
C697   C699    1.461   .     S
C697   O719    1.300   .     A
C698   H583    1.084   1_655 S
C700   C701    1.395   .     A
C700   H709    1.082   .     S
C701   C702    1.423   .     A
C702   O174    1.399   1_556 S
Cu703  O717    1.969   .     S
Cu703  N712    2.035   .     S
Cu703  O713    1.981   .     S
Cu703  O715    1.944   .     S
Cu703  O719    1.946   .     S
Cu703  Cu704   2.708   .     S
Cu704  N711    2.035   .     S
Cu704  O714    1.969   .     S
Cu704  O716    1.946   .     S
Cu704  O720    1.944   .     S
Cu704  O718    1.981   .     S
H710   C577    1.080   1_655 S
N711   N588    1.293   1_655 S
N711   O600    1.348   1_655 S
N721   H723    1.046   .     S
N721   C881    1.434   .     S
N721   H908    1.046   .     S
H722   N1093   1.046   1_545 S
C725   H726    1.091   .     S
C725   H727    1.103   .     S
C725   O600    1.400   1_655 S
C725   H604    1.109   1_655 S
N729   N588    1.383   1_655 S
N729   H606    1.042   1_655 S
N729   H607    1.045   1_655 S
O732   C733    1.410   .     S
H734   C609    1.109   1_655 S
H735   C609    1.111   1_655 S
H736   C609    1.110   1_655 S
O737   C738    1.411   .     S
C738   H741    1.107   .     S
C738   H740    1.115   .     S
C738   H739    1.112   .     S
N742   H743    1.045   .     S
N742   C1065   1.436   1_545 S
N742   H1116   1.046   1_545 S
H744   N928    1.046   .     S
C745   C755    1.434   .     S
C745   O775    1.295   .     A
C745   O776    1.294   .     A
C746   C747    1.416   .     A
C746   C764    1.428   .     A
C746   C190    1.436   1_556 S
C747   C754    1.418   .     A
C747   C751    1.411   .     A
C748   C752    1.404   .     A
C749   C750    1.383   .     A
C749   C190    1.422   1_556 S
C749   C202    1.400   1_556 S
C750   H768    1.078   .     S
C750   C751    1.382   .     A
C751   O799    1.384   .     S
C752   H770    1.077   .     S
C752   C761    1.406   .     A
C753   C761    1.397   .     A
C753   C760    1.384   .     A
C753   H767    1.083   .     S
C754   C762    1.392   .     A
C754   C756    1.495   .     S
C755   C943    1.344   .     S
C755   N990    1.436   .     S
C756   O778    1.301   .     A
C756   O777    1.322   .     A
C757   C758    1.431   .     S
C758   O780    1.294   .     A
C758   O779    1.293   .     A
C759   O782    1.306   .     A
C759   C761    1.461   .     S
C759   O781    1.300   .     A
C760   H831    1.084   .     S
C762   C763    1.395   .     A
C762   H771    1.082   .     S
C763   C764    1.423   .     A
C763   H896    1.080   1_455 S
C764   O236    1.399   1_556 S
Cu765  O779    1.969   .     S
Cu765  N774    2.035   .     S
Cu765  O775    1.981   .     S
Cu765  O777    1.944   .     S
Cu765  O781    1.946   .     S
Cu765  Cu766   2.708   .     S
Cu766  N773    2.035   .     S
Cu766  O776    1.969   .     S
Cu766  O778    1.946   .     S
Cu766  O782    1.944   .     S
Cu766  O780    1.981   .     S
H769   C884    1.084   1_455 S
H772   C825    1.080   .     S
N773   N836    1.293   .     S
N773   O848    1.348   .     S
N774   N897    1.293   1_455 S
N774   N915    1.383   1_455 S
N783   H785    1.046   .     S
N783   C943    1.434   .     S
N783   H970    1.046   .     S
O786   N897    1.348   1_455 S
O786   C911    1.400   1_455 S
C787   H788    1.091   .     S
C787   H789    1.103   .     S
C787   O848    1.400   .     S
C787   H852    1.109   .     S
H790   C911    1.109   1_455 S
N791   N836    1.383   .     S
N791   H854    1.042   .     S
N791   H855    1.045   .     S
H792   N915    1.042   1_455 S
H793   N915    1.045   1_455 S
O794   C795    1.410   .     S
C795   H920    1.109   1_455 S
C795   H921    1.111   1_455 S
C795   H922    1.110   1_455 S
H796   C857    1.109   .     S
H797   C857    1.111   .     S
H798   C857    1.110   .     S
O799   C800    1.411   .     S
C800   H803    1.107   .     S
C800   H802    1.115   .     S
C800   H801    1.112   .     S
N804   H805    1.045   .     S
H806   N990    1.046   .     S
C807   C817    1.434   .     S
C807   O837    1.295   .     A
C807   O838    1.294   .     A
C808   C809    1.416   .     A
C808   C826    1.428   .     A
C808   C252    1.436   1_556 S
C809   C816    1.418   .     A
C809   C813    1.411   .     A
C810   C814    1.404   .     A
C811   C812    1.383   .     A
C811   C252    1.422   1_556 S
C811   C264    1.400   1_556 S
C812   H830    1.078   .     S
C812   C813    1.382   .     A
C813   O861    1.384   .     S
C814   H832    1.077   .     S
C814   C823    1.406   .     A
C815   C823    1.397   .     A
C815   C822    1.384   .     A
C815   H829    1.083   .     S
C816   C824    1.392   .     A
C816   C818    1.495   .     S
C817   C1005   1.344   .     S
C817   N1052   1.436   .     S
C818   O840    1.301   .     A
C818   O839    1.322   .     A
C819   C820    1.431   .     S
C820   O842    1.294   .     A
C820   O841    1.293   .     A
C821   O844    1.306   .     A
C821   C823    1.461   .     S
C821   O843    1.300   .     A
C822   H893    1.084   .     S
C824   C825    1.395   .     A
C824   H833    1.082   .     S
C825   C826    1.423   .     A
C826   O298    1.399   1_556 S
Cu827  O841    1.969   .     S
Cu827  N836    2.035   .     S
Cu827  O837    1.981   .     S
Cu827  O839    1.944   .     S
Cu827  O843    1.946   .     S
Cu827  Cu828   2.708   .     S
Cu828  N835    2.035   .     S
Cu828  O838    1.969   .     S
Cu828  O840    1.946   .     S
Cu828  O844    1.944   .     S
Cu828  O842    1.981   .     S
H834   C887    1.080   .     S
N835   N898    1.293   .     S
N835   O910    1.348   .     S
N845   H847    1.046   .     S
N845   C1005   1.434   .     S
N845   H1032   1.046   .     S
C849   H850    1.091   .     S
C849   H851    1.103   .     S
C849   O910    1.400   .     S
C849   H914    1.109   .     S
N853   N898    1.383   .     S
N853   H916    1.042   .     S
N853   H917    1.045   .     S
O856   C857    1.410   .     S
H858   C919    1.109   .     S
H859   C919    1.111   .     S
H860   C919    1.110   .     S
O861   C862    1.411   .     S
C862   H865    1.107   .     S
C862   H864    1.115   .     S
C862   H863    1.112   .     S
N866   H867    1.045   .     S
H868   N1052   1.046   .     S
C869   C879    1.434   .     S
C869   O899    1.295   .     A
C869   O900    1.294   .     A
C870   C871    1.416   .     A
C870   C888    1.428   .     A
C870   C314    1.436   1_556 S
C871   C878    1.418   .     A
C871   C875    1.411   .     A
C872   C876    1.404   .     A
C873   C874    1.383   .     A
C873   C314    1.422   1_556 S
C873   C326    1.400   1_556 S
C874   H892    1.078   .     S
C874   C875    1.382   .     A
C875   O923    1.384   .     S
C876   H894    1.077   .     S
C876   C885    1.406   .     A
C877   C885    1.397   .     A
C877   C884    1.384   .     A
C877   H891    1.083   .     S
C878   C886    1.392   .     A
C878   C880    1.495   .     S
C879   C1067   1.344   .     S
C879   N1114   1.436   .     S
C880   O902    1.301   .     A
C880   O901    1.322   .     A
C881   C882    1.431   .     S
C882   O904    1.294   .     A
C882   O903    1.293   .     A
C883   O906    1.306   .     A
C883   C885    1.461   .     S
C883   O905    1.300   .     A
C884   H769    1.084   1_655 S
C886   C887    1.395   .     A
C886   H895    1.082   .     S
C887   C888    1.423   .     A
C888   O360    1.399   1_556 S
Cu889  O903    1.969   .     S
Cu889  N898    2.035   .     S
Cu889  O899    1.981   .     S
Cu889  O901    1.944   .     S
Cu889  O905    1.946   .     S
Cu889  Cu890   2.708   .     S
Cu890  N897    2.035   .     S
Cu890  O900    1.969   .     S
Cu890  O902    1.946   .     S
Cu890  O906    1.944   .     S
Cu890  O904    1.981   .     S
H896   C763    1.080   1_655 S
N897   N774    1.293   1_655 S
N897   O786    1.348   1_655 S
N907   H909    1.046   .     S
N907   C1067   1.434   .     S
N907   H1094   1.046   .     S
C911   H912    1.091   .     S
C911   H913    1.103   .     S
C911   O786    1.400   1_655 S
C911   H790    1.109   1_655 S
N915   N774    1.383   1_655 S
N915   H792    1.042   1_655 S
N915   H793    1.045   1_655 S
O918   C919    1.410   .     S
H920   C795    1.109   1_655 S
H921   C795    1.111   1_655 S
H922   C795    1.110   1_655 S
O923   C924    1.411   .     S
C924   H927    1.107   .     S
C924   H926    1.115   .     S
C924   H925    1.112   .     S
N928   H929    1.045   .     S
H930   N1114   1.046   .     S
C931   C941    1.434   .     S
C931   O961    1.295   .     A
C931   O962    1.294   .     A
C932   C933    1.416   .     A
C932   C950    1.428   .     A
C932   C376    1.436   1_556 S
C933   C940    1.418   .     A
C933   C937    1.411   .     A
C934   C938    1.404   .     A
C935   C936    1.383   .     A
C935   C376    1.422   1_556 S
C935   C388    1.400   1_556 S
C936   H954    1.078   .     S
C936   C937    1.382   .     A
C937   O985    1.384   .     S
C938   H956    1.077   .     S
C938   C947    1.406   .     A
C939   C947    1.397   .     A
C939   C946    1.384   .     A
C939   H953    1.083   .     S
C940   C948    1.392   .     A
C940   C942    1.495   .     S
C941   C571    1.344   1_565 S
C941   N618    1.436   1_565 S
C942   O964    1.301   .     A
C942   O963    1.322   .     A
C943   C944    1.431   .     S
C944   O966    1.294   .     A
C944   O965    1.293   .     A
C945   O968    1.306   .     A
C945   C947    1.461   .     S
C945   O967    1.300   .     A
C946   H1017   1.084   .     S
C948   C949    1.395   .     A
C948   H957    1.082   .     S
C949   C950    1.423   .     A
C949   H1082   1.080   1_455 S
C950   O422    1.399   1_556 S
Cu951  O965    1.969   .     S
Cu951  N960    2.035   .     S
Cu951  O961    1.981   .     S
Cu951  O963    1.944   .     S
Cu951  O967    1.946   .     S
Cu951  Cu952   2.708   .     S
Cu952  N959    2.035   .     S
Cu952  O962    1.969   .     S
Cu952  O964    1.946   .     S
Cu952  O968    1.944   .     S
Cu952  O966    1.981   .     S
H955   C1070   1.084   1_455 S
H958   C1011   1.080   .     S
N959   N1022   1.293   .     S
N959   O1034   1.348   .     S
N960   N1083   1.293   1_455 S
N960   N1101   1.383   1_455 S
N969   H971    1.046   .     S
N969   C571    1.434   1_565 S
N969   H598    1.046   1_565 S
O972   N1083   1.348   1_455 S
O972   C1097   1.400   1_455 S
C973   H974    1.091   .     S
C973   H975    1.103   .     S
C973   O1034   1.400   .     S
C973   H1038   1.109   .     S
H976   C1097   1.109   1_455 S
N977   N1022   1.383   .     S
N977   H1040   1.042   .     S
N977   H1041   1.045   .     S
H978   N1101   1.042   1_455 S
H979   N1101   1.045   1_455 S
O980   C981    1.410   .     S
C981   H1106   1.109   1_455 S
C981   H1107   1.111   1_455 S
C981   H1108   1.110   1_455 S
H982   C1043   1.109   .     S
H983   C1043   1.111   .     S
H984   C1043   1.110   .     S
O985   C986    1.411   .     S
C986   H989    1.107   .     S
C986   H988    1.115   .     S
C986   H987    1.112   .     S
N990   H991    1.045   .     S
H992   N618    1.046   1_565 S
C993   C1003   1.434   .     S
C993   O1023   1.295   .     A
C993   O1024   1.294   .     A
C994   C995    1.416   .     A
C994   C1012   1.428   .     A
C994   C438    1.436   1_556 S
C995   C1002   1.418   .     A
C995   C999    1.411   .     A
C996   C1000   1.404   .     A
C997   C998    1.383   .     A
C997   C438    1.422   1_556 S
C997   C450    1.400   1_556 S
C998   H1016   1.078   .     S
C998   C999    1.382   .     A
C999   O1047   1.384   .     S
C1000  H1018   1.077   .     S
C1000  C1009   1.406   .     A
C1001  C1009   1.397   .     A
C1001  C1008   1.384   .     A
C1001  H1015   1.083   .     S
C1002  C1010   1.392   .     A
C1002  C1004   1.495   .     S
C1003  C633    1.344   1_565 S
C1003  N680    1.436   1_565 S
C1004  O1026   1.301   .     A
C1004  O1025   1.322   .     A
C1005  C1006   1.431   .     S
C1006  O1028   1.294   .     A
C1006  O1027   1.293   .     A
C1007  O1030   1.306   .     A
C1007  C1009   1.461   .     S
C1007  O1029   1.300   .     A
C1008  H1079   1.084   .     S
C1010  C1011   1.395   .     A
C1010  H1019   1.082   .     S
C1011  C1012   1.423   .     A
C1012  O484    1.399   1_556 S
Cu1013 O1027   1.969   .     S
Cu1013 N1022   2.035   .     S
Cu1013 O1023   1.981   .     S
Cu1013 O1025   1.944   .     S
Cu1013 O1029   1.946   .     S
Cu1013 Cu1014  2.708   .     S
Cu1014 N1021   2.035   .     S
Cu1014 O1024   1.969   .     S
Cu1014 O1026   1.946   .     S
Cu1014 O1030   1.944   .     S
Cu1014 O1028   1.981   .     S
H1020  C1073   1.080   .     S
N1021  N1084   1.293   .     S
N1021  O1096   1.348   .     S
N1031  H1033   1.046   .     S
N1031  C633    1.434   1_565 S
N1031  H660    1.046   1_565 S
C1035  H1036   1.091   .     S
C1035  H1037   1.103   .     S
C1035  O1096   1.400   .     S
C1035  H1100   1.109   .     S
N1039  N1084   1.383   .     S
N1039  H1102   1.042   .     S
N1039  H1103   1.045   .     S
O1042  C1043   1.410   .     S
H1044  C1105   1.109   .     S
H1045  C1105   1.111   .     S
H1046  C1105   1.110   .     S
O1047  C1048   1.411   .     S
C1048  H1051   1.107   .     S
C1048  H1050   1.115   .     S
C1048  H1049   1.112   .     S
N1052  H1053   1.045   .     S
H1054  N680    1.046   1_565 S
C1055  C1065   1.434   .     S
C1055  O1085   1.295   .     A
C1055  O1086   1.294   .     A
C1056  C1057   1.416   .     A
C1056  C1074   1.428   .     A
C1056  C500    1.436   1_556 S
C1057  C1064   1.418   .     A
C1057  C1061   1.411   .     A
C1058  C1062   1.404   .     A
C1059  C1060   1.383   .     A
C1059  C500    1.422   1_556 S
C1059  C512    1.400   1_556 S
C1060  H1078   1.078   .     S
C1060  C1061   1.382   .     A
C1061  O1109   1.384   .     S
C1062  H1080   1.077   .     S
C1062  C1071   1.406   .     A
C1063  C1071   1.397   .     A
C1063  C1070   1.384   .     A
C1063  H1077   1.083   .     S
C1064  C1072   1.392   .     A
C1064  C1066   1.495   .     S
C1065  C695    1.344   1_565 S
C1065  N742    1.436   1_565 S
C1066  O1088   1.301   .     A
C1066  O1087   1.322   .     A
C1067  C1068   1.431   .     S
C1068  O1090   1.294   .     A
C1068  O1089   1.293   .     A
C1069  O1092   1.306   .     A
C1069  C1071   1.461   .     S
C1069  O1091   1.300   .     A
C1070  H955    1.084   1_655 S
C1072  C1073   1.395   .     A
C1072  H1081   1.082   .     S
C1073  C1074   1.423   .     A
C1074  O546    1.399   1_556 S
Cu1075 O1089   1.969   .     S
Cu1075 N1084   2.035   .     S
Cu1075 O1085   1.981   .     S
Cu1075 O1087   1.944   .     S
Cu1075 O1091   1.946   .     S
Cu1075 Cu1076  2.708   .     S
Cu1076 N1083   2.035   .     S
Cu1076 O1086   1.969   .     S
Cu1076 O1088   1.946   .     S
Cu1076 O1092   1.944   .     S
Cu1076 O1090   1.981   .     S
H1082  C949    1.080   1_655 S
N1083  N960    1.293   1_655 S
N1083  O972    1.348   1_655 S
N1093  H1095   1.046   .     S
N1093  C695    1.434   1_565 S
N1093  H722    1.046   1_565 S
C1097  H1098   1.091   .     S
C1097  H1099   1.103   .     S
C1097  O972    1.400   1_655 S
C1097  H976    1.109   1_655 S
N1101  N960    1.383   1_655 S
N1101  H978    1.042   1_655 S
N1101  H979    1.045   1_655 S
O1104  C1105   1.410   .     S
H1106  C981    1.109   1_655 S
H1107  C981    1.111   1_655 S
H1108  C981    1.110   1_655 S
O1109  C1110   1.411   .     S
C1110  H1113   1.107   .     S
C1110  H1112   1.115   .     S
C1110  H1111   1.112   .     S
N1114  H1115   1.045   .     S
H1116  N742    1.046   1_565 S
