data_str_m3_o1_o5_pcu_sym.95
_audit_creation_date              2020-01-03
_audit_creation_method            'Materials Studio'
_symmetry_space_group_name_H-M    'P1'
_symmetry_Int_Tables_number       1
_symmetry_cell_setting            triclinic
loop_
_symmetry_equiv_pos_as_xyz
  x,y,z
_cell_length_a                    32.3433
_cell_length_b                    29.5960
_cell_length_c                    26.7240
_cell_angle_alpha                 90.0264
_cell_angle_beta                  90.4561
_cell_angle_gamma                 89.5685
loop_
_atom_site_label
_atom_site_type_symbol
_atom_site_fract_x
_atom_site_fract_y
_atom_site_fract_z
_atom_site_U_iso_or_equiv
_atom_site_adp_type
_atom_site_occupancy
C1     C     0.08662   0.16692   0.16929   0.00000  Uiso   1.00
C2     C     0.24676   0.16630   0.16998   0.00000  Uiso   1.00
C3     C     0.16664   0.16666   0.07290   0.00000  Uiso   1.00
C4     C     0.16669   0.16667   0.26044   0.00000  Uiso   1.00
C5     C     0.16665   0.16666   0.02180   0.00000  Uiso   1.00
C6     C     0.16667   0.16667   0.31153   0.00000  Uiso   1.00
C7     C     0.02251   0.12630   0.18758   0.00000  Uiso   1.00
C8     C     0.31153   0.20660   0.18558   0.00000  Uiso   1.00
C9     C     0.31359   0.12417   0.17906   0.00000  Uiso   1.00
C10    C     0.01987   0.20834   0.17529   0.00000  Uiso   1.00
C11    C     0.29093   0.16540   0.17812   0.00000  Uiso   1.00
C12    C     0.04264   0.16736   0.17698   0.00000  Uiso   1.00
C13    C     0.18072   0.02383   0.20727   0.00000  Uiso   1.00
C14    C     0.15220   0.30955   0.12623   0.00000  Uiso   1.00
C15    C     0.15180   0.02402   0.12644   0.00000  Uiso   1.00
C16    C     0.17991   0.30944   0.20766   0.00000  Uiso   1.00
N17    N     0.16667   0.28573   0.16667   0.00000  Uiso   1.00
N18    N     0.16667   0.04760   0.16667   0.00000  Uiso   1.00
O19    O     0.10559   0.20487   0.16666   0.00000  Uiso   1.00
O20    O     0.22774   0.12846   0.16667   0.00000  Uiso   1.00
O21    O     0.22774   0.20487   0.16667   0.00000  Uiso   1.00
O22    O     0.10559   0.12846   0.16666   0.00000  Uiso   1.00
O23    O     0.16667   0.20488   0.09511   0.00000  Uiso   1.00
O24    O     0.16666   0.12845   0.23822   0.00000  Uiso   1.00
O25    O     0.16666   0.20488   0.23822   0.00000  Uiso   1.00
O26    O     0.16667   0.12845   0.09511   0.00000  Uiso   1.00
Zn27   Zn    0.16667   0.21771   0.16667   0.00000  Uiso   1.00
Zn28   Zn    0.16667   0.11563   0.16667   0.00000  Uiso   1.00
I29    I     0.05255   0.06949   0.22392   0.00000  Uiso   1.00
I30    I     0.28448   0.26359   0.22301   0.00000  Uiso   1.00
I31    I     0.28895   0.05787   0.16430   0.00000  Uiso   1.00
I32    I     0.04306   0.27356   0.15342   0.00000  Uiso   1.00
F33    F     0.19565   0.04594   0.24787   0.00000  Uiso   1.00
F34    F     0.13700   0.28742   0.08579   0.00000  Uiso   1.00
F35    F     0.13593   0.04641   0.08640   0.00000  Uiso   1.00
F36    F     0.19188   0.28737   0.24973   0.00000  Uiso   1.00
C37    C     0.41995   0.16692   0.16929   0.00000  Uiso   1.00
C38    C     0.58009   0.16630   0.16998   0.00000  Uiso   1.00
C39    C     0.49997   0.16666   0.07290   0.00000  Uiso   1.00
C40    C     0.50002   0.16667   0.26044   0.00000  Uiso   1.00
C41    C     0.49998   0.16666   0.02180   0.00000  Uiso   1.00
C42    C     0.50000   0.16667   0.31153   0.00000  Uiso   1.00
C43    C     0.35585   0.12630   0.18758   0.00000  Uiso   1.00
C44    C     0.64487   0.20660   0.18558   0.00000  Uiso   1.00
C45    C     0.64693   0.12417   0.17906   0.00000  Uiso   1.00
C46    C     0.35320   0.20834   0.17529   0.00000  Uiso   1.00
C47    C     0.62426   0.16540   0.17812   0.00000  Uiso   1.00
C48    C     0.37597   0.16736   0.17698   0.00000  Uiso   1.00
C49    C     0.51406   0.02383   0.20727   0.00000  Uiso   1.00
C50    C     0.48554   0.30955   0.12623   0.00000  Uiso   1.00
C51    C     0.48514   0.02402   0.12644   0.00000  Uiso   1.00
C52    C     0.51324   0.30944   0.20766   0.00000  Uiso   1.00
N53    N     0.50000   0.28573   0.16667   0.00000  Uiso   1.00
N54    N     0.50000   0.04760   0.16667   0.00000  Uiso   1.00
O55    O     0.43892   0.20487   0.16666   0.00000  Uiso   1.00
O56    O     0.56108   0.12846   0.16667   0.00000  Uiso   1.00
O57    O     0.56108   0.20487   0.16667   0.00000  Uiso   1.00
O58    O     0.43892   0.12846   0.16666   0.00000  Uiso   1.00
O59    O     0.50000   0.20488   0.09511   0.00000  Uiso   1.00
O60    O     0.50000   0.12845   0.23822   0.00000  Uiso   1.00
O61    O     0.50000   0.20488   0.23822   0.00000  Uiso   1.00
O62    O     0.50000   0.12845   0.09511   0.00000  Uiso   1.00
Zn63   Zn    0.50000   0.21771   0.16667   0.00000  Uiso   1.00
Zn64   Zn    0.50000   0.11563   0.16667   0.00000  Uiso   1.00
I65    I     0.38588   0.06949   0.22392   0.00000  Uiso   1.00
I66    I     0.61781   0.26359   0.22301   0.00000  Uiso   1.00
I67    I     0.62229   0.05787   0.16430   0.00000  Uiso   1.00
I68    I     0.37639   0.27356   0.15342   0.00000  Uiso   1.00
F69    F     0.52898   0.04594   0.24787   0.00000  Uiso   1.00
F70    F     0.47034   0.28742   0.08579   0.00000  Uiso   1.00
F71    F     0.46926   0.04641   0.08640   0.00000  Uiso   1.00
F72    F     0.52522   0.28737   0.24973   0.00000  Uiso   1.00
C73    C     0.75328   0.16692   0.16929   0.00000  Uiso   1.00
C74    C     0.91343   0.16630   0.16998   0.00000  Uiso   1.00
C75    C     0.83330   0.16666   0.07290   0.00000  Uiso   1.00
C76    C     0.83336   0.16667   0.26044   0.00000  Uiso   1.00
C77    C     0.83332   0.16666   0.02180   0.00000  Uiso   1.00
C78    C     0.83334   0.16667   0.31153   0.00000  Uiso   1.00
C79    C     0.68918   0.12630   0.18758   0.00000  Uiso   1.00
C80    C     0.97820   0.20660   0.18558   0.00000  Uiso   1.00
C81    C     0.98026   0.12417   0.17906   0.00000  Uiso   1.00
C82    C     0.68654   0.20834   0.17529   0.00000  Uiso   1.00
C83    C     0.95760   0.16540   0.17812   0.00000  Uiso   1.00
C84    C     0.70931   0.16736   0.17698   0.00000  Uiso   1.00
C85    C     0.84739   0.02383   0.20727   0.00000  Uiso   1.00
C86    C     0.81887   0.30955   0.12623   0.00000  Uiso   1.00
C87    C     0.81847   0.02402   0.12644   0.00000  Uiso   1.00
C88    C     0.84658   0.30944   0.20766   0.00000  Uiso   1.00
N89    N     0.83333   0.28573   0.16667   0.00000  Uiso   1.00
N90    N     0.83333   0.04760   0.16667   0.00000  Uiso   1.00
O91    O     0.77226   0.20487   0.16666   0.00000  Uiso   1.00
O92    O     0.89441   0.12846   0.16667   0.00000  Uiso   1.00
O93    O     0.89441   0.20487   0.16667   0.00000  Uiso   1.00
O94    O     0.77226   0.12846   0.16666   0.00000  Uiso   1.00
O95    O     0.83334   0.20488   0.09511   0.00000  Uiso   1.00
O96    O     0.83333   0.12845   0.23822   0.00000  Uiso   1.00
O97    O     0.83333   0.20488   0.23822   0.00000  Uiso   1.00
O98    O     0.83334   0.12845   0.09511   0.00000  Uiso   1.00
Zn99   Zn    0.83333   0.21771   0.16667   0.00000  Uiso   1.00
Zn100  Zn    0.83333   0.11563   0.16667   0.00000  Uiso   1.00
I101   I     0.71922   0.06949   0.22392   0.00000  Uiso   1.00
I102   I     0.95114   0.26359   0.22301   0.00000  Uiso   1.00
I103   I     0.95562   0.05787   0.16430   0.00000  Uiso   1.00
I104   I     0.70972   0.27356   0.15342   0.00000  Uiso   1.00
F105   F     0.86231   0.04594   0.24787   0.00000  Uiso   1.00
F106   F     0.80367   0.28742   0.08579   0.00000  Uiso   1.00
F107   F     0.80259   0.04641   0.08640   0.00000  Uiso   1.00
F108   F     0.85855   0.28737   0.24973   0.00000  Uiso   1.00
C109   C     0.08662   0.50025   0.16929   0.00000  Uiso   1.00
C110   C     0.24676   0.49963   0.16998   0.00000  Uiso   1.00
C111   C     0.16664   0.49999   0.07290   0.00000  Uiso   1.00
C112   C     0.16669   0.50001   0.26044   0.00000  Uiso   1.00
C113   C     0.16665   0.49999   0.02180   0.00000  Uiso   1.00
C114   C     0.16667   0.50001   0.31153   0.00000  Uiso   1.00
C115   C     0.02251   0.45963   0.18758   0.00000  Uiso   1.00
C116   C     0.31153   0.53994   0.18558   0.00000  Uiso   1.00
C117   C     0.31359   0.45750   0.17906   0.00000  Uiso   1.00
C118   C     0.01987   0.54168   0.17529   0.00000  Uiso   1.00
C119   C     0.29093   0.49873   0.17812   0.00000  Uiso   1.00
C120   C     0.04264   0.50069   0.17698   0.00000  Uiso   1.00
C121   C     0.18072   0.35716   0.20727   0.00000  Uiso   1.00
C122   C     0.15220   0.64288   0.12623   0.00000  Uiso   1.00
C123   C     0.15180   0.35735   0.12644   0.00000  Uiso   1.00
C124   C     0.17991   0.64277   0.20766   0.00000  Uiso   1.00
N125   N     0.16667   0.61907   0.16667   0.00000  Uiso   1.00
N126   N     0.16667   0.38093   0.16667   0.00000  Uiso   1.00
O127   O     0.10559   0.53821   0.16666   0.00000  Uiso   1.00
O128   O     0.22774   0.46179   0.16667   0.00000  Uiso   1.00
O129   O     0.22774   0.53821   0.16667   0.00000  Uiso   1.00
O130   O     0.10559   0.46179   0.16666   0.00000  Uiso   1.00
O131   O     0.16667   0.53821   0.09511   0.00000  Uiso   1.00
O132   O     0.16666   0.46179   0.23822   0.00000  Uiso   1.00
O133   O     0.16666   0.53821   0.23822   0.00000  Uiso   1.00
O134   O     0.16667   0.46179   0.09511   0.00000  Uiso   1.00
Zn135  Zn    0.16667   0.55104   0.16667   0.00000  Uiso   1.00
Zn136  Zn    0.16667   0.44896   0.16667   0.00000  Uiso   1.00
I137   I     0.05255   0.40282   0.22392   0.00000  Uiso   1.00
I138   I     0.28448   0.59692   0.22301   0.00000  Uiso   1.00
I139   I     0.28895   0.39121   0.16430   0.00000  Uiso   1.00
I140   I     0.04306   0.60690   0.15342   0.00000  Uiso   1.00
F141   F     0.19565   0.37928   0.24787   0.00000  Uiso   1.00
F142   F     0.13700   0.62076   0.08579   0.00000  Uiso   1.00
F143   F     0.13593   0.37974   0.08640   0.00000  Uiso   1.00
F144   F     0.19188   0.62070   0.24973   0.00000  Uiso   1.00
C145   C     0.41995   0.50025   0.16929   0.00000  Uiso   1.00
C146   C     0.58009   0.49963   0.16998   0.00000  Uiso   1.00
C147   C     0.49997   0.49999   0.07290   0.00000  Uiso   1.00
C148   C     0.50002   0.50001   0.26044   0.00000  Uiso   1.00
C149   C     0.49998   0.49999   0.02180   0.00000  Uiso   1.00
C150   C     0.50000   0.50001   0.31153   0.00000  Uiso   1.00
C151   C     0.35585   0.45963   0.18758   0.00000  Uiso   1.00
C152   C     0.64487   0.53994   0.18558   0.00000  Uiso   1.00
C153   C     0.64693   0.45750   0.17906   0.00000  Uiso   1.00
C154   C     0.35320   0.54168   0.17529   0.00000  Uiso   1.00
C155   C     0.62426   0.49873   0.17812   0.00000  Uiso   1.00
C156   C     0.37597   0.50069   0.17698   0.00000  Uiso   1.00
C157   C     0.51406   0.35716   0.20727   0.00000  Uiso   1.00
C158   C     0.48554   0.64288   0.12623   0.00000  Uiso   1.00
C159   C     0.48514   0.35735   0.12644   0.00000  Uiso   1.00
C160   C     0.51324   0.64277   0.20766   0.00000  Uiso   1.00
N161   N     0.50000   0.61907   0.16667   0.00000  Uiso   1.00
N162   N     0.50000   0.38093   0.16667   0.00000  Uiso   1.00
O163   O     0.43892   0.53821   0.16666   0.00000  Uiso   1.00
O164   O     0.56108   0.46179   0.16667   0.00000  Uiso   1.00
O165   O     0.56108   0.53821   0.16667   0.00000  Uiso   1.00
O166   O     0.43892   0.46179   0.16666   0.00000  Uiso   1.00
O167   O     0.50000   0.53821   0.09511   0.00000  Uiso   1.00
O168   O     0.50000   0.46179   0.23822   0.00000  Uiso   1.00
O169   O     0.50000   0.53821   0.23822   0.00000  Uiso   1.00
O170   O     0.50000   0.46179   0.09511   0.00000  Uiso   1.00
Zn171  Zn    0.50000   0.55104   0.16667   0.00000  Uiso   1.00
Zn172  Zn    0.50000   0.44896   0.16667   0.00000  Uiso   1.00
I173   I     0.38588   0.40282   0.22392   0.00000  Uiso   1.00
I174   I     0.61781   0.59692   0.22301   0.00000  Uiso   1.00
I175   I     0.62229   0.39121   0.16430   0.00000  Uiso   1.00
I176   I     0.37639   0.60690   0.15342   0.00000  Uiso   1.00
F177   F     0.52898   0.37928   0.24787   0.00000  Uiso   1.00
F178   F     0.47034   0.62076   0.08579   0.00000  Uiso   1.00
F179   F     0.46926   0.37974   0.08640   0.00000  Uiso   1.00
F180   F     0.52522   0.62070   0.24973   0.00000  Uiso   1.00
C181   C     0.75328   0.50025   0.16929   0.00000  Uiso   1.00
C182   C     0.91343   0.49963   0.16998   0.00000  Uiso   1.00
C183   C     0.83330   0.49999   0.07290   0.00000  Uiso   1.00
C184   C     0.83336   0.50001   0.26044   0.00000  Uiso   1.00
C185   C     0.83332   0.49999   0.02180   0.00000  Uiso   1.00
C186   C     0.83334   0.50001   0.31153   0.00000  Uiso   1.00
C187   C     0.68918   0.45963   0.18758   0.00000  Uiso   1.00
C188   C     0.97820   0.53994   0.18558   0.00000  Uiso   1.00
C189   C     0.98026   0.45750   0.17906   0.00000  Uiso   1.00
C190   C     0.68654   0.54168   0.17529   0.00000  Uiso   1.00
C191   C     0.95760   0.49873   0.17812   0.00000  Uiso   1.00
C192   C     0.70931   0.50069   0.17698   0.00000  Uiso   1.00
C193   C     0.84739   0.35716   0.20727   0.00000  Uiso   1.00
C194   C     0.81887   0.64288   0.12623   0.00000  Uiso   1.00
C195   C     0.81847   0.35735   0.12644   0.00000  Uiso   1.00
C196   C     0.84658   0.64277   0.20766   0.00000  Uiso   1.00
N197   N     0.83333   0.61907   0.16667   0.00000  Uiso   1.00
N198   N     0.83333   0.38093   0.16667   0.00000  Uiso   1.00
O199   O     0.77226   0.53821   0.16666   0.00000  Uiso   1.00
O200   O     0.89441   0.46179   0.16667   0.00000  Uiso   1.00
O201   O     0.89441   0.53821   0.16667   0.00000  Uiso   1.00
O202   O     0.77226   0.46179   0.16666   0.00000  Uiso   1.00
O203   O     0.83334   0.53821   0.09511   0.00000  Uiso   1.00
O204   O     0.83333   0.46179   0.23822   0.00000  Uiso   1.00
O205   O     0.83333   0.53821   0.23822   0.00000  Uiso   1.00
O206   O     0.83334   0.46179   0.09511   0.00000  Uiso   1.00
Zn207  Zn    0.83333   0.55104   0.16667   0.00000  Uiso   1.00
Zn208  Zn    0.83333   0.44896   0.16667   0.00000  Uiso   1.00
I209   I     0.71922   0.40282   0.22392   0.00000  Uiso   1.00
I210   I     0.95114   0.59692   0.22301   0.00000  Uiso   1.00
I211   I     0.95562   0.39121   0.16430   0.00000  Uiso   1.00
I212   I     0.70972   0.60690   0.15342   0.00000  Uiso   1.00
F213   F     0.86231   0.37928   0.24787   0.00000  Uiso   1.00
F214   F     0.80367   0.62076   0.08579   0.00000  Uiso   1.00
F215   F     0.80259   0.37974   0.08640   0.00000  Uiso   1.00
F216   F     0.85855   0.62070   0.24973   0.00000  Uiso   1.00
C217   C     0.08662   0.83358   0.16929   0.00000  Uiso   1.00
C218   C     0.24676   0.83296   0.16998   0.00000  Uiso   1.00
C219   C     0.16664   0.83333   0.07290   0.00000  Uiso   1.00
C220   C     0.16669   0.83334   0.26044   0.00000  Uiso   1.00
C221   C     0.16665   0.83332   0.02180   0.00000  Uiso   1.00
C222   C     0.16667   0.83334   0.31153   0.00000  Uiso   1.00
C223   C     0.02251   0.79297   0.18758   0.00000  Uiso   1.00
C224   C     0.31153   0.87327   0.18558   0.00000  Uiso   1.00
C225   C     0.31359   0.79084   0.17906   0.00000  Uiso   1.00
C226   C     0.01987   0.87501   0.17529   0.00000  Uiso   1.00
C227   C     0.29093   0.83206   0.17812   0.00000  Uiso   1.00
C228   C     0.04264   0.83402   0.17698   0.00000  Uiso   1.00
C229   C     0.18072   0.69050   0.20727   0.00000  Uiso   1.00
C230   C     0.15220   0.97622   0.12623   0.00000  Uiso   1.00
C231   C     0.15180   0.69069   0.12644   0.00000  Uiso   1.00
C232   C     0.17991   0.97611   0.20766   0.00000  Uiso   1.00
N233   N     0.16667   0.95240   0.16667   0.00000  Uiso   1.00
N234   N     0.16667   0.71427   0.16667   0.00000  Uiso   1.00
O235   O     0.10559   0.87154   0.16666   0.00000  Uiso   1.00
O236   O     0.22774   0.79513   0.16667   0.00000  Uiso   1.00
O237   O     0.22774   0.87154   0.16667   0.00000  Uiso   1.00
O238   O     0.10559   0.79513   0.16666   0.00000  Uiso   1.00
O239   O     0.16667   0.87155   0.09511   0.00000  Uiso   1.00
O240   O     0.16666   0.79512   0.23822   0.00000  Uiso   1.00
O241   O     0.16666   0.87155   0.23822   0.00000  Uiso   1.00
O242   O     0.16667   0.79512   0.09511   0.00000  Uiso   1.00
Zn243  Zn    0.16667   0.88437   0.16667   0.00000  Uiso   1.00
Zn244  Zn    0.16667   0.78229   0.16667   0.00000  Uiso   1.00
I245   I     0.05255   0.73615   0.22392   0.00000  Uiso   1.00
I246   I     0.28448   0.93026   0.22301   0.00000  Uiso   1.00
I247   I     0.28895   0.72454   0.16430   0.00000  Uiso   1.00
I248   I     0.04306   0.94023   0.15342   0.00000  Uiso   1.00
F249   F     0.19565   0.71261   0.24787   0.00000  Uiso   1.00
F250   F     0.13700   0.95409   0.08579   0.00000  Uiso   1.00
F251   F     0.13593   0.71307   0.08640   0.00000  Uiso   1.00
F252   F     0.19188   0.95403   0.24973   0.00000  Uiso   1.00
C253   C     0.41995   0.83358   0.16929   0.00000  Uiso   1.00
C254   C     0.58009   0.83296   0.16998   0.00000  Uiso   1.00
C255   C     0.49997   0.83333   0.07290   0.00000  Uiso   1.00
C256   C     0.50002   0.83334   0.26044   0.00000  Uiso   1.00
C257   C     0.49998   0.83332   0.02180   0.00000  Uiso   1.00
C258   C     0.50000   0.83334   0.31153   0.00000  Uiso   1.00
C259   C     0.35585   0.79297   0.18758   0.00000  Uiso   1.00
C260   C     0.64487   0.87327   0.18558   0.00000  Uiso   1.00
C261   C     0.64693   0.79084   0.17906   0.00000  Uiso   1.00
C262   C     0.35320   0.87501   0.17529   0.00000  Uiso   1.00
C263   C     0.62426   0.83206   0.17812   0.00000  Uiso   1.00
C264   C     0.37597   0.83402   0.17698   0.00000  Uiso   1.00
C265   C     0.51406   0.69050   0.20727   0.00000  Uiso   1.00
C266   C     0.48554   0.97622   0.12623   0.00000  Uiso   1.00
C267   C     0.48514   0.69069   0.12644   0.00000  Uiso   1.00
C268   C     0.51324   0.97611   0.20766   0.00000  Uiso   1.00
N269   N     0.50000   0.95240   0.16667   0.00000  Uiso   1.00
N270   N     0.50000   0.71427   0.16667   0.00000  Uiso   1.00
O271   O     0.43892   0.87154   0.16666   0.00000  Uiso   1.00
O272   O     0.56108   0.79513   0.16667   0.00000  Uiso   1.00
O273   O     0.56108   0.87154   0.16667   0.00000  Uiso   1.00
O274   O     0.43892   0.79513   0.16666   0.00000  Uiso   1.00
O275   O     0.50000   0.87155   0.09511   0.00000  Uiso   1.00
O276   O     0.50000   0.79512   0.23822   0.00000  Uiso   1.00
O277   O     0.50000   0.87155   0.23822   0.00000  Uiso   1.00
O278   O     0.50000   0.79512   0.09511   0.00000  Uiso   1.00
Zn279  Zn    0.50000   0.88437   0.16667   0.00000  Uiso   1.00
Zn280  Zn    0.50000   0.78229   0.16667   0.00000  Uiso   1.00
I281   I     0.38588   0.73615   0.22392   0.00000  Uiso   1.00
I282   I     0.61781   0.93026   0.22301   0.00000  Uiso   1.00
I283   I     0.62229   0.72454   0.16430   0.00000  Uiso   1.00
I284   I     0.37639   0.94023   0.15342   0.00000  Uiso   1.00
F285   F     0.52898   0.71261   0.24787   0.00000  Uiso   1.00
F286   F     0.47034   0.95409   0.08579   0.00000  Uiso   1.00
F287   F     0.46926   0.71307   0.08640   0.00000  Uiso   1.00
F288   F     0.52522   0.95403   0.24973   0.00000  Uiso   1.00
C289   C     0.75328   0.83358   0.16929   0.00000  Uiso   1.00
C290   C     0.91343   0.83296   0.16998   0.00000  Uiso   1.00
C291   C     0.83330   0.83333   0.07290   0.00000  Uiso   1.00
C292   C     0.83336   0.83334   0.26044   0.00000  Uiso   1.00
C293   C     0.83332   0.83332   0.02180   0.00000  Uiso   1.00
C294   C     0.83334   0.83334   0.31153   0.00000  Uiso   1.00
C295   C     0.68918   0.79297   0.18758   0.00000  Uiso   1.00
C296   C     0.97820   0.87327   0.18558   0.00000  Uiso   1.00
C297   C     0.98026   0.79084   0.17906   0.00000  Uiso   1.00
C298   C     0.68654   0.87501   0.17529   0.00000  Uiso   1.00
C299   C     0.95760   0.83206   0.17812   0.00000  Uiso   1.00
C300   C     0.70931   0.83402   0.17698   0.00000  Uiso   1.00
C301   C     0.84739   0.69050   0.20727   0.00000  Uiso   1.00
C302   C     0.81887   0.97622   0.12623   0.00000  Uiso   1.00
C303   C     0.81847   0.69069   0.12644   0.00000  Uiso   1.00
C304   C     0.84658   0.97611   0.20766   0.00000  Uiso   1.00
N305   N     0.83333   0.95240   0.16667   0.00000  Uiso   1.00
N306   N     0.83333   0.71427   0.16667   0.00000  Uiso   1.00
O307   O     0.77226   0.87154   0.16666   0.00000  Uiso   1.00
O308   O     0.89441   0.79513   0.16667   0.00000  Uiso   1.00
O309   O     0.89441   0.87154   0.16667   0.00000  Uiso   1.00
O310   O     0.77226   0.79513   0.16666   0.00000  Uiso   1.00
O311   O     0.83334   0.87155   0.09511   0.00000  Uiso   1.00
O312   O     0.83333   0.79512   0.23822   0.00000  Uiso   1.00
O313   O     0.83333   0.87155   0.23822   0.00000  Uiso   1.00
O314   O     0.83334   0.79512   0.09511   0.00000  Uiso   1.00
Zn315  Zn    0.83333   0.88437   0.16667   0.00000  Uiso   1.00
Zn316  Zn    0.83333   0.78229   0.16667   0.00000  Uiso   1.00
I317   I     0.71922   0.73615   0.22392   0.00000  Uiso   1.00
I318   I     0.95114   0.93026   0.22301   0.00000  Uiso   1.00
I319   I     0.95562   0.72454   0.16430   0.00000  Uiso   1.00
I320   I     0.70972   0.94023   0.15342   0.00000  Uiso   1.00
F321   F     0.86231   0.71261   0.24787   0.00000  Uiso   1.00
F322   F     0.80367   0.95409   0.08579   0.00000  Uiso   1.00
F323   F     0.80259   0.71307   0.08640   0.00000  Uiso   1.00
F324   F     0.85855   0.95403   0.24973   0.00000  Uiso   1.00
C325   C     0.08662   0.16692   0.50262   0.00000  Uiso   1.00
C326   C     0.24676   0.16630   0.50331   0.00000  Uiso   1.00
C327   C     0.16664   0.16666   0.40623   0.00000  Uiso   1.00
C328   C     0.16669   0.16667   0.59377   0.00000  Uiso   1.00
C329   C     0.16665   0.16666   0.35513   0.00000  Uiso   1.00
C330   C     0.16667   0.16667   0.64487   0.00000  Uiso   1.00
C331   C     0.02251   0.12630   0.52091   0.00000  Uiso   1.00
C332   C     0.31153   0.20660   0.51891   0.00000  Uiso   1.00
C333   C     0.31359   0.12417   0.51240   0.00000  Uiso   1.00
C334   C     0.01987   0.20834   0.50863   0.00000  Uiso   1.00
C335   C     0.29093   0.16540   0.51145   0.00000  Uiso   1.00
C336   C     0.04264   0.16736   0.51031   0.00000  Uiso   1.00
C337   C     0.18072   0.02383   0.54061   0.00000  Uiso   1.00
C338   C     0.15220   0.30955   0.45956   0.00000  Uiso   1.00
C339   C     0.15180   0.02402   0.45977   0.00000  Uiso   1.00
C340   C     0.17991   0.30944   0.54099   0.00000  Uiso   1.00
N341   N     0.16667   0.28573   0.50000   0.00000  Uiso   1.00
N342   N     0.16667   0.04760   0.50000   0.00000  Uiso   1.00
O343   O     0.10559   0.20487   0.50000   0.00000  Uiso   1.00
O344   O     0.22774   0.12846   0.50000   0.00000  Uiso   1.00
O345   O     0.22774   0.20487   0.50000   0.00000  Uiso   1.00
O346   O     0.10559   0.12846   0.50000   0.00000  Uiso   1.00
O347   O     0.16667   0.20488   0.42845   0.00000  Uiso   1.00
O348   O     0.16666   0.12845   0.57155   0.00000  Uiso   1.00
O349   O     0.16666   0.20488   0.57155   0.00000  Uiso   1.00
O350   O     0.16667   0.12845   0.42845   0.00000  Uiso   1.00
Zn351  Zn    0.16667   0.21771   0.50000   0.00000  Uiso   1.00
Zn352  Zn    0.16667   0.11563   0.50000   0.00000  Uiso   1.00
I353   I     0.05255   0.06949   0.55725   0.00000  Uiso   1.00
I354   I     0.28448   0.26359   0.55635   0.00000  Uiso   1.00
I355   I     0.28895   0.05787   0.49764   0.00000  Uiso   1.00
I356   I     0.04306   0.27356   0.48675   0.00000  Uiso   1.00
F357   F     0.19565   0.04594   0.58120   0.00000  Uiso   1.00
F358   F     0.13700   0.28742   0.41912   0.00000  Uiso   1.00
F359   F     0.13593   0.04641   0.41974   0.00000  Uiso   1.00
F360   F     0.19188   0.28737   0.58306   0.00000  Uiso   1.00
C361   C     0.41995   0.16692   0.50262   0.00000  Uiso   1.00
C362   C     0.58009   0.16630   0.50331   0.00000  Uiso   1.00
C363   C     0.49997   0.16666   0.40623   0.00000  Uiso   1.00
C364   C     0.50002   0.16667   0.59377   0.00000  Uiso   1.00
C365   C     0.49998   0.16666   0.35513   0.00000  Uiso   1.00
C366   C     0.50000   0.16667   0.64487   0.00000  Uiso   1.00
C367   C     0.35585   0.12630   0.52091   0.00000  Uiso   1.00
C368   C     0.64487   0.20660   0.51891   0.00000  Uiso   1.00
C369   C     0.64693   0.12417   0.51240   0.00000  Uiso   1.00
C370   C     0.35320   0.20834   0.50863   0.00000  Uiso   1.00
C371   C     0.62426   0.16540   0.51145   0.00000  Uiso   1.00
C372   C     0.37597   0.16736   0.51031   0.00000  Uiso   1.00
C373   C     0.51406   0.02383   0.54061   0.00000  Uiso   1.00
C374   C     0.48554   0.30955   0.45956   0.00000  Uiso   1.00
C375   C     0.48514   0.02402   0.45977   0.00000  Uiso   1.00
C376   C     0.51324   0.30944   0.54099   0.00000  Uiso   1.00
N377   N     0.50000   0.28573   0.50000   0.00000  Uiso   1.00
N378   N     0.50000   0.04760   0.50000   0.00000  Uiso   1.00
O379   O     0.43892   0.20487   0.50000   0.00000  Uiso   1.00
O380   O     0.56108   0.12846   0.50000   0.00000  Uiso   1.00
O381   O     0.56108   0.20487   0.50000   0.00000  Uiso   1.00
O382   O     0.43892   0.12846   0.50000   0.00000  Uiso   1.00
O383   O     0.50000   0.20488   0.42845   0.00000  Uiso   1.00
O384   O     0.50000   0.12845   0.57155   0.00000  Uiso   1.00
O385   O     0.50000   0.20488   0.57155   0.00000  Uiso   1.00
O386   O     0.50000   0.12845   0.42845   0.00000  Uiso   1.00
Zn387  Zn    0.50000   0.21771   0.50000   0.00000  Uiso   1.00
Zn388  Zn    0.50000   0.11563   0.50000   0.00000  Uiso   1.00
I389   I     0.38588   0.06949   0.55725   0.00000  Uiso   1.00
I390   I     0.61781   0.26359   0.55635   0.00000  Uiso   1.00
I391   I     0.62229   0.05787   0.49764   0.00000  Uiso   1.00
I392   I     0.37639   0.27356   0.48675   0.00000  Uiso   1.00
F393   F     0.52898   0.04594   0.58120   0.00000  Uiso   1.00
F394   F     0.47034   0.28742   0.41912   0.00000  Uiso   1.00
F395   F     0.46926   0.04641   0.41974   0.00000  Uiso   1.00
F396   F     0.52522   0.28737   0.58306   0.00000  Uiso   1.00
C397   C     0.75328   0.16692   0.50262   0.00000  Uiso   1.00
C398   C     0.91343   0.16630   0.50331   0.00000  Uiso   1.00
C399   C     0.83330   0.16666   0.40623   0.00000  Uiso   1.00
C400   C     0.83336   0.16667   0.59377   0.00000  Uiso   1.00
C401   C     0.83332   0.16666   0.35513   0.00000  Uiso   1.00
C402   C     0.83334   0.16667   0.64487   0.00000  Uiso   1.00
C403   C     0.68918   0.12630   0.52091   0.00000  Uiso   1.00
C404   C     0.97820   0.20660   0.51891   0.00000  Uiso   1.00
C405   C     0.98026   0.12417   0.51240   0.00000  Uiso   1.00
C406   C     0.68654   0.20834   0.50863   0.00000  Uiso   1.00
C407   C     0.95760   0.16540   0.51145   0.00000  Uiso   1.00
C408   C     0.70931   0.16736   0.51031   0.00000  Uiso   1.00
C409   C     0.84739   0.02383   0.54061   0.00000  Uiso   1.00
C410   C     0.81887   0.30955   0.45956   0.00000  Uiso   1.00
C411   C     0.81847   0.02402   0.45977   0.00000  Uiso   1.00
C412   C     0.84658   0.30944   0.54099   0.00000  Uiso   1.00
N413   N     0.83333   0.28573   0.50000   0.00000  Uiso   1.00
N414   N     0.83333   0.04760   0.50000   0.00000  Uiso   1.00
O415   O     0.77226   0.20487   0.50000   0.00000  Uiso   1.00
O416   O     0.89441   0.12846   0.50000   0.00000  Uiso   1.00
O417   O     0.89441   0.20487   0.50000   0.00000  Uiso   1.00
O418   O     0.77226   0.12846   0.50000   0.00000  Uiso   1.00
O419   O     0.83334   0.20488   0.42845   0.00000  Uiso   1.00
O420   O     0.83333   0.12845   0.57155   0.00000  Uiso   1.00
O421   O     0.83333   0.20488   0.57155   0.00000  Uiso   1.00
O422   O     0.83334   0.12845   0.42845   0.00000  Uiso   1.00
Zn423  Zn    0.83333   0.21771   0.50000   0.00000  Uiso   1.00
Zn424  Zn    0.83333   0.11563   0.50000   0.00000  Uiso   1.00
I425   I     0.71922   0.06949   0.55725   0.00000  Uiso   1.00
I426   I     0.95114   0.26359   0.55635   0.00000  Uiso   1.00
I427   I     0.95562   0.05787   0.49764   0.00000  Uiso   1.00
I428   I     0.70972   0.27356   0.48675   0.00000  Uiso   1.00
F429   F     0.86231   0.04594   0.58120   0.00000  Uiso   1.00
F430   F     0.80367   0.28742   0.41912   0.00000  Uiso   1.00
F431   F     0.80259   0.04641   0.41974   0.00000  Uiso   1.00
F432   F     0.85855   0.28737   0.58306   0.00000  Uiso   1.00
C433   C     0.08662   0.50025   0.50262   0.00000  Uiso   1.00
C434   C     0.24676   0.49963   0.50331   0.00000  Uiso   1.00
C435   C     0.16664   0.49999   0.40623   0.00000  Uiso   1.00
C436   C     0.16669   0.50001   0.59377   0.00000  Uiso   1.00
C437   C     0.16665   0.49999   0.35513   0.00000  Uiso   1.00
C438   C     0.16667   0.50001   0.64487   0.00000  Uiso   1.00
C439   C     0.02251   0.45963   0.52091   0.00000  Uiso   1.00
C440   C     0.31153   0.53994   0.51891   0.00000  Uiso   1.00
C441   C     0.31359   0.45750   0.51240   0.00000  Uiso   1.00
C442   C     0.01987   0.54168   0.50863   0.00000  Uiso   1.00
C443   C     0.29093   0.49873   0.51145   0.00000  Uiso   1.00
C444   C     0.04264   0.50069   0.51031   0.00000  Uiso   1.00
C445   C     0.18072   0.35716   0.54061   0.00000  Uiso   1.00
C446   C     0.15220   0.64288   0.45956   0.00000  Uiso   1.00
C447   C     0.15180   0.35735   0.45977   0.00000  Uiso   1.00
C448   C     0.17991   0.64277   0.54099   0.00000  Uiso   1.00
N449   N     0.16667   0.61907   0.50000   0.00000  Uiso   1.00
N450   N     0.16667   0.38093   0.50000   0.00000  Uiso   1.00
O451   O     0.10559   0.53821   0.50000   0.00000  Uiso   1.00
O452   O     0.22774   0.46179   0.50000   0.00000  Uiso   1.00
O453   O     0.22774   0.53821   0.50000   0.00000  Uiso   1.00
O454   O     0.10559   0.46179   0.50000   0.00000  Uiso   1.00
O455   O     0.16667   0.53821   0.42845   0.00000  Uiso   1.00
O456   O     0.16666   0.46179   0.57155   0.00000  Uiso   1.00
O457   O     0.16666   0.53821   0.57155   0.00000  Uiso   1.00
O458   O     0.16667   0.46179   0.42845   0.00000  Uiso   1.00
Zn459  Zn    0.16667   0.55104   0.50000   0.00000  Uiso   1.00
Zn460  Zn    0.16667   0.44896   0.50000   0.00000  Uiso   1.00
I461   I     0.05255   0.40282   0.55725   0.00000  Uiso   1.00
I462   I     0.28448   0.59692   0.55635   0.00000  Uiso   1.00
I463   I     0.28895   0.39121   0.49764   0.00000  Uiso   1.00
I464   I     0.04306   0.60690   0.48675   0.00000  Uiso   1.00
F465   F     0.19565   0.37928   0.58120   0.00000  Uiso   1.00
F466   F     0.13700   0.62076   0.41912   0.00000  Uiso   1.00
F467   F     0.13593   0.37974   0.41974   0.00000  Uiso   1.00
F468   F     0.19188   0.62070   0.58306   0.00000  Uiso   1.00
C469   C     0.41995   0.50025   0.50262   0.00000  Uiso   1.00
C470   C     0.58009   0.49963   0.50331   0.00000  Uiso   1.00
C471   C     0.49997   0.49999   0.40623   0.00000  Uiso   1.00
C472   C     0.50002   0.50001   0.59377   0.00000  Uiso   1.00
C473   C     0.49998   0.49999   0.35513   0.00000  Uiso   1.00
C474   C     0.50000   0.50001   0.64487   0.00000  Uiso   1.00
C475   C     0.35585   0.45963   0.52091   0.00000  Uiso   1.00
C476   C     0.64487   0.53994   0.51891   0.00000  Uiso   1.00
C477   C     0.64693   0.45750   0.51240   0.00000  Uiso   1.00
C478   C     0.35320   0.54168   0.50863   0.00000  Uiso   1.00
C479   C     0.62426   0.49873   0.51145   0.00000  Uiso   1.00
C480   C     0.37597   0.50069   0.51031   0.00000  Uiso   1.00
C481   C     0.51406   0.35716   0.54061   0.00000  Uiso   1.00
C482   C     0.48554   0.64288   0.45956   0.00000  Uiso   1.00
C483   C     0.48514   0.35735   0.45977   0.00000  Uiso   1.00
C484   C     0.51324   0.64277   0.54099   0.00000  Uiso   1.00
N485   N     0.50000   0.61907   0.50000   0.00000  Uiso   1.00
N486   N     0.50000   0.38093   0.50000   0.00000  Uiso   1.00
O487   O     0.43892   0.53821   0.50000   0.00000  Uiso   1.00
O488   O     0.56108   0.46179   0.50000   0.00000  Uiso   1.00
O489   O     0.56108   0.53821   0.50000   0.00000  Uiso   1.00
O490   O     0.43892   0.46179   0.50000   0.00000  Uiso   1.00
O491   O     0.50000   0.53821   0.42845   0.00000  Uiso   1.00
O492   O     0.50000   0.46179   0.57155   0.00000  Uiso   1.00
O493   O     0.50000   0.53821   0.57155   0.00000  Uiso   1.00
O494   O     0.50000   0.46179   0.42845   0.00000  Uiso   1.00
Zn495  Zn    0.50000   0.55104   0.50000   0.00000  Uiso   1.00
Zn496  Zn    0.50000   0.44896   0.50000   0.00000  Uiso   1.00
I497   I     0.38588   0.40282   0.55725   0.00000  Uiso   1.00
I498   I     0.61781   0.59692   0.55635   0.00000  Uiso   1.00
I499   I     0.62229   0.39121   0.49764   0.00000  Uiso   1.00
I500   I     0.37639   0.60690   0.48675   0.00000  Uiso   1.00
F501   F     0.52898   0.37928   0.58120   0.00000  Uiso   1.00
F502   F     0.47034   0.62076   0.41912   0.00000  Uiso   1.00
F503   F     0.46926   0.37974   0.41974   0.00000  Uiso   1.00
F504   F     0.52522   0.62070   0.58306   0.00000  Uiso   1.00
C505   C     0.75328   0.50025   0.50262   0.00000  Uiso   1.00
C506   C     0.91343   0.49963   0.50331   0.00000  Uiso   1.00
C507   C     0.83330   0.49999   0.40623   0.00000  Uiso   1.00
C508   C     0.83336   0.50001   0.59377   0.00000  Uiso   1.00
C509   C     0.83332   0.49999   0.35513   0.00000  Uiso   1.00
C510   C     0.83334   0.50001   0.64487   0.00000  Uiso   1.00
C511   C     0.68918   0.45963   0.52091   0.00000  Uiso   1.00
C512   C     0.97820   0.53994   0.51891   0.00000  Uiso   1.00
C513   C     0.98026   0.45750   0.51240   0.00000  Uiso   1.00
C514   C     0.68654   0.54168   0.50863   0.00000  Uiso   1.00
C515   C     0.95760   0.49873   0.51145   0.00000  Uiso   1.00
C516   C     0.70931   0.50069   0.51031   0.00000  Uiso   1.00
C517   C     0.84739   0.35716   0.54061   0.00000  Uiso   1.00
C518   C     0.81887   0.64288   0.45956   0.00000  Uiso   1.00
C519   C     0.81847   0.35735   0.45977   0.00000  Uiso   1.00
C520   C     0.84658   0.64277   0.54099   0.00000  Uiso   1.00
N521   N     0.83333   0.61907   0.50000   0.00000  Uiso   1.00
N522   N     0.83333   0.38093   0.50000   0.00000  Uiso   1.00
O523   O     0.77226   0.53821   0.50000   0.00000  Uiso   1.00
O524   O     0.89441   0.46179   0.50000   0.00000  Uiso   1.00
O525   O     0.89441   0.53821   0.50000   0.00000  Uiso   1.00
O526   O     0.77226   0.46179   0.50000   0.00000  Uiso   1.00
O527   O     0.83334   0.53821   0.42845   0.00000  Uiso   1.00
O528   O     0.83333   0.46179   0.57155   0.00000  Uiso   1.00
O529   O     0.83333   0.53821   0.57155   0.00000  Uiso   1.00
O530   O     0.83334   0.46179   0.42845   0.00000  Uiso   1.00
Zn531  Zn    0.83333   0.55104   0.50000   0.00000  Uiso   1.00
Zn532  Zn    0.83333   0.44896   0.50000   0.00000  Uiso   1.00
I533   I     0.71922   0.40282   0.55725   0.00000  Uiso   1.00
I534   I     0.95114   0.59692   0.55635   0.00000  Uiso   1.00
I535   I     0.95562   0.39121   0.49764   0.00000  Uiso   1.00
I536   I     0.70972   0.60690   0.48675   0.00000  Uiso   1.00
F537   F     0.86231   0.37928   0.58120   0.00000  Uiso   1.00
F538   F     0.80367   0.62076   0.41912   0.00000  Uiso   1.00
F539   F     0.80259   0.37974   0.41974   0.00000  Uiso   1.00
F540   F     0.85855   0.62070   0.58306   0.00000  Uiso   1.00
C541   C     0.08662   0.83358   0.50262   0.00000  Uiso   1.00
C542   C     0.24676   0.83296   0.50331   0.00000  Uiso   1.00
C543   C     0.16664   0.83333   0.40623   0.00000  Uiso   1.00
C544   C     0.16669   0.83334   0.59377   0.00000  Uiso   1.00
C545   C     0.16665   0.83332   0.35513   0.00000  Uiso   1.00
C546   C     0.16667   0.83334   0.64487   0.00000  Uiso   1.00
C547   C     0.02251   0.79297   0.52091   0.00000  Uiso   1.00
C548   C     0.31153   0.87327   0.51891   0.00000  Uiso   1.00
C549   C     0.31359   0.79084   0.51240   0.00000  Uiso   1.00
C550   C     0.01987   0.87501   0.50863   0.00000  Uiso   1.00
C551   C     0.29093   0.83206   0.51145   0.00000  Uiso   1.00
C552   C     0.04264   0.83402   0.51031   0.00000  Uiso   1.00
C553   C     0.18072   0.69050   0.54061   0.00000  Uiso   1.00
C554   C     0.15220   0.97622   0.45956   0.00000  Uiso   1.00
C555   C     0.15180   0.69069   0.45977   0.00000  Uiso   1.00
C556   C     0.17991   0.97611   0.54099   0.00000  Uiso   1.00
N557   N     0.16667   0.95240   0.50000   0.00000  Uiso   1.00
N558   N     0.16667   0.71427   0.50000   0.00000  Uiso   1.00
O559   O     0.10559   0.87154   0.50000   0.00000  Uiso   1.00
O560   O     0.22774   0.79513   0.50000   0.00000  Uiso   1.00
O561   O     0.22774   0.87154   0.50000   0.00000  Uiso   1.00
O562   O     0.10559   0.79513   0.50000   0.00000  Uiso   1.00
O563   O     0.16667   0.87155   0.42845   0.00000  Uiso   1.00
O564   O     0.16666   0.79512   0.57155   0.00000  Uiso   1.00
O565   O     0.16666   0.87155   0.57155   0.00000  Uiso   1.00
O566   O     0.16667   0.79512   0.42845   0.00000  Uiso   1.00
Zn567  Zn    0.16667   0.88437   0.50000   0.00000  Uiso   1.00
Zn568  Zn    0.16667   0.78229   0.50000   0.00000  Uiso   1.00
I569   I     0.05255   0.73615   0.55725   0.00000  Uiso   1.00
I570   I     0.28448   0.93026   0.55635   0.00000  Uiso   1.00
I571   I     0.28895   0.72454   0.49764   0.00000  Uiso   1.00
I572   I     0.04306   0.94023   0.48675   0.00000  Uiso   1.00
F573   F     0.19565   0.71261   0.58120   0.00000  Uiso   1.00
F574   F     0.13700   0.95409   0.41912   0.00000  Uiso   1.00
F575   F     0.13593   0.71307   0.41974   0.00000  Uiso   1.00
F576   F     0.19188   0.95403   0.58306   0.00000  Uiso   1.00
C577   C     0.41995   0.83358   0.50262   0.00000  Uiso   1.00
C578   C     0.58009   0.83296   0.50331   0.00000  Uiso   1.00
C579   C     0.49997   0.83333   0.40623   0.00000  Uiso   1.00
C580   C     0.50002   0.83334   0.59377   0.00000  Uiso   1.00
C581   C     0.49998   0.83332   0.35513   0.00000  Uiso   1.00
C582   C     0.50000   0.83334   0.64487   0.00000  Uiso   1.00
C583   C     0.35585   0.79297   0.52091   0.00000  Uiso   1.00
C584   C     0.64487   0.87327   0.51891   0.00000  Uiso   1.00
C585   C     0.64693   0.79084   0.51240   0.00000  Uiso   1.00
C586   C     0.35320   0.87501   0.50863   0.00000  Uiso   1.00
C587   C     0.62426   0.83206   0.51145   0.00000  Uiso   1.00
C588   C     0.37597   0.83402   0.51031   0.00000  Uiso   1.00
C589   C     0.51406   0.69050   0.54061   0.00000  Uiso   1.00
C590   C     0.48554   0.97622   0.45956   0.00000  Uiso   1.00
C591   C     0.48514   0.69069   0.45977   0.00000  Uiso   1.00
C592   C     0.51324   0.97611   0.54099   0.00000  Uiso   1.00
N593   N     0.50000   0.95240   0.50000   0.00000  Uiso   1.00
N594   N     0.50000   0.71427   0.50000   0.00000  Uiso   1.00
O595   O     0.43892   0.87154   0.50000   0.00000  Uiso   1.00
O596   O     0.56108   0.79513   0.50000   0.00000  Uiso   1.00
O597   O     0.56108   0.87154   0.50000   0.00000  Uiso   1.00
O598   O     0.43892   0.79513   0.50000   0.00000  Uiso   1.00
O599   O     0.50000   0.87155   0.42845   0.00000  Uiso   1.00
O600   O     0.50000   0.79512   0.57155   0.00000  Uiso   1.00
O601   O     0.50000   0.87155   0.57155   0.00000  Uiso   1.00
O602   O     0.50000   0.79512   0.42845   0.00000  Uiso   1.00
Zn603  Zn    0.50000   0.88437   0.50000   0.00000  Uiso   1.00
Zn604  Zn    0.50000   0.78229   0.50000   0.00000  Uiso   1.00
I605   I     0.38588   0.73615   0.55725   0.00000  Uiso   1.00
I606   I     0.61781   0.93026   0.55635   0.00000  Uiso   1.00
I607   I     0.62229   0.72454   0.49764   0.00000  Uiso   1.00
I608   I     0.37639   0.94023   0.48675   0.00000  Uiso   1.00
F609   F     0.52898   0.71261   0.58120   0.00000  Uiso   1.00
F610   F     0.47034   0.95409   0.41912   0.00000  Uiso   1.00
F611   F     0.46926   0.71307   0.41974   0.00000  Uiso   1.00
F612   F     0.52522   0.95403   0.58306   0.00000  Uiso   1.00
C613   C     0.75328   0.83358   0.50262   0.00000  Uiso   1.00
C614   C     0.91343   0.83296   0.50331   0.00000  Uiso   1.00
C615   C     0.83330   0.83333   0.40623   0.00000  Uiso   1.00
C616   C     0.83336   0.83334   0.59377   0.00000  Uiso   1.00
C617   C     0.83332   0.83332   0.35513   0.00000  Uiso   1.00
C618   C     0.83334   0.83334   0.64487   0.00000  Uiso   1.00
C619   C     0.68918   0.79297   0.52091   0.00000  Uiso   1.00
C620   C     0.97820   0.87327   0.51891   0.00000  Uiso   1.00
C621   C     0.98026   0.79084   0.51240   0.00000  Uiso   1.00
C622   C     0.68654   0.87501   0.50863   0.00000  Uiso   1.00
C623   C     0.95760   0.83206   0.51145   0.00000  Uiso   1.00
C624   C     0.70931   0.83402   0.51031   0.00000  Uiso   1.00
C625   C     0.84739   0.69050   0.54061   0.00000  Uiso   1.00
C626   C     0.81887   0.97622   0.45956   0.00000  Uiso   1.00
C627   C     0.81847   0.69069   0.45977   0.00000  Uiso   1.00
C628   C     0.84658   0.97611   0.54099   0.00000  Uiso   1.00
N629   N     0.83333   0.95240   0.50000   0.00000  Uiso   1.00
N630   N     0.83333   0.71427   0.50000   0.00000  Uiso   1.00
O631   O     0.77226   0.87154   0.50000   0.00000  Uiso   1.00
O632   O     0.89441   0.79513   0.50000   0.00000  Uiso   1.00
O633   O     0.89441   0.87154   0.50000   0.00000  Uiso   1.00
O634   O     0.77226   0.79513   0.50000   0.00000  Uiso   1.00
O635   O     0.83334   0.87155   0.42845   0.00000  Uiso   1.00
O636   O     0.83333   0.79512   0.57155   0.00000  Uiso   1.00
O637   O     0.83333   0.87155   0.57155   0.00000  Uiso   1.00
O638   O     0.83334   0.79512   0.42845   0.00000  Uiso   1.00
Zn639  Zn    0.83333   0.88437   0.50000   0.00000  Uiso   1.00
Zn640  Zn    0.83333   0.78229   0.50000   0.00000  Uiso   1.00
I641   I     0.71922   0.73615   0.55725   0.00000  Uiso   1.00
I642   I     0.95114   0.93026   0.55635   0.00000  Uiso   1.00
I643   I     0.95562   0.72454   0.49764   0.00000  Uiso   1.00
I644   I     0.70972   0.94023   0.48675   0.00000  Uiso   1.00
F645   F     0.86231   0.71261   0.58120   0.00000  Uiso   1.00
F646   F     0.80367   0.95409   0.41912   0.00000  Uiso   1.00
F647   F     0.80259   0.71307   0.41974   0.00000  Uiso   1.00
F648   F     0.85855   0.95403   0.58306   0.00000  Uiso   1.00
C649   C     0.08662   0.16692   0.83596   0.00000  Uiso   1.00
C650   C     0.24676   0.16630   0.83665   0.00000  Uiso   1.00
C651   C     0.16664   0.16666   0.73956   0.00000  Uiso   1.00
C652   C     0.16669   0.16667   0.92710   0.00000  Uiso   1.00
C653   C     0.16665   0.16666   0.68846   0.00000  Uiso   1.00
C654   C     0.16667   0.16667   0.97820   0.00000  Uiso   1.00
C655   C     0.02251   0.12630   0.85425   0.00000  Uiso   1.00
C656   C     0.31153   0.20660   0.85225   0.00000  Uiso   1.00
C657   C     0.31359   0.12417   0.84573   0.00000  Uiso   1.00
C658   C     0.01987   0.20834   0.84196   0.00000  Uiso   1.00
C659   C     0.29093   0.16540   0.84478   0.00000  Uiso   1.00
C660   C     0.04264   0.16736   0.84364   0.00000  Uiso   1.00
C661   C     0.18072   0.02383   0.87394   0.00000  Uiso   1.00
C662   C     0.15220   0.30955   0.79289   0.00000  Uiso   1.00
C663   C     0.15180   0.02402   0.79311   0.00000  Uiso   1.00
C664   C     0.17991   0.30944   0.87432   0.00000  Uiso   1.00
N665   N     0.16667   0.28573   0.83333   0.00000  Uiso   1.00
N666   N     0.16667   0.04760   0.83333   0.00000  Uiso   1.00
O667   O     0.10559   0.20487   0.83333   0.00000  Uiso   1.00
O668   O     0.22774   0.12846   0.83334   0.00000  Uiso   1.00
O669   O     0.22774   0.20487   0.83334   0.00000  Uiso   1.00
O670   O     0.10559   0.12846   0.83333   0.00000  Uiso   1.00
O671   O     0.16667   0.20488   0.76178   0.00000  Uiso   1.00
O672   O     0.16666   0.12845   0.90489   0.00000  Uiso   1.00
O673   O     0.16666   0.20488   0.90489   0.00000  Uiso   1.00
O674   O     0.16667   0.12845   0.76178   0.00000  Uiso   1.00
Zn675  Zn    0.16667   0.21771   0.83333   0.00000  Uiso   1.00
Zn676  Zn    0.16667   0.11563   0.83333   0.00000  Uiso   1.00
I677   I     0.05255   0.06949   0.89058   0.00000  Uiso   1.00
I678   I     0.28448   0.26359   0.88968   0.00000  Uiso   1.00
I679   I     0.28895   0.05787   0.83097   0.00000  Uiso   1.00
I680   I     0.04306   0.27356   0.82008   0.00000  Uiso   1.00
F681   F     0.19565   0.04594   0.91453   0.00000  Uiso   1.00
F682   F     0.13700   0.28742   0.75245   0.00000  Uiso   1.00
F683   F     0.13593   0.04641   0.75307   0.00000  Uiso   1.00
F684   F     0.19188   0.28737   0.91639   0.00000  Uiso   1.00
C685   C     0.41995   0.16692   0.83596   0.00000  Uiso   1.00
C686   C     0.58009   0.16630   0.83665   0.00000  Uiso   1.00
C687   C     0.49997   0.16666   0.73956   0.00000  Uiso   1.00
C688   C     0.50002   0.16667   0.92710   0.00000  Uiso   1.00
C689   C     0.49998   0.16666   0.68846   0.00000  Uiso   1.00
C690   C     0.50000   0.16667   0.97820   0.00000  Uiso   1.00
C691   C     0.35585   0.12630   0.85425   0.00000  Uiso   1.00
C692   C     0.64487   0.20660   0.85225   0.00000  Uiso   1.00
C693   C     0.64693   0.12417   0.84573   0.00000  Uiso   1.00
C694   C     0.35320   0.20834   0.84196   0.00000  Uiso   1.00
C695   C     0.62426   0.16540   0.84478   0.00000  Uiso   1.00
C696   C     0.37597   0.16736   0.84364   0.00000  Uiso   1.00
C697   C     0.51406   0.02383   0.87394   0.00000  Uiso   1.00
C698   C     0.48554   0.30955   0.79289   0.00000  Uiso   1.00
C699   C     0.48514   0.02402   0.79311   0.00000  Uiso   1.00
C700   C     0.51324   0.30944   0.87432   0.00000  Uiso   1.00
N701   N     0.50000   0.28573   0.83333   0.00000  Uiso   1.00
N702   N     0.50000   0.04760   0.83333   0.00000  Uiso   1.00
O703   O     0.43892   0.20487   0.83333   0.00000  Uiso   1.00
O704   O     0.56108   0.12846   0.83334   0.00000  Uiso   1.00
O705   O     0.56108   0.20487   0.83334   0.00000  Uiso   1.00
O706   O     0.43892   0.12846   0.83333   0.00000  Uiso   1.00
O707   O     0.50000   0.20488   0.76178   0.00000  Uiso   1.00
O708   O     0.50000   0.12845   0.90489   0.00000  Uiso   1.00
O709   O     0.50000   0.20488   0.90489   0.00000  Uiso   1.00
O710   O     0.50000   0.12845   0.76178   0.00000  Uiso   1.00
Zn711  Zn    0.50000   0.21771   0.83333   0.00000  Uiso   1.00
Zn712  Zn    0.50000   0.11563   0.83333   0.00000  Uiso   1.00
I713   I     0.38588   0.06949   0.89058   0.00000  Uiso   1.00
I714   I     0.61781   0.26359   0.88968   0.00000  Uiso   1.00
I715   I     0.62229   0.05787   0.83097   0.00000  Uiso   1.00
I716   I     0.37639   0.27356   0.82008   0.00000  Uiso   1.00
F717   F     0.52898   0.04594   0.91453   0.00000  Uiso   1.00
F718   F     0.47034   0.28742   0.75245   0.00000  Uiso   1.00
F719   F     0.46926   0.04641   0.75307   0.00000  Uiso   1.00
F720   F     0.52522   0.28737   0.91639   0.00000  Uiso   1.00
C721   C     0.75328   0.16692   0.83596   0.00000  Uiso   1.00
C722   C     0.91343   0.16630   0.83665   0.00000  Uiso   1.00
C723   C     0.83330   0.16666   0.73956   0.00000  Uiso   1.00
C724   C     0.83336   0.16667   0.92710   0.00000  Uiso   1.00
C725   C     0.83332   0.16666   0.68846   0.00000  Uiso   1.00
C726   C     0.83334   0.16667   0.97820   0.00000  Uiso   1.00
C727   C     0.68918   0.12630   0.85425   0.00000  Uiso   1.00
C728   C     0.97820   0.20660   0.85225   0.00000  Uiso   1.00
C729   C     0.98026   0.12417   0.84573   0.00000  Uiso   1.00
C730   C     0.68654   0.20834   0.84196   0.00000  Uiso   1.00
C731   C     0.95760   0.16540   0.84478   0.00000  Uiso   1.00
C732   C     0.70931   0.16736   0.84364   0.00000  Uiso   1.00
C733   C     0.84739   0.02383   0.87394   0.00000  Uiso   1.00
C734   C     0.81887   0.30955   0.79289   0.00000  Uiso   1.00
C735   C     0.81847   0.02402   0.79311   0.00000  Uiso   1.00
C736   C     0.84658   0.30944   0.87432   0.00000  Uiso   1.00
N737   N     0.83333   0.28573   0.83333   0.00000  Uiso   1.00
N738   N     0.83333   0.04760   0.83333   0.00000  Uiso   1.00
O739   O     0.77226   0.20487   0.83333   0.00000  Uiso   1.00
O740   O     0.89441   0.12846   0.83334   0.00000  Uiso   1.00
O741   O     0.89441   0.20487   0.83334   0.00000  Uiso   1.00
O742   O     0.77226   0.12846   0.83333   0.00000  Uiso   1.00
O743   O     0.83334   0.20488   0.76178   0.00000  Uiso   1.00
O744   O     0.83333   0.12845   0.90489   0.00000  Uiso   1.00
O745   O     0.83333   0.20488   0.90489   0.00000  Uiso   1.00
O746   O     0.83334   0.12845   0.76178   0.00000  Uiso   1.00
Zn747  Zn    0.83333   0.21771   0.83333   0.00000  Uiso   1.00
Zn748  Zn    0.83333   0.11563   0.83333   0.00000  Uiso   1.00
I749   I     0.71922   0.06949   0.89058   0.00000  Uiso   1.00
I750   I     0.95114   0.26359   0.88968   0.00000  Uiso   1.00
I751   I     0.95562   0.05787   0.83097   0.00000  Uiso   1.00
I752   I     0.70972   0.27356   0.82008   0.00000  Uiso   1.00
F753   F     0.86231   0.04594   0.91453   0.00000  Uiso   1.00
F754   F     0.80367   0.28742   0.75245   0.00000  Uiso   1.00
F755   F     0.80259   0.04641   0.75307   0.00000  Uiso   1.00
F756   F     0.85855   0.28737   0.91639   0.00000  Uiso   1.00
C757   C     0.08662   0.50025   0.83596   0.00000  Uiso   1.00
C758   C     0.24676   0.49963   0.83665   0.00000  Uiso   1.00
C759   C     0.16664   0.49999   0.73956   0.00000  Uiso   1.00
C760   C     0.16669   0.50001   0.92710   0.00000  Uiso   1.00
C761   C     0.16665   0.49999   0.68846   0.00000  Uiso   1.00
C762   C     0.16667   0.50001   0.97820   0.00000  Uiso   1.00
C763   C     0.02251   0.45963   0.85425   0.00000  Uiso   1.00
C764   C     0.31153   0.53994   0.85225   0.00000  Uiso   1.00
C765   C     0.31359   0.45750   0.84573   0.00000  Uiso   1.00
C766   C     0.01987   0.54168   0.84196   0.00000  Uiso   1.00
C767   C     0.29093   0.49873   0.84478   0.00000  Uiso   1.00
C768   C     0.04264   0.50069   0.84364   0.00000  Uiso   1.00
C769   C     0.18072   0.35716   0.87394   0.00000  Uiso   1.00
C770   C     0.15220   0.64288   0.79289   0.00000  Uiso   1.00
C771   C     0.15180   0.35735   0.79311   0.00000  Uiso   1.00
C772   C     0.17991   0.64277   0.87432   0.00000  Uiso   1.00
N773   N     0.16667   0.61907   0.83333   0.00000  Uiso   1.00
N774   N     0.16667   0.38093   0.83333   0.00000  Uiso   1.00
O775   O     0.10559   0.53821   0.83333   0.00000  Uiso   1.00
O776   O     0.22774   0.46179   0.83334   0.00000  Uiso   1.00
O777   O     0.22774   0.53821   0.83334   0.00000  Uiso   1.00
O778   O     0.10559   0.46179   0.83333   0.00000  Uiso   1.00
O779   O     0.16667   0.53821   0.76178   0.00000  Uiso   1.00
O780   O     0.16666   0.46179   0.90489   0.00000  Uiso   1.00
O781   O     0.16666   0.53821   0.90489   0.00000  Uiso   1.00
O782   O     0.16667   0.46179   0.76178   0.00000  Uiso   1.00
Zn783  Zn    0.16667   0.55104   0.83333   0.00000  Uiso   1.00
Zn784  Zn    0.16667   0.44896   0.83333   0.00000  Uiso   1.00
I785   I     0.05255   0.40282   0.89058   0.00000  Uiso   1.00
I786   I     0.28448   0.59692   0.88968   0.00000  Uiso   1.00
I787   I     0.28895   0.39121   0.83097   0.00000  Uiso   1.00
I788   I     0.04306   0.60690   0.82008   0.00000  Uiso   1.00
F789   F     0.19565   0.37928   0.91453   0.00000  Uiso   1.00
F790   F     0.13700   0.62076   0.75245   0.00000  Uiso   1.00
F791   F     0.13593   0.37974   0.75307   0.00000  Uiso   1.00
F792   F     0.19188   0.62070   0.91639   0.00000  Uiso   1.00
C793   C     0.41995   0.50025   0.83596   0.00000  Uiso   1.00
C794   C     0.58009   0.49963   0.83665   0.00000  Uiso   1.00
C795   C     0.49997   0.49999   0.73956   0.00000  Uiso   1.00
C796   C     0.50002   0.50001   0.92710   0.00000  Uiso   1.00
C797   C     0.49998   0.49999   0.68846   0.00000  Uiso   1.00
C798   C     0.50000   0.50001   0.97820   0.00000  Uiso   1.00
C799   C     0.35585   0.45963   0.85425   0.00000  Uiso   1.00
C800   C     0.64487   0.53994   0.85225   0.00000  Uiso   1.00
C801   C     0.64693   0.45750   0.84573   0.00000  Uiso   1.00
C802   C     0.35320   0.54168   0.84196   0.00000  Uiso   1.00
C803   C     0.62426   0.49873   0.84478   0.00000  Uiso   1.00
C804   C     0.37597   0.50069   0.84364   0.00000  Uiso   1.00
C805   C     0.51406   0.35716   0.87394   0.00000  Uiso   1.00
C806   C     0.48554   0.64288   0.79289   0.00000  Uiso   1.00
C807   C     0.48514   0.35735   0.79311   0.00000  Uiso   1.00
C808   C     0.51324   0.64277   0.87432   0.00000  Uiso   1.00
N809   N     0.50000   0.61907   0.83333   0.00000  Uiso   1.00
N810   N     0.50000   0.38093   0.83333   0.00000  Uiso   1.00
O811   O     0.43892   0.53821   0.83333   0.00000  Uiso   1.00
O812   O     0.56108   0.46179   0.83334   0.00000  Uiso   1.00
O813   O     0.56108   0.53821   0.83334   0.00000  Uiso   1.00
O814   O     0.43892   0.46179   0.83333   0.00000  Uiso   1.00
O815   O     0.50000   0.53821   0.76178   0.00000  Uiso   1.00
O816   O     0.50000   0.46179   0.90489   0.00000  Uiso   1.00
O817   O     0.50000   0.53821   0.90489   0.00000  Uiso   1.00
O818   O     0.50000   0.46179   0.76178   0.00000  Uiso   1.00
Zn819  Zn    0.50000   0.55104   0.83333   0.00000  Uiso   1.00
Zn820  Zn    0.50000   0.44896   0.83333   0.00000  Uiso   1.00
I821   I     0.38588   0.40282   0.89058   0.00000  Uiso   1.00
I822   I     0.61781   0.59692   0.88968   0.00000  Uiso   1.00
I823   I     0.62229   0.39121   0.83097   0.00000  Uiso   1.00
I824   I     0.37639   0.60690   0.82008   0.00000  Uiso   1.00
F825   F     0.52898   0.37928   0.91453   0.00000  Uiso   1.00
F826   F     0.47034   0.62076   0.75245   0.00000  Uiso   1.00
F827   F     0.46926   0.37974   0.75307   0.00000  Uiso   1.00
F828   F     0.52522   0.62070   0.91639   0.00000  Uiso   1.00
C829   C     0.75328   0.50025   0.83596   0.00000  Uiso   1.00
C830   C     0.91343   0.49963   0.83665   0.00000  Uiso   1.00
C831   C     0.83330   0.49999   0.73956   0.00000  Uiso   1.00
C832   C     0.83336   0.50001   0.92710   0.00000  Uiso   1.00
C833   C     0.83332   0.49999   0.68846   0.00000  Uiso   1.00
C834   C     0.83334   0.50001   0.97820   0.00000  Uiso   1.00
C835   C     0.68918   0.45963   0.85425   0.00000  Uiso   1.00
C836   C     0.97820   0.53994   0.85225   0.00000  Uiso   1.00
C837   C     0.98026   0.45750   0.84573   0.00000  Uiso   1.00
C838   C     0.68654   0.54168   0.84196   0.00000  Uiso   1.00
C839   C     0.95760   0.49873   0.84478   0.00000  Uiso   1.00
C840   C     0.70931   0.50069   0.84364   0.00000  Uiso   1.00
C841   C     0.84739   0.35716   0.87394   0.00000  Uiso   1.00
C842   C     0.81887   0.64288   0.79289   0.00000  Uiso   1.00
C843   C     0.81847   0.35735   0.79311   0.00000  Uiso   1.00
C844   C     0.84658   0.64277   0.87432   0.00000  Uiso   1.00
N845   N     0.83333   0.61907   0.83333   0.00000  Uiso   1.00
N846   N     0.83333   0.38093   0.83333   0.00000  Uiso   1.00
O847   O     0.77226   0.53821   0.83333   0.00000  Uiso   1.00
O848   O     0.89441   0.46179   0.83334   0.00000  Uiso   1.00
O849   O     0.89441   0.53821   0.83334   0.00000  Uiso   1.00
O850   O     0.77226   0.46179   0.83333   0.00000  Uiso   1.00
O851   O     0.83334   0.53821   0.76178   0.00000  Uiso   1.00
O852   O     0.83333   0.46179   0.90489   0.00000  Uiso   1.00
O853   O     0.83333   0.53821   0.90489   0.00000  Uiso   1.00
O854   O     0.83334   0.46179   0.76178   0.00000  Uiso   1.00
Zn855  Zn    0.83333   0.55104   0.83333   0.00000  Uiso   1.00
Zn856  Zn    0.83333   0.44896   0.83333   0.00000  Uiso   1.00
I857   I     0.71922   0.40282   0.89058   0.00000  Uiso   1.00
I858   I     0.95114   0.59692   0.88968   0.00000  Uiso   1.00
I859   I     0.95562   0.39121   0.83097   0.00000  Uiso   1.00
I860   I     0.70972   0.60690   0.82008   0.00000  Uiso   1.00
F861   F     0.86231   0.37928   0.91453   0.00000  Uiso   1.00
F862   F     0.80367   0.62076   0.75245   0.00000  Uiso   1.00
F863   F     0.80259   0.37974   0.75307   0.00000  Uiso   1.00
F864   F     0.85855   0.62070   0.91639   0.00000  Uiso   1.00
C865   C     0.08662   0.83358   0.83596   0.00000  Uiso   1.00
C866   C     0.24676   0.83296   0.83665   0.00000  Uiso   1.00
C867   C     0.16664   0.83333   0.73956   0.00000  Uiso   1.00
C868   C     0.16669   0.83334   0.92710   0.00000  Uiso   1.00
C869   C     0.16665   0.83332   0.68846   0.00000  Uiso   1.00
C870   C     0.16667   0.83334   0.97820   0.00000  Uiso   1.00
C871   C     0.02251   0.79297   0.85425   0.00000  Uiso   1.00
C872   C     0.31153   0.87327   0.85225   0.00000  Uiso   1.00
C873   C     0.31359   0.79084   0.84573   0.00000  Uiso   1.00
C874   C     0.01987   0.87501   0.84196   0.00000  Uiso   1.00
C875   C     0.29093   0.83206   0.84478   0.00000  Uiso   1.00
C876   C     0.04264   0.83402   0.84364   0.00000  Uiso   1.00
C877   C     0.18072   0.69050   0.87394   0.00000  Uiso   1.00
C878   C     0.15220   0.97622   0.79289   0.00000  Uiso   1.00
C879   C     0.15180   0.69069   0.79311   0.00000  Uiso   1.00
C880   C     0.17991   0.97611   0.87432   0.00000  Uiso   1.00
N881   N     0.16667   0.95240   0.83333   0.00000  Uiso   1.00
N882   N     0.16667   0.71427   0.83333   0.00000  Uiso   1.00
O883   O     0.10559   0.87154   0.83333   0.00000  Uiso   1.00
O884   O     0.22774   0.79513   0.83334   0.00000  Uiso   1.00
O885   O     0.22774   0.87154   0.83334   0.00000  Uiso   1.00
O886   O     0.10559   0.79513   0.83333   0.00000  Uiso   1.00
O887   O     0.16667   0.87155   0.76178   0.00000  Uiso   1.00
O888   O     0.16666   0.79512   0.90489   0.00000  Uiso   1.00
O889   O     0.16666   0.87155   0.90489   0.00000  Uiso   1.00
O890   O     0.16667   0.79512   0.76178   0.00000  Uiso   1.00
Zn891  Zn    0.16667   0.88437   0.83333   0.00000  Uiso   1.00
Zn892  Zn    0.16667   0.78229   0.83333   0.00000  Uiso   1.00
I893   I     0.05255   0.73615   0.89058   0.00000  Uiso   1.00
I894   I     0.28448   0.93026   0.88968   0.00000  Uiso   1.00
I895   I     0.28895   0.72454   0.83097   0.00000  Uiso   1.00
I896   I     0.04306   0.94023   0.82008   0.00000  Uiso   1.00
F897   F     0.19565   0.71261   0.91453   0.00000  Uiso   1.00
F898   F     0.13700   0.95409   0.75245   0.00000  Uiso   1.00
F899   F     0.13593   0.71307   0.75307   0.00000  Uiso   1.00
F900   F     0.19188   0.95403   0.91639   0.00000  Uiso   1.00
C901   C     0.41995   0.83358   0.83596   0.00000  Uiso   1.00
C902   C     0.58009   0.83296   0.83665   0.00000  Uiso   1.00
C903   C     0.49997   0.83333   0.73956   0.00000  Uiso   1.00
C904   C     0.50002   0.83334   0.92710   0.00000  Uiso   1.00
C905   C     0.49998   0.83332   0.68846   0.00000  Uiso   1.00
C906   C     0.50000   0.83334   0.97820   0.00000  Uiso   1.00
C907   C     0.35585   0.79297   0.85425   0.00000  Uiso   1.00
C908   C     0.64487   0.87327   0.85225   0.00000  Uiso   1.00
C909   C     0.64693   0.79084   0.84573   0.00000  Uiso   1.00
C910   C     0.35320   0.87501   0.84196   0.00000  Uiso   1.00
C911   C     0.62426   0.83206   0.84478   0.00000  Uiso   1.00
C912   C     0.37597   0.83402   0.84364   0.00000  Uiso   1.00
C913   C     0.51406   0.69050   0.87394   0.00000  Uiso   1.00
C914   C     0.48554   0.97622   0.79289   0.00000  Uiso   1.00
C915   C     0.48514   0.69069   0.79311   0.00000  Uiso   1.00
C916   C     0.51324   0.97611   0.87432   0.00000  Uiso   1.00
N917   N     0.50000   0.95240   0.83333   0.00000  Uiso   1.00
N918   N     0.50000   0.71427   0.83333   0.00000  Uiso   1.00
O919   O     0.43892   0.87154   0.83333   0.00000  Uiso   1.00
O920   O     0.56108   0.79513   0.83334   0.00000  Uiso   1.00
O921   O     0.56108   0.87154   0.83334   0.00000  Uiso   1.00
O922   O     0.43892   0.79513   0.83333   0.00000  Uiso   1.00
O923   O     0.50000   0.87155   0.76178   0.00000  Uiso   1.00
O924   O     0.50000   0.79512   0.90489   0.00000  Uiso   1.00
O925   O     0.50000   0.87155   0.90489   0.00000  Uiso   1.00
O926   O     0.50000   0.79512   0.76178   0.00000  Uiso   1.00
Zn927  Zn    0.50000   0.88437   0.83333   0.00000  Uiso   1.00
Zn928  Zn    0.50000   0.78229   0.83333   0.00000  Uiso   1.00
I929   I     0.38588   0.73615   0.89058   0.00000  Uiso   1.00
I930   I     0.61781   0.93026   0.88968   0.00000  Uiso   1.00
I931   I     0.62229   0.72454   0.83097   0.00000  Uiso   1.00
I932   I     0.37639   0.94023   0.82008   0.00000  Uiso   1.00
F933   F     0.52898   0.71261   0.91453   0.00000  Uiso   1.00
F934   F     0.47034   0.95409   0.75245   0.00000  Uiso   1.00
F935   F     0.46926   0.71307   0.75307   0.00000  Uiso   1.00
F936   F     0.52522   0.95403   0.91639   0.00000  Uiso   1.00
C937   C     0.75328   0.83358   0.83596   0.00000  Uiso   1.00
C938   C     0.91343   0.83296   0.83665   0.00000  Uiso   1.00
C939   C     0.83330   0.83333   0.73956   0.00000  Uiso   1.00
C940   C     0.83336   0.83334   0.92710   0.00000  Uiso   1.00
C941   C     0.83332   0.83332   0.68846   0.00000  Uiso   1.00
C942   C     0.83334   0.83334   0.97820   0.00000  Uiso   1.00
C943   C     0.68918   0.79297   0.85425   0.00000  Uiso   1.00
C944   C     0.97820   0.87327   0.85225   0.00000  Uiso   1.00
C945   C     0.98026   0.79084   0.84573   0.00000  Uiso   1.00
C946   C     0.68654   0.87501   0.84196   0.00000  Uiso   1.00
C947   C     0.95760   0.83206   0.84478   0.00000  Uiso   1.00
C948   C     0.70931   0.83402   0.84364   0.00000  Uiso   1.00
C949   C     0.84739   0.69050   0.87394   0.00000  Uiso   1.00
C950   C     0.81887   0.97622   0.79289   0.00000  Uiso   1.00
C951   C     0.81847   0.69069   0.79311   0.00000  Uiso   1.00
C952   C     0.84658   0.97611   0.87432   0.00000  Uiso   1.00
N953   N     0.83333   0.95240   0.83333   0.00000  Uiso   1.00
N954   N     0.83333   0.71427   0.83333   0.00000  Uiso   1.00
O955   O     0.77226   0.87154   0.83333   0.00000  Uiso   1.00
O956   O     0.89441   0.79513   0.83334   0.00000  Uiso   1.00
O957   O     0.89441   0.87154   0.83334   0.00000  Uiso   1.00
O958   O     0.77226   0.79513   0.83333   0.00000  Uiso   1.00
O959   O     0.83334   0.87155   0.76178   0.00000  Uiso   1.00
O960   O     0.83333   0.79512   0.90489   0.00000  Uiso   1.00
O961   O     0.83333   0.87155   0.90489   0.00000  Uiso   1.00
O962   O     0.83334   0.79512   0.76178   0.00000  Uiso   1.00
Zn963  Zn    0.83333   0.88437   0.83333   0.00000  Uiso   1.00
Zn964  Zn    0.83333   0.78229   0.83333   0.00000  Uiso   1.00
I965   I     0.71922   0.73615   0.89058   0.00000  Uiso   1.00
I966   I     0.95114   0.93026   0.88968   0.00000  Uiso   1.00
I967   I     0.95562   0.72454   0.83097   0.00000  Uiso   1.00
I968   I     0.70972   0.94023   0.82008   0.00000  Uiso   1.00
F969   F     0.86231   0.71261   0.91453   0.00000  Uiso   1.00
F970   F     0.80367   0.95409   0.75245   0.00000  Uiso   1.00
F971   F     0.80259   0.71307   0.75307   0.00000  Uiso   1.00
F972   F     0.85855   0.95403   0.91639   0.00000  Uiso   1.00
loop_
_geom_bond_atom_site_label_1
_geom_bond_atom_site_label_2
_geom_bond_distance
_geom_bond_site_symmetry_2
_ccdc_geom_bond_type
C1     O22     1.291   .     A
C1     C12     1.439   .     S
C1     O19     1.286   .     A
C2     O21     1.295   .     A
C2     C11     1.443   .     S
C2     O20     1.284   .     A
C3     O23     1.277   .     A
C3     O26     1.277   .     A
C3     C5      1.366   .     S
C4     O25     1.277   .     A
C4     O24     1.277   .     A
C4     C6      1.365   .     S
C5     C654    1.165   1_554 S
C6     C329    1.165   .     S
C7     I29     2.162   .     S
C7     C12     1.413   .     A
C7     C81     1.385   1_455 S
C8     I30     2.145   .     S
C8     C11     1.407   .     A
C8     C46     1.379   .     S
C9     C11     1.419   .     A
C9     I31     2.158   .     S
C9     C43     1.385   .     S
C10    C12     1.415   .     A
C10    I32     2.159   .     S
C10    C80     1.379   1_455 S
C13    F33     1.354   .     S
C13    N18     1.366   .     A
C13    C232    1.413   1_545 S
C14    F34     1.354   .     S
C14    N17     1.368   .     A
C14    C123    1.415   .     S
C15    N18     1.368   .     A
C15    F35     1.354   .     S
C15    C230    1.415   1_545 S
C16    F36     1.353   .     S
C16    N17     1.368   .     A
C16    C121    1.413   .     S
N17    Zn27    2.013   .     S
N18    Zn28    2.013   .     S
O19    Zn27    2.014   .     S
O20    Zn28    2.014   .     S
O21    Zn27    2.009   .     S
O22    Zn28    2.009   .     S
O23    Zn27    1.949   .     S
O24    Zn28    1.949   .     S
O25    Zn27    1.950   .     S
O26    Zn28    1.950   .     S
C37    O58     1.291   .     A
C37    C48     1.439   .     S
C37    O55     1.286   .     A
C38    O57     1.295   .     A
C38    C47     1.443   .     S
C38    O56     1.284   .     A
C39    O59     1.277   .     A
C39    O62     1.277   .     A
C39    C41     1.366   .     S
C40    O61     1.277   .     A
C40    O60     1.277   .     A
C40    C42     1.365   .     S
C41    C690    1.165   1_554 S
C42    C365    1.165   .     S
C43    I65     2.162   .     S
C43    C48     1.413   .     A
C44    I66     2.145   .     S
C44    C47     1.407   .     A
C44    C82     1.379   .     S
C45    C47     1.419   .     A
C45    I67     2.158   .     S
C45    C79     1.385   .     S
C46    C48     1.415   .     A
C46    I68     2.159   .     S
C49    F69     1.354   .     S
C49    N54     1.366   .     A
C49    C268    1.413   1_545 S
C50    F70     1.354   .     S
C50    N53     1.368   .     A
C50    C159    1.415   .     S
C51    N54     1.368   .     A
C51    F71     1.354   .     S
C51    C266    1.415   1_545 S
C52    F72     1.353   .     S
C52    N53     1.368   .     A
C52    C157    1.413   .     S
N53    Zn63    2.013   .     S
N54    Zn64    2.013   .     S
O55    Zn63    2.014   .     S
O56    Zn64    2.014   .     S
O57    Zn63    2.009   .     S
O58    Zn64    2.009   .     S
O59    Zn63    1.949   .     S
O60    Zn64    1.949   .     S
O61    Zn63    1.950   .     S
O62    Zn64    1.950   .     S
C73    O94     1.291   .     A
C73    C84     1.439   .     S
C73    O91     1.286   .     A
C74    O93     1.295   .     A
C74    C83     1.443   .     S
C74    O92     1.284   .     A
C75    O95     1.277   .     A
C75    O98     1.277   .     A
C75    C77     1.366   .     S
C76    O97     1.277   .     A
C76    O96     1.277   .     A
C76    C78     1.365   .     S
C77    C726    1.165   1_554 S
C78    C401    1.165   .     S
C79    I101    2.162   .     S
C79    C84     1.413   .     A
C80    I102    2.145   .     S
C80    C83     1.407   .     A
C80    C10     1.379   1_655 S
C81    C83     1.419   .     A
C81    I103    2.158   .     S
C81    C7      1.385   1_655 S
C82    C84     1.415   .     A
C82    I104    2.159   .     S
C85    F105    1.354   .     S
C85    N90     1.366   .     A
C85    C304    1.413   1_545 S
C86    F106    1.354   .     S
C86    N89     1.368   .     A
C86    C195    1.415   .     S
C87    N90     1.368   .     A
C87    F107    1.354   .     S
C87    C302    1.415   1_545 S
C88    F108    1.353   .     S
C88    N89     1.368   .     A
C88    C193    1.413   .     S
N89    Zn99    2.013   .     S
N90    Zn100   2.013   .     S
O91    Zn99    2.014   .     S
O92    Zn100   2.014   .     S
O93    Zn99    2.009   .     S
O94    Zn100   2.009   .     S
O95    Zn99    1.949   .     S
O96    Zn100   1.949   .     S
O97    Zn99    1.950   .     S
O98    Zn100   1.950   .     S
C109   O130    1.291   .     A
C109   C120    1.439   .     S
C109   O127    1.286   .     A
C110   O129    1.295   .     A
C110   C119    1.443   .     S
C110   O128    1.284   .     A
C111   O131    1.277   .     A
C111   O134    1.277   .     A
C111   C113    1.366   .     S
C112   O133    1.277   .     A
C112   O132    1.277   .     A
C112   C114    1.365   .     S
C113   C762    1.165   1_554 S
C114   C437    1.165   .     S
C115   I137    2.162   .     S
C115   C120    1.413   .     A
C115   C189    1.385   1_455 S
C116   I138    2.145   .     S
C116   C119    1.407   .     A
C116   C154    1.379   .     S
C117   C119    1.419   .     A
C117   I139    2.158   .     S
C117   C151    1.385   .     S
C118   C120    1.415   .     A
C118   I140    2.159   .     S
C118   C188    1.379   1_455 S
C121   F141    1.354   .     S
C121   N126    1.366   .     A
C122   F142    1.354   .     S
C122   N125    1.368   .     A
C122   C231    1.415   .     S
C123   N126    1.368   .     A
C123   F143    1.354   .     S
C124   F144    1.353   .     S
C124   N125    1.368   .     A
C124   C229    1.413   .     S
N125   Zn135   2.013   .     S
N126   Zn136   2.013   .     S
O127   Zn135   2.014   .     S
O128   Zn136   2.014   .     S
O129   Zn135   2.009   .     S
O130   Zn136   2.009   .     S
O131   Zn135   1.949   .     S
O132   Zn136   1.949   .     S
O133   Zn135   1.950   .     S
O134   Zn136   1.950   .     S
C145   O166    1.291   .     A
C145   C156    1.439   .     S
C145   O163    1.286   .     A
C146   O165    1.295   .     A
C146   C155    1.443   .     S
C146   O164    1.284   .     A
C147   O167    1.277   .     A
C147   O170    1.277   .     A
C147   C149    1.366   .     S
C148   O169    1.277   .     A
C148   O168    1.277   .     A
C148   C150    1.365   .     S
C149   C798    1.165   1_554 S
C150   C473    1.165   .     S
C151   I173    2.162   .     S
C151   C156    1.413   .     A
C152   I174    2.145   .     S
C152   C155    1.407   .     A
C152   C190    1.379   .     S
C153   C155    1.419   .     A
C153   I175    2.158   .     S
C153   C187    1.385   .     S
C154   C156    1.415   .     A
C154   I176    2.159   .     S
C157   F177    1.354   .     S
C157   N162    1.366   .     A
C158   F178    1.354   .     S
C158   N161    1.368   .     A
C158   C267    1.415   .     S
C159   N162    1.368   .     A
C159   F179    1.354   .     S
C160   F180    1.353   .     S
C160   N161    1.368   .     A
C160   C265    1.413   .     S
N161   Zn171   2.013   .     S
N162   Zn172   2.013   .     S
O163   Zn171   2.014   .     S
O164   Zn172   2.014   .     S
O165   Zn171   2.009   .     S
O166   Zn172   2.009   .     S
O167   Zn171   1.949   .     S
O168   Zn172   1.949   .     S
O169   Zn171   1.950   .     S
O170   Zn172   1.950   .     S
C181   O202    1.291   .     A
C181   C192    1.439   .     S
C181   O199    1.286   .     A
C182   O201    1.295   .     A
C182   C191    1.443   .     S
C182   O200    1.284   .     A
C183   O203    1.277   .     A
C183   O206    1.277   .     A
C183   C185    1.366   .     S
C184   O205    1.277   .     A
C184   O204    1.277   .     A
C184   C186    1.365   .     S
C185   C834    1.165   1_554 S
C186   C509    1.165   .     S
C187   I209    2.162   .     S
C187   C192    1.413   .     A
C188   I210    2.145   .     S
C188   C191    1.407   .     A
C188   C118    1.379   1_655 S
C189   C191    1.419   .     A
C189   I211    2.158   .     S
C189   C115    1.385   1_655 S
C190   C192    1.415   .     A
C190   I212    2.159   .     S
C193   F213    1.354   .     S
C193   N198    1.366   .     A
C194   F214    1.354   .     S
C194   N197    1.368   .     A
C194   C303    1.415   .     S
C195   N198    1.368   .     A
C195   F215    1.354   .     S
C196   F216    1.353   .     S
C196   N197    1.368   .     A
C196   C301    1.413   .     S
N197   Zn207   2.013   .     S
N198   Zn208   2.013   .     S
O199   Zn207   2.014   .     S
O200   Zn208   2.014   .     S
O201   Zn207   2.009   .     S
O202   Zn208   2.009   .     S
O203   Zn207   1.949   .     S
O204   Zn208   1.949   .     S
O205   Zn207   1.950   .     S
O206   Zn208   1.950   .     S
C217   O238    1.291   .     A
C217   C228    1.439   .     S
C217   O235    1.286   .     A
C218   O237    1.295   .     A
C218   C227    1.443   .     S
C218   O236    1.284   .     A
C219   O239    1.277   .     A
C219   O242    1.277   .     A
C219   C221    1.366   .     S
C220   O241    1.277   .     A
C220   O240    1.277   .     A
C220   C222    1.365   .     S
C221   C870    1.165   1_554 S
C222   C545    1.165   .     S
C223   I245    2.162   .     S
C223   C228    1.413   .     A
C223   C297    1.385   1_455 S
C224   I246    2.145   .     S
C224   C227    1.407   .     A
C224   C262    1.379   .     S
C225   C227    1.419   .     A
C225   I247    2.158   .     S
C225   C259    1.385   .     S
C226   C228    1.415   .     A
C226   I248    2.159   .     S
C226   C296    1.379   1_455 S
C229   F249    1.354   .     S
C229   N234    1.366   .     A
C230   F250    1.354   .     S
C230   N233    1.368   .     A
C230   C15     1.415   1_565 S
C231   N234    1.368   .     A
C231   F251    1.354   .     S
C232   F252    1.353   .     S
C232   N233    1.368   .     A
C232   C13     1.413   1_565 S
N233   Zn243   2.013   .     S
N234   Zn244   2.013   .     S
O235   Zn243   2.014   .     S
O236   Zn244   2.014   .     S
O237   Zn243   2.009   .     S
O238   Zn244   2.009   .     S
O239   Zn243   1.949   .     S
O240   Zn244   1.949   .     S
O241   Zn243   1.950   .     S
O242   Zn244   1.950   .     S
C253   O274    1.291   .     A
C253   C264    1.439   .     S
C253   O271    1.286   .     A
C254   O273    1.295   .     A
C254   C263    1.443   .     S
C254   O272    1.284   .     A
C255   O275    1.277   .     A
C255   O278    1.277   .     A
C255   C257    1.366   .     S
C256   O277    1.277   .     A
C256   O276    1.277   .     A
C256   C258    1.365   .     S
C257   C906    1.165   1_554 S
C258   C581    1.165   .     S
C259   I281    2.162   .     S
C259   C264    1.413   .     A
C260   I282    2.145   .     S
C260   C263    1.407   .     A
C260   C298    1.379   .     S
C261   C263    1.419   .     A
C261   I283    2.158   .     S
C261   C295    1.385   .     S
C262   C264    1.415   .     A
C262   I284    2.159   .     S
C265   F285    1.354   .     S
C265   N270    1.366   .     A
C266   F286    1.354   .     S
C266   N269    1.368   .     A
C266   C51     1.415   1_565 S
C267   N270    1.368   .     A
C267   F287    1.354   .     S
C268   F288    1.353   .     S
C268   N269    1.368   .     A
C268   C49     1.413   1_565 S
N269   Zn279   2.013   .     S
N270   Zn280   2.013   .     S
O271   Zn279   2.014   .     S
O272   Zn280   2.014   .     S
O273   Zn279   2.009   .     S
O274   Zn280   2.009   .     S
O275   Zn279   1.949   .     S
O276   Zn280   1.949   .     S
O277   Zn279   1.950   .     S
O278   Zn280   1.950   .     S
C289   O310    1.291   .     A
C289   C300    1.439   .     S
C289   O307    1.286   .     A
C290   O309    1.295   .     A
C290   C299    1.443   .     S
C290   O308    1.284   .     A
C291   O311    1.277   .     A
C291   O314    1.277   .     A
C291   C293    1.366   .     S
C292   O313    1.277   .     A
C292   O312    1.277   .     A
C292   C294    1.365   .     S
C293   C942    1.165   1_554 S
C294   C617    1.165   .     S
C295   I317    2.162   .     S
C295   C300    1.413   .     A
C296   I318    2.145   .     S
C296   C299    1.407   .     A
C296   C226    1.379   1_655 S
C297   C299    1.419   .     A
C297   I319    2.158   .     S
C297   C223    1.385   1_655 S
C298   C300    1.415   .     A
C298   I320    2.159   .     S
C301   F321    1.354   .     S
C301   N306    1.366   .     A
C302   F322    1.354   .     S
C302   N305    1.368   .     A
C302   C87     1.415   1_565 S
C303   N306    1.368   .     A
C303   F323    1.354   .     S
C304   F324    1.353   .     S
C304   N305    1.368   .     A
C304   C85     1.413   1_565 S
N305   Zn315   2.013   .     S
N306   Zn316   2.013   .     S
O307   Zn315   2.014   .     S
O308   Zn316   2.014   .     S
O309   Zn315   2.009   .     S
O310   Zn316   2.009   .     S
O311   Zn315   1.949   .     S
O312   Zn316   1.949   .     S
O313   Zn315   1.950   .     S
O314   Zn316   1.950   .     S
C325   O346    1.291   .     A
C325   C336    1.439   .     S
C325   O343    1.286   .     A
C326   O345    1.295   .     A
C326   C335    1.443   .     S
C326   O344    1.284   .     A
C327   O347    1.277   .     A
C327   O350    1.277   .     A
C327   C329    1.366   .     S
C328   O349    1.277   .     A
C328   O348    1.277   .     A
C328   C330    1.365   .     S
C330   C653    1.165   .     S
C331   I353    2.162   .     S
C331   C336    1.413   .     A
C331   C405    1.385   1_455 S
C332   I354    2.145   .     S
C332   C335    1.407   .     A
C332   C370    1.379   .     S
C333   C335    1.419   .     A
C333   I355    2.158   .     S
C333   C367    1.385   .     S
C334   C336    1.415   .     A
C334   I356    2.159   .     S
C334   C404    1.379   1_455 S
C337   F357    1.354   .     S
C337   N342    1.366   .     A
C337   C556    1.413   1_545 S
C338   F358    1.354   .     S
C338   N341    1.368   .     A
C338   C447    1.415   .     S
C339   N342    1.368   .     A
C339   F359    1.354   .     S
C339   C554    1.415   1_545 S
C340   F360    1.353   .     S
C340   N341    1.368   .     A
C340   C445    1.413   .     S
N341   Zn351   2.013   .     S
N342   Zn352   2.013   .     S
O343   Zn351   2.014   .     S
O344   Zn352   2.014   .     S
O345   Zn351   2.009   .     S
O346   Zn352   2.009   .     S
O347   Zn351   1.949   .     S
O348   Zn352   1.949   .     S
O349   Zn351   1.950   .     S
O350   Zn352   1.950   .     S
C361   O382    1.291   .     A
C361   C372    1.439   .     S
C361   O379    1.286   .     A
C362   O381    1.295   .     A
C362   C371    1.443   .     S
C362   O380    1.284   .     A
C363   O383    1.277   .     A
C363   O386    1.277   .     A
C363   C365    1.366   .     S
C364   O385    1.277   .     A
C364   O384    1.277   .     A
C364   C366    1.365   .     S
C366   C689    1.165   .     S
C367   I389    2.162   .     S
C367   C372    1.413   .     A
C368   I390    2.145   .     S
C368   C371    1.407   .     A
C368   C406    1.379   .     S
C369   C371    1.419   .     A
C369   I391    2.158   .     S
C369   C403    1.385   .     S
C370   C372    1.415   .     A
C370   I392    2.159   .     S
C373   F393    1.354   .     S
C373   N378    1.366   .     A
C373   C592    1.413   1_545 S
C374   F394    1.354   .     S
C374   N377    1.368   .     A
C374   C483    1.415   .     S
C375   N378    1.368   .     A
C375   F395    1.354   .     S
C375   C590    1.415   1_545 S
C376   F396    1.353   .     S
C376   N377    1.368   .     A
C376   C481    1.413   .     S
N377   Zn387   2.013   .     S
N378   Zn388   2.013   .     S
O379   Zn387   2.014   .     S
O380   Zn388   2.014   .     S
O381   Zn387   2.009   .     S
O382   Zn388   2.009   .     S
O383   Zn387   1.949   .     S
O384   Zn388   1.949   .     S
O385   Zn387   1.950   .     S
O386   Zn388   1.950   .     S
C397   O418    1.291   .     A
C397   C408    1.439   .     S
C397   O415    1.286   .     A
C398   O417    1.295   .     A
C398   C407    1.443   .     S
C398   O416    1.284   .     A
C399   O419    1.277   .     A
C399   O422    1.277   .     A
C399   C401    1.366   .     S
C400   O421    1.277   .     A
C400   O420    1.277   .     A
C400   C402    1.365   .     S
C402   C725    1.165   .     S
C403   I425    2.162   .     S
C403   C408    1.413   .     A
C404   I426    2.145   .     S
C404   C407    1.407   .     A
C404   C334    1.379   1_655 S
C405   C407    1.419   .     A
C405   I427    2.158   .     S
C405   C331    1.385   1_655 S
C406   C408    1.415   .     A
C406   I428    2.159   .     S
C409   F429    1.354   .     S
C409   N414    1.366   .     A
C409   C628    1.413   1_545 S
C410   F430    1.354   .     S
C410   N413    1.368   .     A
C410   C519    1.415   .     S
C411   N414    1.368   .     A
C411   F431    1.354   .     S
C411   C626    1.415   1_545 S
C412   F432    1.353   .     S
C412   N413    1.368   .     A
C412   C517    1.413   .     S
N413   Zn423   2.013   .     S
N414   Zn424   2.013   .     S
O415   Zn423   2.014   .     S
O416   Zn424   2.014   .     S
O417   Zn423   2.009   .     S
O418   Zn424   2.009   .     S
O419   Zn423   1.949   .     S
O420   Zn424   1.949   .     S
O421   Zn423   1.950   .     S
O422   Zn424   1.950   .     S
C433   O454    1.291   .     A
C433   C444    1.439   .     S
C433   O451    1.286   .     A
C434   O453    1.295   .     A
C434   C443    1.443   .     S
C434   O452    1.284   .     A
C435   O455    1.277   .     A
C435   O458    1.277   .     A
C435   C437    1.366   .     S
C436   O457    1.277   .     A
C436   O456    1.277   .     A
C436   C438    1.365   .     S
C438   C761    1.165   .     S
C439   I461    2.162   .     S
C439   C444    1.413   .     A
C439   C513    1.385   1_455 S
C440   I462    2.145   .     S
C440   C443    1.407   .     A
C440   C478    1.379   .     S
C441   C443    1.419   .     A
C441   I463    2.158   .     S
C441   C475    1.385   .     S
C442   C444    1.415   .     A
C442   I464    2.159   .     S
C442   C512    1.379   1_455 S
C445   F465    1.354   .     S
C445   N450    1.366   .     A
C446   F466    1.354   .     S
C446   N449    1.368   .     A
C446   C555    1.415   .     S
C447   N450    1.368   .     A
C447   F467    1.354   .     S
C448   F468    1.353   .     S
C448   N449    1.368   .     A
C448   C553    1.413   .     S
N449   Zn459   2.013   .     S
N450   Zn460   2.013   .     S
O451   Zn459   2.014   .     S
O452   Zn460   2.014   .     S
O453   Zn459   2.009   .     S
O454   Zn460   2.009   .     S
O455   Zn459   1.949   .     S
O456   Zn460   1.949   .     S
O457   Zn459   1.950   .     S
O458   Zn460   1.950   .     S
C469   O490    1.291   .     A
C469   C480    1.439   .     S
C469   O487    1.286   .     A
C470   O489    1.295   .     A
C470   C479    1.443   .     S
C470   O488    1.284   .     A
C471   O491    1.277   .     A
C471   O494    1.277   .     A
C471   C473    1.366   .     S
C472   O493    1.277   .     A
C472   O492    1.277   .     A
C472   C474    1.365   .     S
C474   C797    1.165   .     S
C475   I497    2.162   .     S
C475   C480    1.413   .     A
C476   I498    2.145   .     S
C476   C479    1.407   .     A
C476   C514    1.379   .     S
C477   C479    1.419   .     A
C477   I499    2.158   .     S
C477   C511    1.385   .     S
C478   C480    1.415   .     A
C478   I500    2.159   .     S
C481   F501    1.354   .     S
C481   N486    1.366   .     A
C482   F502    1.354   .     S
C482   N485    1.368   .     A
C482   C591    1.415   .     S
C483   N486    1.368   .     A
C483   F503    1.354   .     S
C484   F504    1.353   .     S
C484   N485    1.368   .     A
C484   C589    1.413   .     S
N485   Zn495   2.013   .     S
N486   Zn496   2.013   .     S
O487   Zn495   2.014   .     S
O488   Zn496   2.014   .     S
O489   Zn495   2.009   .     S
O490   Zn496   2.009   .     S
O491   Zn495   1.949   .     S
O492   Zn496   1.949   .     S
O493   Zn495   1.950   .     S
O494   Zn496   1.950   .     S
C505   O526    1.291   .     A
C505   C516    1.439   .     S
C505   O523    1.286   .     A
C506   O525    1.295   .     A
C506   C515    1.443   .     S
C506   O524    1.284   .     A
C507   O527    1.277   .     A
C507   O530    1.277   .     A
C507   C509    1.366   .     S
C508   O529    1.277   .     A
C508   O528    1.277   .     A
C508   C510    1.365   .     S
C510   C833    1.165   .     S
C511   I533    2.162   .     S
C511   C516    1.413   .     A
C512   I534    2.145   .     S
C512   C515    1.407   .     A
C512   C442    1.379   1_655 S
C513   C515    1.419   .     A
C513   I535    2.158   .     S
C513   C439    1.385   1_655 S
C514   C516    1.415   .     A
C514   I536    2.159   .     S
C517   F537    1.354   .     S
C517   N522    1.366   .     A
C518   F538    1.354   .     S
C518   N521    1.368   .     A
C518   C627    1.415   .     S
C519   N522    1.368   .     A
C519   F539    1.354   .     S
C520   F540    1.353   .     S
C520   N521    1.368   .     A
C520   C625    1.413   .     S
N521   Zn531   2.013   .     S
N522   Zn532   2.013   .     S
O523   Zn531   2.014   .     S
O524   Zn532   2.014   .     S
O525   Zn531   2.009   .     S
O526   Zn532   2.009   .     S
O527   Zn531   1.949   .     S
O528   Zn532   1.949   .     S
O529   Zn531   1.950   .     S
O530   Zn532   1.950   .     S
C541   O562    1.291   .     A
C541   C552    1.439   .     S
C541   O559    1.286   .     A
C542   O561    1.295   .     A
C542   C551    1.443   .     S
C542   O560    1.284   .     A
C543   O563    1.277   .     A
C543   O566    1.277   .     A
C543   C545    1.366   .     S
C544   O565    1.277   .     A
C544   O564    1.277   .     A
C544   C546    1.365   .     S
C546   C869    1.165   .     S
C547   I569    2.162   .     S
C547   C552    1.413   .     A
C547   C621    1.385   1_455 S
C548   I570    2.145   .     S
C548   C551    1.407   .     A
C548   C586    1.379   .     S
C549   C551    1.419   .     A
C549   I571    2.158   .     S
C549   C583    1.385   .     S
C550   C552    1.415   .     A
C550   I572    2.159   .     S
C550   C620    1.379   1_455 S
C553   F573    1.354   .     S
C553   N558    1.366   .     A
C554   F574    1.354   .     S
C554   N557    1.368   .     A
C554   C339    1.415   1_565 S
C555   N558    1.368   .     A
C555   F575    1.354   .     S
C556   F576    1.353   .     S
C556   N557    1.368   .     A
C556   C337    1.413   1_565 S
N557   Zn567   2.013   .     S
N558   Zn568   2.013   .     S
O559   Zn567   2.014   .     S
O560   Zn568   2.014   .     S
O561   Zn567   2.009   .     S
O562   Zn568   2.009   .     S
O563   Zn567   1.949   .     S
O564   Zn568   1.949   .     S
O565   Zn567   1.950   .     S
O566   Zn568   1.950   .     S
C577   O598    1.291   .     A
C577   C588    1.439   .     S
C577   O595    1.286   .     A
C578   O597    1.295   .     A
C578   C587    1.443   .     S
C578   O596    1.284   .     A
C579   O599    1.277   .     A
C579   O602    1.277   .     A
C579   C581    1.366   .     S
C580   O601    1.277   .     A
C580   O600    1.277   .     A
C580   C582    1.365   .     S
C582   C905    1.165   .     S
C583   I605    2.162   .     S
C583   C588    1.413   .     A
C584   I606    2.145   .     S
C584   C587    1.407   .     A
C584   C622    1.379   .     S
C585   C587    1.419   .     A
C585   I607    2.158   .     S
C585   C619    1.385   .     S
C586   C588    1.415   .     A
C586   I608    2.159   .     S
C589   F609    1.354   .     S
C589   N594    1.366   .     A
C590   F610    1.354   .     S
C590   N593    1.368   .     A
C590   C375    1.415   1_565 S
C591   N594    1.368   .     A
C591   F611    1.354   .     S
C592   F612    1.353   .     S
C592   N593    1.368   .     A
C592   C373    1.413   1_565 S
N593   Zn603   2.013   .     S
N594   Zn604   2.013   .     S
O595   Zn603   2.014   .     S
O596   Zn604   2.014   .     S
O597   Zn603   2.009   .     S
O598   Zn604   2.009   .     S
O599   Zn603   1.949   .     S
O600   Zn604   1.949   .     S
O601   Zn603   1.950   .     S
O602   Zn604   1.950   .     S
C613   O634    1.291   .     A
C613   C624    1.439   .     S
C613   O631    1.286   .     A
C614   O633    1.295   .     A
C614   C623    1.443   .     S
C614   O632    1.284   .     A
C615   O635    1.277   .     A
C615   O638    1.277   .     A
C615   C617    1.366   .     S
C616   O637    1.277   .     A
C616   O636    1.277   .     A
C616   C618    1.365   .     S
C618   C941    1.165   .     S
C619   I641    2.162   .     S
C619   C624    1.413   .     A
C620   I642    2.145   .     S
C620   C623    1.407   .     A
C620   C550    1.379   1_655 S
C621   C623    1.419   .     A
C621   I643    2.158   .     S
C621   C547    1.385   1_655 S
C622   C624    1.415   .     A
C622   I644    2.159   .     S
C625   F645    1.354   .     S
C625   N630    1.366   .     A
C626   F646    1.354   .     S
C626   N629    1.368   .     A
C626   C411    1.415   1_565 S
C627   N630    1.368   .     A
C627   F647    1.354   .     S
C628   F648    1.353   .     S
C628   N629    1.368   .     A
C628   C409    1.413   1_565 S
N629   Zn639   2.013   .     S
N630   Zn640   2.013   .     S
O631   Zn639   2.014   .     S
O632   Zn640   2.014   .     S
O633   Zn639   2.009   .     S
O634   Zn640   2.009   .     S
O635   Zn639   1.949   .     S
O636   Zn640   1.949   .     S
O637   Zn639   1.950   .     S
O638   Zn640   1.950   .     S
C649   O670    1.291   .     A
C649   C660    1.439   .     S
C649   O667    1.286   .     A
C650   O669    1.295   .     A
C650   C659    1.443   .     S
C650   O668    1.284   .     A
C651   O671    1.277   .     A
C651   O674    1.277   .     A
C651   C653    1.366   .     S
C652   O673    1.277   .     A
C652   O672    1.277   .     A
C652   C654    1.365   .     S
C654   C5      1.165   1_556 S
C655   I677    2.162   .     S
C655   C660    1.413   .     A
C655   C729    1.385   1_455 S
C656   I678    2.145   .     S
C656   C659    1.407   .     A
C656   C694    1.379   .     S
C657   C659    1.419   .     A
C657   I679    2.158   .     S
C657   C691    1.385   .     S
C658   C660    1.415   .     A
C658   I680    2.159   .     S
C658   C728    1.379   1_455 S
C661   F681    1.354   .     S
C661   N666    1.366   .     A
C661   C880    1.413   1_545 S
C662   F682    1.354   .     S
C662   N665    1.368   .     A
C662   C771    1.415   .     S
C663   N666    1.368   .     A
C663   F683    1.354   .     S
C663   C878    1.415   1_545 S
C664   F684    1.353   .     S
C664   N665    1.368   .     A
C664   C769    1.413   .     S
N665   Zn675   2.013   .     S
N666   Zn676   2.013   .     S
O667   Zn675   2.014   .     S
O668   Zn676   2.014   .     S
O669   Zn675   2.009   .     S
O670   Zn676   2.009   .     S
O671   Zn675   1.949   .     S
O672   Zn676   1.949   .     S
O673   Zn675   1.950   .     S
O674   Zn676   1.950   .     S
C685   O706    1.291   .     A
C685   C696    1.439   .     S
C685   O703    1.286   .     A
C686   O705    1.295   .     A
C686   C695    1.443   .     S
C686   O704    1.284   .     A
C687   O707    1.277   .     A
C687   O710    1.277   .     A
C687   C689    1.366   .     S
C688   O709    1.277   .     A
C688   O708    1.277   .     A
C688   C690    1.365   .     S
C690   C41     1.165   1_556 S
C691   I713    2.162   .     S
C691   C696    1.413   .     A
C692   I714    2.145   .     S
C692   C695    1.407   .     A
C692   C730    1.379   .     S
C693   C695    1.419   .     A
C693   I715    2.158   .     S
C693   C727    1.385   .     S
C694   C696    1.415   .     A
C694   I716    2.159   .     S
C697   F717    1.354   .     S
C697   N702    1.366   .     A
C697   C916    1.413   1_545 S
C698   F718    1.354   .     S
C698   N701    1.368   .     A
C698   C807    1.415   .     S
C699   N702    1.368   .     A
C699   F719    1.354   .     S
C699   C914    1.415   1_545 S
C700   F720    1.353   .     S
C700   N701    1.368   .     A
C700   C805    1.413   .     S
N701   Zn711   2.013   .     S
N702   Zn712   2.013   .     S
O703   Zn711   2.014   .     S
O704   Zn712   2.014   .     S
O705   Zn711   2.009   .     S
O706   Zn712   2.009   .     S
O707   Zn711   1.949   .     S
O708   Zn712   1.949   .     S
O709   Zn711   1.950   .     S
O710   Zn712   1.950   .     S
C721   O742    1.291   .     A
C721   C732    1.439   .     S
C721   O739    1.286   .     A
C722   O741    1.295   .     A
C722   C731    1.443   .     S
C722   O740    1.284   .     A
C723   O743    1.277   .     A
C723   O746    1.277   .     A
C723   C725    1.366   .     S
C724   O745    1.277   .     A
C724   O744    1.277   .     A
C724   C726    1.365   .     S
C726   C77     1.165   1_556 S
C727   I749    2.162   .     S
C727   C732    1.413   .     A
C728   I750    2.145   .     S
C728   C731    1.407   .     A
C728   C658    1.379   1_655 S
C729   C731    1.419   .     A
C729   I751    2.158   .     S
C729   C655    1.385   1_655 S
C730   C732    1.415   .     A
C730   I752    2.159   .     S
C733   F753    1.354   .     S
C733   N738    1.366   .     A
C733   C952    1.413   1_545 S
C734   F754    1.354   .     S
C734   N737    1.368   .     A
C734   C843    1.415   .     S
C735   N738    1.368   .     A
C735   F755    1.354   .     S
C735   C950    1.415   1_545 S
C736   F756    1.353   .     S
C736   N737    1.368   .     A
C736   C841    1.413   .     S
N737   Zn747   2.013   .     S
N738   Zn748   2.013   .     S
O739   Zn747   2.014   .     S
O740   Zn748   2.014   .     S
O741   Zn747   2.009   .     S
O742   Zn748   2.009   .     S
O743   Zn747   1.949   .     S
O744   Zn748   1.949   .     S
O745   Zn747   1.950   .     S
O746   Zn748   1.950   .     S
C757   O778    1.291   .     A
C757   C768    1.439   .     S
C757   O775    1.286   .     A
C758   O777    1.295   .     A
C758   C767    1.443   .     S
C758   O776    1.284   .     A
C759   O779    1.277   .     A
C759   O782    1.277   .     A
C759   C761    1.366   .     S
C760   O781    1.277   .     A
C760   O780    1.277   .     A
C760   C762    1.365   .     S
C762   C113    1.165   1_556 S
C763   I785    2.162   .     S
C763   C768    1.413   .     A
C763   C837    1.385   1_455 S
C764   I786    2.145   .     S
C764   C767    1.407   .     A
C764   C802    1.379   .     S
C765   C767    1.419   .     A
C765   I787    2.158   .     S
C765   C799    1.385   .     S
C766   C768    1.415   .     A
C766   I788    2.159   .     S
C766   C836    1.379   1_455 S
C769   F789    1.354   .     S
C769   N774    1.366   .     A
C770   F790    1.354   .     S
C770   N773    1.368   .     A
C770   C879    1.415   .     S
C771   N774    1.368   .     A
C771   F791    1.354   .     S
C772   F792    1.353   .     S
C772   N773    1.368   .     A
C772   C877    1.413   .     S
N773   Zn783   2.013   .     S
N774   Zn784   2.013   .     S
O775   Zn783   2.014   .     S
O776   Zn784   2.014   .     S
O777   Zn783   2.009   .     S
O778   Zn784   2.009   .     S
O779   Zn783   1.949   .     S
O780   Zn784   1.949   .     S
O781   Zn783   1.950   .     S
O782   Zn784   1.950   .     S
C793   O814    1.291   .     A
C793   C804    1.439   .     S
C793   O811    1.286   .     A
C794   O813    1.295   .     A
C794   C803    1.443   .     S
C794   O812    1.284   .     A
C795   O815    1.277   .     A
C795   O818    1.277   .     A
C795   C797    1.366   .     S
C796   O817    1.277   .     A
C796   O816    1.277   .     A
C796   C798    1.365   .     S
C798   C149    1.165   1_556 S
C799   I821    2.162   .     S
C799   C804    1.413   .     A
C800   I822    2.145   .     S
C800   C803    1.407   .     A
C800   C838    1.379   .     S
C801   C803    1.419   .     A
C801   I823    2.158   .     S
C801   C835    1.385   .     S
C802   C804    1.415   .     A
C802   I824    2.159   .     S
C805   F825    1.354   .     S
C805   N810    1.366   .     A
C806   F826    1.354   .     S
C806   N809    1.368   .     A
C806   C915    1.415   .     S
C807   N810    1.368   .     A
C807   F827    1.354   .     S
C808   F828    1.353   .     S
C808   N809    1.368   .     A
C808   C913    1.413   .     S
N809   Zn819   2.013   .     S
N810   Zn820   2.013   .     S
O811   Zn819   2.014   .     S
O812   Zn820   2.014   .     S
O813   Zn819   2.009   .     S
O814   Zn820   2.009   .     S
O815   Zn819   1.949   .     S
O816   Zn820   1.949   .     S
O817   Zn819   1.950   .     S
O818   Zn820   1.950   .     S
C829   O850    1.291   .     A
C829   C840    1.439   .     S
C829   O847    1.286   .     A
C830   O849    1.295   .     A
C830   C839    1.443   .     S
C830   O848    1.284   .     A
C831   O851    1.277   .     A
C831   O854    1.277   .     A
C831   C833    1.366   .     S
C832   O853    1.277   .     A
C832   O852    1.277   .     A
C832   C834    1.365   .     S
C834   C185    1.165   1_556 S
C835   I857    2.162   .     S
C835   C840    1.413   .     A
C836   I858    2.145   .     S
C836   C839    1.407   .     A
C836   C766    1.379   1_655 S
C837   C839    1.419   .     A
C837   I859    2.158   .     S
C837   C763    1.385   1_655 S
C838   C840    1.415   .     A
C838   I860    2.159   .     S
C841   F861    1.354   .     S
C841   N846    1.366   .     A
C842   F862    1.354   .     S
C842   N845    1.368   .     A
C842   C951    1.415   .     S
C843   N846    1.368   .     A
C843   F863    1.354   .     S
C844   F864    1.353   .     S
C844   N845    1.368   .     A
C844   C949    1.413   .     S
N845   Zn855   2.013   .     S
N846   Zn856   2.013   .     S
O847   Zn855   2.014   .     S
O848   Zn856   2.014   .     S
O849   Zn855   2.009   .     S
O850   Zn856   2.009   .     S
O851   Zn855   1.949   .     S
O852   Zn856   1.949   .     S
O853   Zn855   1.950   .     S
O854   Zn856   1.950   .     S
C865   O886    1.291   .     A
C865   C876    1.439   .     S
C865   O883    1.286   .     A
C866   O885    1.295   .     A
C866   C875    1.443   .     S
C866   O884    1.284   .     A
C867   O887    1.277   .     A
C867   O890    1.277   .     A
C867   C869    1.366   .     S
C868   O889    1.277   .     A
C868   O888    1.277   .     A
C868   C870    1.365   .     S
C870   C221    1.165   1_556 S
C871   I893    2.162   .     S
C871   C876    1.413   .     A
C871   C945    1.385   1_455 S
C872   I894    2.145   .     S
C872   C875    1.407   .     A
C872   C910    1.379   .     S
C873   C875    1.419   .     A
C873   I895    2.158   .     S
C873   C907    1.385   .     S
C874   C876    1.415   .     A
C874   I896    2.159   .     S
C874   C944    1.379   1_455 S
C877   F897    1.354   .     S
C877   N882    1.366   .     A
C878   F898    1.354   .     S
C878   N881    1.368   .     A
C878   C663    1.415   1_565 S
C879   N882    1.368   .     A
C879   F899    1.354   .     S
C880   F900    1.353   .     S
C880   N881    1.368   .     A
C880   C661    1.413   1_565 S
N881   Zn891   2.013   .     S
N882   Zn892   2.013   .     S
O883   Zn891   2.014   .     S
O884   Zn892   2.014   .     S
O885   Zn891   2.009   .     S
O886   Zn892   2.009   .     S
O887   Zn891   1.949   .     S
O888   Zn892   1.949   .     S
O889   Zn891   1.950   .     S
O890   Zn892   1.950   .     S
C901   O922    1.291   .     A
C901   C912    1.439   .     S
C901   O919    1.286   .     A
C902   O921    1.295   .     A
C902   C911    1.443   .     S
C902   O920    1.284   .     A
C903   O923    1.277   .     A
C903   O926    1.277   .     A
C903   C905    1.366   .     S
C904   O925    1.277   .     A
C904   O924    1.277   .     A
C904   C906    1.365   .     S
C906   C257    1.165   1_556 S
C907   I929    2.162   .     S
C907   C912    1.413   .     A
C908   I930    2.145   .     S
C908   C911    1.407   .     A
C908   C946    1.379   .     S
C909   C911    1.419   .     A
C909   I931    2.158   .     S
C909   C943    1.385   .     S
C910   C912    1.415   .     A
C910   I932    2.159   .     S
C913   F933    1.354   .     S
C913   N918    1.366   .     A
C914   F934    1.354   .     S
C914   N917    1.368   .     A
C914   C699    1.415   1_565 S
C915   N918    1.368   .     A
C915   F935    1.354   .     S
C916   F936    1.353   .     S
C916   N917    1.368   .     A
C916   C697    1.413   1_565 S
N917   Zn927   2.013   .     S
N918   Zn928   2.013   .     S
O919   Zn927   2.014   .     S
O920   Zn928   2.014   .     S
O921   Zn927   2.009   .     S
O922   Zn928   2.009   .     S
O923   Zn927   1.949   .     S
O924   Zn928   1.949   .     S
O925   Zn927   1.950   .     S
O926   Zn928   1.950   .     S
C937   O958    1.291   .     A
C937   C948    1.439   .     S
C937   O955    1.286   .     A
C938   O957    1.295   .     A
C938   C947    1.443   .     S
C938   O956    1.284   .     A
C939   O959    1.277   .     A
C939   O962    1.277   .     A
C939   C941    1.366   .     S
C940   O961    1.277   .     A
C940   O960    1.277   .     A
C940   C942    1.365   .     S
C942   C293    1.165   1_556 S
C943   I965    2.162   .     S
C943   C948    1.413   .     A
C944   I966    2.145   .     S
C944   C947    1.407   .     A
C944   C874    1.379   1_655 S
C945   C947    1.419   .     A
C945   I967    2.158   .     S
C945   C871    1.385   1_655 S
C946   C948    1.415   .     A
C946   I968    2.159   .     S
C949   F969    1.354   .     S
C949   N954    1.366   .     A
C950   F970    1.354   .     S
C950   N953    1.368   .     A
C950   C735    1.415   1_565 S
C951   N954    1.368   .     A
C951   F971    1.354   .     S
C952   F972    1.353   .     S
C952   N953    1.368   .     A
C952   C733    1.413   1_565 S
N953   Zn963   2.013   .     S
N954   Zn964   2.013   .     S
O955   Zn963   2.014   .     S
O956   Zn964   2.014   .     S
O957   Zn963   2.009   .     S
O958   Zn964   2.009   .     S
O959   Zn963   1.949   .     S
O960   Zn964   1.949   .     S
O961   Zn963   1.950   .     S
O962   Zn964   1.950   .     S
