data_str_m3_o1_o16_pcu_sym.60
_audit_creation_date              2020-01-03
_audit_creation_method            'Materials Studio'
_symmetry_space_group_name_H-M    'P1'
_symmetry_Int_Tables_number       1
_symmetry_cell_setting            triclinic
loop_
_symmetry_equiv_pos_as_xyz
  x,y,z
_cell_length_a                    29.5886
_cell_length_b                    32.1134
_cell_length_c                    26.2129
_cell_angle_alpha                 90.4535
_cell_angle_beta                  70.1420
_cell_angle_gamma                 90.2440
loop_
_atom_site_label
_atom_site_type_symbol
_atom_site_fract_x
_atom_site_fract_y
_atom_site_fract_z
_atom_site_U_iso_or_equiv
_atom_site_adp_type
_atom_site_occupancy
O1     O     0.12846   0.22775   0.25001   0.00000  Uiso   1.00
O2     O     0.20490   0.22774   0.25000   0.00000  Uiso   1.00
C3     C     0.16670   0.24668   0.25015   0.00000  Uiso   1.00
O4     O     0.10947   0.16666   0.32681   0.00000  Uiso   1.00
O5     O     0.18591   0.16665   0.32681   0.00000  Uiso   1.00
C6     C     0.14005   0.16406   0.35200   0.00000  Uiso   1.00
Zn7    Zn    0.11562   0.16667   0.25000   0.00000  Uiso   1.00
Zn8    Zn    0.21771   0.16666   0.25000   0.00000  Uiso   1.00
O9     O     0.12843   0.10559   0.24999   0.00000  Uiso   1.00
O10    O     0.20488   0.10558   0.24999   0.00000  Uiso   1.00
O11    O     0.14742   0.16668   0.17319   0.00000  Uiso   1.00
O12    O     0.22387   0.16667   0.17319   0.00000  Uiso   1.00
C13    C     0.16661   0.08665   0.24996   0.00000  Uiso   1.00
C14    C     0.19332   0.16633   0.14782   0.00000  Uiso   1.00
C15    C     0.25956   0.12367   0.00942   0.00000  Uiso   1.00
H16    H     0.27724   0.13078   0.08189   0.00000  Uiso   1.00
H17    H     0.29200   0.10613   0.48978   0.00000  Uiso   1.00
C18    C     0.20945   0.15987   0.08953   0.00000  Uiso   1.00
C19    C     0.07698   0.17432   0.44133   0.00000  Uiso   1.00
C20    C     0.06370   0.17771   0.49732   0.00000  Uiso   1.00
C21    C     0.09714   0.16933   0.02254   0.00000  Uiso   1.00
C22    C     0.14393   0.15501   0.49197   0.00000  Uiso   1.00
C23    C     0.15380   0.14449   0.43724   0.00000  Uiso   1.00
C24    C     0.18117   0.15085   0.01390   0.00000  Uiso   1.00
C25    C     0.22452   0.12958   0.48466   0.00000  Uiso   1.00
C26    C     0.23066   0.11359   0.43254   0.00000  Uiso   1.00
C27    C     0.19491   0.12047   0.40999   0.00000  Uiso   1.00
C28    C     0.17661   0.16853   0.06397   0.00000  Uiso   1.00
C29    C     0.25165   0.13819   0.06200   0.00000  Uiso   1.00
C30    C     0.12269   0.15926   0.41082   0.00000  Uiso   1.00
H31    H     0.14650   0.18827   0.08504   0.00000  Uiso   1.00
H32    H     0.05207   0.18454   0.42182   0.00000  Uiso   1.00
H33    H     0.08510   0.17324   0.06604   0.00000  Uiso   1.00
H34    H     0.02816   0.18873   0.02100   0.00000  Uiso   1.00
H35    H     0.20000   0.10722   0.37036   0.00000  Uiso   1.00
C36    C     0.21045   0.31211   0.23569   0.00000  Uiso   1.00
H37    H     0.24454   0.29589   0.22385   0.00000  Uiso   1.00
C38    C     0.21039   0.02143   0.23559   0.00000  Uiso   1.00
H39    H     0.24447   0.03780   0.22379   0.00000  Uiso   1.00
C40    C     0.16657   0.04251   0.25003   0.00000  Uiso   1.00
C41    C     0.12280   0.02126   0.26468   0.00000  Uiso   1.00
H42    H     0.08872   0.03750   0.27637   0.00000  Uiso   1.00
C43    C     0.12285   0.31192   0.26487   0.00000  Uiso   1.00
H44    H     0.08878   0.29554   0.27669   0.00000  Uiso   1.00
C45    C     0.16669   0.29084   0.25032   0.00000  Uiso   1.00
C46    C     0.32064   0.14439   0.21203   0.00000  Uiso   1.00
H47    H     0.31158   0.12659   0.18162   0.00000  Uiso   1.00
C48    C     0.03522   0.14444   0.21200   0.00000  Uiso   1.00
H49    H     0.06234   0.12664   0.18153   0.00000  Uiso   1.00
N50    N     0.04760   0.16668   0.25002   0.00000  Uiso   1.00
C51    C     0.01291   0.18855   0.28823   0.00000  Uiso   1.00
H52    H     0.02238   0.20620   0.31849   0.00000  Uiso   1.00
C53    C     0.29839   0.18893   0.28829   0.00000  Uiso   1.00
N54    N     0.28573   0.16665   0.25000   0.00000  Uiso   1.00
N55    N     0.26380   0.21335   0.32861   0.00000  Uiso   1.00
O56    O     0.25245   0.24985   0.31564   0.00000  Uiso   1.00
O57    O     0.25580   0.20546   0.37953   0.00000  Uiso   1.00
N58    N     0.27376   0.09236   0.40060   0.00000  Uiso   1.00
O59    O     0.27093   0.05973   0.37208   0.00000  Uiso   1.00
O60    O     0.31535   0.11024   0.39107   0.00000  Uiso   1.00
O61    O     0.46179   0.22775   0.25001   0.00000  Uiso   1.00
O62    O     0.53823   0.22774   0.25000   0.00000  Uiso   1.00
C63    C     0.50003   0.24668   0.25015   0.00000  Uiso   1.00
O64    O     0.44280   0.16666   0.32681   0.00000  Uiso   1.00
O65    O     0.51924   0.16665   0.32681   0.00000  Uiso   1.00
C66    C     0.47339   0.16406   0.35200   0.00000  Uiso   1.00
Zn67   Zn    0.44896   0.16667   0.25000   0.00000  Uiso   1.00
Zn68   Zn    0.55104   0.16666   0.25000   0.00000  Uiso   1.00
O69    O     0.46177   0.10559   0.24999   0.00000  Uiso   1.00
O70    O     0.53821   0.10558   0.24999   0.00000  Uiso   1.00
O71    O     0.48076   0.16668   0.17319   0.00000  Uiso   1.00
O72    O     0.55720   0.16667   0.17319   0.00000  Uiso   1.00
C73    C     0.49994   0.08665   0.24996   0.00000  Uiso   1.00
C74    C     0.52665   0.16633   0.14782   0.00000  Uiso   1.00
C75    C     0.59290   0.12367   0.00942   0.00000  Uiso   1.00
H76    H     0.61058   0.13078   0.08189   0.00000  Uiso   1.00
H77    H     0.62534   0.10613   0.48978   0.00000  Uiso   1.00
C78    C     0.54279   0.15987   0.08953   0.00000  Uiso   1.00
C79    C     0.41031   0.17432   0.44133   0.00000  Uiso   1.00
C80    C     0.39704   0.17771   0.49732   0.00000  Uiso   1.00
C81    C     0.43048   0.16933   0.02254   0.00000  Uiso   1.00
C82    C     0.47726   0.15501   0.49197   0.00000  Uiso   1.00
C83    C     0.48714   0.14449   0.43724   0.00000  Uiso   1.00
C84    C     0.51450   0.15085   0.01390   0.00000  Uiso   1.00
C85    C     0.55785   0.12958   0.48466   0.00000  Uiso   1.00
C86    C     0.56400   0.11359   0.43254   0.00000  Uiso   1.00
C87    C     0.52824   0.12047   0.40999   0.00000  Uiso   1.00
C88    C     0.50994   0.16853   0.06397   0.00000  Uiso   1.00
C89    C     0.58499   0.13819   0.06200   0.00000  Uiso   1.00
C90    C     0.45603   0.15926   0.41082   0.00000  Uiso   1.00
H91    H     0.47983   0.18827   0.08504   0.00000  Uiso   1.00
H92    H     0.38540   0.18454   0.42182   0.00000  Uiso   1.00
H93    H     0.41844   0.17324   0.06604   0.00000  Uiso   1.00
H94    H     0.36149   0.18873   0.02100   0.00000  Uiso   1.00
H95    H     0.53334   0.10722   0.37036   0.00000  Uiso   1.00
C96    C     0.54378   0.31211   0.23569   0.00000  Uiso   1.00
H97    H     0.57787   0.29589   0.22385   0.00000  Uiso   1.00
C98    C     0.54373   0.02143   0.23559   0.00000  Uiso   1.00
H99    H     0.57780   0.03780   0.22379   0.00000  Uiso   1.00
C100   C     0.49991   0.04251   0.25003   0.00000  Uiso   1.00
C101   C     0.45614   0.02126   0.26468   0.00000  Uiso   1.00
H102   H     0.42206   0.03750   0.27637   0.00000  Uiso   1.00
C103   C     0.45619   0.31192   0.26487   0.00000  Uiso   1.00
H104   H     0.42212   0.29554   0.27669   0.00000  Uiso   1.00
C105   C     0.50002   0.29084   0.25032   0.00000  Uiso   1.00
C106   C     0.65397   0.14439   0.21203   0.00000  Uiso   1.00
H107   H     0.64491   0.12659   0.18162   0.00000  Uiso   1.00
C108   C     0.36855   0.14444   0.21200   0.00000  Uiso   1.00
H109   H     0.39568   0.12664   0.18153   0.00000  Uiso   1.00
N110   N     0.38093   0.16668   0.25002   0.00000  Uiso   1.00
C111   C     0.34625   0.18855   0.28823   0.00000  Uiso   1.00
H112   H     0.35572   0.20620   0.31849   0.00000  Uiso   1.00
C113   C     0.63172   0.18893   0.28829   0.00000  Uiso   1.00
N114   N     0.61906   0.16665   0.25000   0.00000  Uiso   1.00
N115   N     0.59714   0.21335   0.32861   0.00000  Uiso   1.00
O116   O     0.58578   0.24985   0.31564   0.00000  Uiso   1.00
O117   O     0.58914   0.20546   0.37953   0.00000  Uiso   1.00
N118   N     0.60709   0.09236   0.40060   0.00000  Uiso   1.00
O119   O     0.60426   0.05973   0.37208   0.00000  Uiso   1.00
O120   O     0.64868   0.11024   0.39107   0.00000  Uiso   1.00
O121   O     0.79512   0.22775   0.25001   0.00000  Uiso   1.00
O122   O     0.87157   0.22774   0.25000   0.00000  Uiso   1.00
C123   C     0.83336   0.24668   0.25015   0.00000  Uiso   1.00
O124   O     0.77613   0.16666   0.32681   0.00000  Uiso   1.00
O125   O     0.85258   0.16665   0.32681   0.00000  Uiso   1.00
C126   C     0.80672   0.16406   0.35200   0.00000  Uiso   1.00
Zn127  Zn    0.78229   0.16667   0.25000   0.00000  Uiso   1.00
Zn128  Zn    0.88438   0.16666   0.25000   0.00000  Uiso   1.00
O129   O     0.79510   0.10559   0.24999   0.00000  Uiso   1.00
O130   O     0.87154   0.10558   0.24999   0.00000  Uiso   1.00
O131   O     0.81409   0.16668   0.17319   0.00000  Uiso   1.00
O132   O     0.89053   0.16667   0.17319   0.00000  Uiso   1.00
C133   C     0.83327   0.08665   0.24996   0.00000  Uiso   1.00
C134   C     0.85998   0.16633   0.14782   0.00000  Uiso   1.00
C135   C     0.92623   0.12367   0.00942   0.00000  Uiso   1.00
H136   H     0.94391   0.13078   0.08189   0.00000  Uiso   1.00
H137   H     0.95867   0.10613   0.48978   0.00000  Uiso   1.00
C138   C     0.87612   0.15987   0.08953   0.00000  Uiso   1.00
C139   C     0.74365   0.17432   0.44133   0.00000  Uiso   1.00
C140   C     0.73037   0.17771   0.49732   0.00000  Uiso   1.00
C141   C     0.76381   0.16933   0.02254   0.00000  Uiso   1.00
C142   C     0.81060   0.15501   0.49197   0.00000  Uiso   1.00
C143   C     0.82047   0.14449   0.43724   0.00000  Uiso   1.00
C144   C     0.84784   0.15085   0.01390   0.00000  Uiso   1.00
C145   C     0.89118   0.12958   0.48466   0.00000  Uiso   1.00
C146   C     0.89733   0.11359   0.43254   0.00000  Uiso   1.00
C147   C     0.86157   0.12047   0.40999   0.00000  Uiso   1.00
C148   C     0.84327   0.16853   0.06397   0.00000  Uiso   1.00
C149   C     0.91832   0.13819   0.06200   0.00000  Uiso   1.00
C150   C     0.78936   0.15926   0.41082   0.00000  Uiso   1.00
H151   H     0.81317   0.18827   0.08504   0.00000  Uiso   1.00
H152   H     0.71874   0.18454   0.42182   0.00000  Uiso   1.00
H153   H     0.75177   0.17324   0.06604   0.00000  Uiso   1.00
H154   H     0.69482   0.18873   0.02100   0.00000  Uiso   1.00
H155   H     0.86667   0.10722   0.37036   0.00000  Uiso   1.00
C156   C     0.87711   0.31211   0.23569   0.00000  Uiso   1.00
H157   H     0.91120   0.29589   0.22385   0.00000  Uiso   1.00
C158   C     0.87706   0.02143   0.23559   0.00000  Uiso   1.00
H159   H     0.91113   0.03780   0.22379   0.00000  Uiso   1.00
C160   C     0.83324   0.04251   0.25003   0.00000  Uiso   1.00
C161   C     0.78947   0.02126   0.26468   0.00000  Uiso   1.00
H162   H     0.75539   0.03750   0.27637   0.00000  Uiso   1.00
C163   C     0.78952   0.31192   0.26487   0.00000  Uiso   1.00
H164   H     0.75545   0.29554   0.27669   0.00000  Uiso   1.00
C165   C     0.83335   0.29084   0.25032   0.00000  Uiso   1.00
C166   C     0.98731   0.14439   0.21203   0.00000  Uiso   1.00
H167   H     0.97825   0.12659   0.18162   0.00000  Uiso   1.00
C168   C     0.70189   0.14444   0.21200   0.00000  Uiso   1.00
H169   H     0.72901   0.12664   0.18153   0.00000  Uiso   1.00
N170   N     0.71426   0.16668   0.25002   0.00000  Uiso   1.00
C171   C     0.67958   0.18855   0.28823   0.00000  Uiso   1.00
H172   H     0.68905   0.20620   0.31849   0.00000  Uiso   1.00
C173   C     0.96505   0.18893   0.28829   0.00000  Uiso   1.00
N174   N     0.95239   0.16665   0.25000   0.00000  Uiso   1.00
N175   N     0.93047   0.21335   0.32861   0.00000  Uiso   1.00
O176   O     0.91911   0.24985   0.31564   0.00000  Uiso   1.00
O177   O     0.92247   0.20546   0.37953   0.00000  Uiso   1.00
N178   N     0.94043   0.09236   0.40060   0.00000  Uiso   1.00
O179   O     0.93760   0.05973   0.37208   0.00000  Uiso   1.00
O180   O     0.98202   0.11024   0.39107   0.00000  Uiso   1.00
O181   O     0.12846   0.56108   0.25001   0.00000  Uiso   1.00
O182   O     0.20490   0.56107   0.25000   0.00000  Uiso   1.00
C183   C     0.16670   0.58002   0.25015   0.00000  Uiso   1.00
O184   O     0.10947   0.50000   0.32681   0.00000  Uiso   1.00
O185   O     0.18591   0.49999   0.32681   0.00000  Uiso   1.00
C186   C     0.14005   0.49740   0.35200   0.00000  Uiso   1.00
Zn187  Zn    0.11562   0.50001   0.25000   0.00000  Uiso   1.00
Zn188  Zn    0.21771   0.49999   0.25000   0.00000  Uiso   1.00
O189   O     0.12843   0.43893   0.24999   0.00000  Uiso   1.00
O190   O     0.20488   0.43892   0.24999   0.00000  Uiso   1.00
O191   O     0.14742   0.50001   0.17319   0.00000  Uiso   1.00
O192   O     0.22387   0.50000   0.17319   0.00000  Uiso   1.00
C193   C     0.16661   0.41999   0.24996   0.00000  Uiso   1.00
C194   C     0.19332   0.49967   0.14782   0.00000  Uiso   1.00
C195   C     0.25956   0.45701   0.00942   0.00000  Uiso   1.00
H196   H     0.27724   0.46411   0.08189   0.00000  Uiso   1.00
H197   H     0.29200   0.43946   0.48978   0.00000  Uiso   1.00
C198   C     0.20945   0.49321   0.08953   0.00000  Uiso   1.00
C199   C     0.07698   0.50765   0.44133   0.00000  Uiso   1.00
C200   C     0.06370   0.51105   0.49732   0.00000  Uiso   1.00
C201   C     0.09714   0.50266   0.02254   0.00000  Uiso   1.00
C202   C     0.14393   0.48834   0.49197   0.00000  Uiso   1.00
C203   C     0.15380   0.47782   0.43724   0.00000  Uiso   1.00
C204   C     0.18117   0.48418   0.01390   0.00000  Uiso   1.00
C205   C     0.22452   0.46292   0.48466   0.00000  Uiso   1.00
C206   C     0.23066   0.44693   0.43254   0.00000  Uiso   1.00
C207   C     0.19491   0.45381   0.40999   0.00000  Uiso   1.00
C208   C     0.17661   0.50186   0.06397   0.00000  Uiso   1.00
C209   C     0.25165   0.47152   0.06200   0.00000  Uiso   1.00
C210   C     0.12269   0.49259   0.41082   0.00000  Uiso   1.00
H211   H     0.14650   0.52160   0.08504   0.00000  Uiso   1.00
H212   H     0.05207   0.51787   0.42182   0.00000  Uiso   1.00
H213   H     0.08510   0.50657   0.06604   0.00000  Uiso   1.00
H214   H     0.02816   0.52206   0.02100   0.00000  Uiso   1.00
H215   H     0.20000   0.44056   0.37036   0.00000  Uiso   1.00
C216   C     0.21045   0.64544   0.23569   0.00000  Uiso   1.00
H217   H     0.24454   0.62922   0.22385   0.00000  Uiso   1.00
C218   C     0.21039   0.35477   0.23559   0.00000  Uiso   1.00
H219   H     0.24447   0.37113   0.22379   0.00000  Uiso   1.00
C220   C     0.16657   0.37584   0.25003   0.00000  Uiso   1.00
C221   C     0.12280   0.35459   0.26468   0.00000  Uiso   1.00
H222   H     0.08872   0.37083   0.27637   0.00000  Uiso   1.00
C223   C     0.12285   0.64525   0.26487   0.00000  Uiso   1.00
H224   H     0.08878   0.62888   0.27669   0.00000  Uiso   1.00
C225   C     0.16669   0.62418   0.25032   0.00000  Uiso   1.00
C226   C     0.32064   0.47772   0.21203   0.00000  Uiso   1.00
H227   H     0.31158   0.45993   0.18162   0.00000  Uiso   1.00
C228   C     0.03522   0.47777   0.21200   0.00000  Uiso   1.00
H229   H     0.06234   0.45997   0.18153   0.00000  Uiso   1.00
N230   N     0.04760   0.50001   0.25002   0.00000  Uiso   1.00
C231   C     0.01291   0.52188   0.28823   0.00000  Uiso   1.00
H232   H     0.02238   0.53954   0.31849   0.00000  Uiso   1.00
C233   C     0.29839   0.52226   0.28829   0.00000  Uiso   1.00
N234   N     0.28573   0.49998   0.25000   0.00000  Uiso   1.00
N235   N     0.26380   0.54668   0.32861   0.00000  Uiso   1.00
O236   O     0.25245   0.58318   0.31564   0.00000  Uiso   1.00
O237   O     0.25580   0.53879   0.37953   0.00000  Uiso   1.00
N238   N     0.27376   0.42570   0.40060   0.00000  Uiso   1.00
O239   O     0.27093   0.39306   0.37208   0.00000  Uiso   1.00
O240   O     0.31535   0.44358   0.39107   0.00000  Uiso   1.00
O241   O     0.46179   0.56108   0.25001   0.00000  Uiso   1.00
O242   O     0.53823   0.56107   0.25000   0.00000  Uiso   1.00
C243   C     0.50003   0.58002   0.25015   0.00000  Uiso   1.00
O244   O     0.44280   0.50000   0.32681   0.00000  Uiso   1.00
O245   O     0.51924   0.49999   0.32681   0.00000  Uiso   1.00
C246   C     0.47339   0.49740   0.35200   0.00000  Uiso   1.00
Zn247  Zn    0.44896   0.50001   0.25000   0.00000  Uiso   1.00
Zn248  Zn    0.55104   0.49999   0.25000   0.00000  Uiso   1.00
O249   O     0.46177   0.43893   0.24999   0.00000  Uiso   1.00
O250   O     0.53821   0.43892   0.24999   0.00000  Uiso   1.00
O251   O     0.48076   0.50001   0.17319   0.00000  Uiso   1.00
O252   O     0.55720   0.50000   0.17319   0.00000  Uiso   1.00
C253   C     0.49994   0.41999   0.24996   0.00000  Uiso   1.00
C254   C     0.52665   0.49967   0.14782   0.00000  Uiso   1.00
C255   C     0.59290   0.45701   0.00942   0.00000  Uiso   1.00
H256   H     0.61058   0.46411   0.08189   0.00000  Uiso   1.00
H257   H     0.62534   0.43946   0.48978   0.00000  Uiso   1.00
C258   C     0.54279   0.49321   0.08953   0.00000  Uiso   1.00
C259   C     0.41031   0.50765   0.44133   0.00000  Uiso   1.00
C260   C     0.39704   0.51105   0.49732   0.00000  Uiso   1.00
C261   C     0.43048   0.50266   0.02254   0.00000  Uiso   1.00
C262   C     0.47726   0.48834   0.49197   0.00000  Uiso   1.00
C263   C     0.48714   0.47782   0.43724   0.00000  Uiso   1.00
C264   C     0.51450   0.48418   0.01390   0.00000  Uiso   1.00
C265   C     0.55785   0.46292   0.48466   0.00000  Uiso   1.00
C266   C     0.56400   0.44693   0.43254   0.00000  Uiso   1.00
C267   C     0.52824   0.45381   0.40999   0.00000  Uiso   1.00
C268   C     0.50994   0.50186   0.06397   0.00000  Uiso   1.00
C269   C     0.58499   0.47152   0.06200   0.00000  Uiso   1.00
C270   C     0.45603   0.49259   0.41082   0.00000  Uiso   1.00
H271   H     0.47983   0.52160   0.08504   0.00000  Uiso   1.00
H272   H     0.38540   0.51787   0.42182   0.00000  Uiso   1.00
H273   H     0.41844   0.50657   0.06604   0.00000  Uiso   1.00
H274   H     0.36149   0.52206   0.02100   0.00000  Uiso   1.00
H275   H     0.53334   0.44056   0.37036   0.00000  Uiso   1.00
C276   C     0.54378   0.64544   0.23569   0.00000  Uiso   1.00
H277   H     0.57787   0.62922   0.22385   0.00000  Uiso   1.00
C278   C     0.54373   0.35477   0.23559   0.00000  Uiso   1.00
H279   H     0.57780   0.37113   0.22379   0.00000  Uiso   1.00
C280   C     0.49991   0.37584   0.25003   0.00000  Uiso   1.00
C281   C     0.45614   0.35459   0.26468   0.00000  Uiso   1.00
H282   H     0.42206   0.37083   0.27637   0.00000  Uiso   1.00
C283   C     0.45619   0.64525   0.26487   0.00000  Uiso   1.00
H284   H     0.42212   0.62888   0.27669   0.00000  Uiso   1.00
C285   C     0.50002   0.62418   0.25032   0.00000  Uiso   1.00
C286   C     0.65397   0.47772   0.21203   0.00000  Uiso   1.00
H287   H     0.64491   0.45993   0.18162   0.00000  Uiso   1.00
C288   C     0.36855   0.47777   0.21200   0.00000  Uiso   1.00
H289   H     0.39568   0.45997   0.18153   0.00000  Uiso   1.00
N290   N     0.38093   0.50001   0.25002   0.00000  Uiso   1.00
C291   C     0.34625   0.52188   0.28823   0.00000  Uiso   1.00
H292   H     0.35572   0.53954   0.31849   0.00000  Uiso   1.00
C293   C     0.63172   0.52226   0.28829   0.00000  Uiso   1.00
N294   N     0.61906   0.49998   0.25000   0.00000  Uiso   1.00
N295   N     0.59714   0.54668   0.32861   0.00000  Uiso   1.00
O296   O     0.58578   0.58318   0.31564   0.00000  Uiso   1.00
O297   O     0.58914   0.53879   0.37953   0.00000  Uiso   1.00
N298   N     0.60709   0.42570   0.40060   0.00000  Uiso   1.00
O299   O     0.60426   0.39306   0.37208   0.00000  Uiso   1.00
O300   O     0.64868   0.44358   0.39107   0.00000  Uiso   1.00
O301   O     0.79512   0.56108   0.25001   0.00000  Uiso   1.00
O302   O     0.87157   0.56107   0.25000   0.00000  Uiso   1.00
C303   C     0.83336   0.58002   0.25015   0.00000  Uiso   1.00
O304   O     0.77613   0.50000   0.32681   0.00000  Uiso   1.00
O305   O     0.85258   0.49999   0.32681   0.00000  Uiso   1.00
C306   C     0.80672   0.49740   0.35200   0.00000  Uiso   1.00
Zn307  Zn    0.78229   0.50001   0.25000   0.00000  Uiso   1.00
Zn308  Zn    0.88438   0.49999   0.25000   0.00000  Uiso   1.00
O309   O     0.79510   0.43893   0.24999   0.00000  Uiso   1.00
O310   O     0.87154   0.43892   0.24999   0.00000  Uiso   1.00
O311   O     0.81409   0.50001   0.17319   0.00000  Uiso   1.00
O312   O     0.89053   0.50000   0.17319   0.00000  Uiso   1.00
C313   C     0.83327   0.41999   0.24996   0.00000  Uiso   1.00
C314   C     0.85998   0.49967   0.14782   0.00000  Uiso   1.00
C315   C     0.92623   0.45701   0.00942   0.00000  Uiso   1.00
H316   H     0.94391   0.46411   0.08189   0.00000  Uiso   1.00
H317   H     0.95867   0.43946   0.48978   0.00000  Uiso   1.00
C318   C     0.87612   0.49321   0.08953   0.00000  Uiso   1.00
C319   C     0.74365   0.50765   0.44133   0.00000  Uiso   1.00
C320   C     0.73037   0.51105   0.49732   0.00000  Uiso   1.00
C321   C     0.76381   0.50266   0.02254   0.00000  Uiso   1.00
C322   C     0.81060   0.48834   0.49197   0.00000  Uiso   1.00
C323   C     0.82047   0.47782   0.43724   0.00000  Uiso   1.00
C324   C     0.84784   0.48418   0.01390   0.00000  Uiso   1.00
C325   C     0.89118   0.46292   0.48466   0.00000  Uiso   1.00
C326   C     0.89733   0.44693   0.43254   0.00000  Uiso   1.00
C327   C     0.86157   0.45381   0.40999   0.00000  Uiso   1.00
C328   C     0.84327   0.50186   0.06397   0.00000  Uiso   1.00
C329   C     0.91832   0.47152   0.06200   0.00000  Uiso   1.00
C330   C     0.78936   0.49259   0.41082   0.00000  Uiso   1.00
H331   H     0.81317   0.52160   0.08504   0.00000  Uiso   1.00
H332   H     0.71874   0.51787   0.42182   0.00000  Uiso   1.00
H333   H     0.75177   0.50657   0.06604   0.00000  Uiso   1.00
H334   H     0.69482   0.52206   0.02100   0.00000  Uiso   1.00
H335   H     0.86667   0.44056   0.37036   0.00000  Uiso   1.00
C336   C     0.87711   0.64544   0.23569   0.00000  Uiso   1.00
H337   H     0.91120   0.62922   0.22385   0.00000  Uiso   1.00
C338   C     0.87706   0.35477   0.23559   0.00000  Uiso   1.00
H339   H     0.91113   0.37113   0.22379   0.00000  Uiso   1.00
C340   C     0.83324   0.37584   0.25003   0.00000  Uiso   1.00
C341   C     0.78947   0.35459   0.26468   0.00000  Uiso   1.00
H342   H     0.75539   0.37083   0.27637   0.00000  Uiso   1.00
C343   C     0.78952   0.64525   0.26487   0.00000  Uiso   1.00
H344   H     0.75545   0.62888   0.27669   0.00000  Uiso   1.00
C345   C     0.83335   0.62418   0.25032   0.00000  Uiso   1.00
C346   C     0.98731   0.47772   0.21203   0.00000  Uiso   1.00
H347   H     0.97825   0.45993   0.18162   0.00000  Uiso   1.00
C348   C     0.70189   0.47777   0.21200   0.00000  Uiso   1.00
H349   H     0.72901   0.45997   0.18153   0.00000  Uiso   1.00
N350   N     0.71426   0.50001   0.25002   0.00000  Uiso   1.00
C351   C     0.67958   0.52188   0.28823   0.00000  Uiso   1.00
H352   H     0.68905   0.53954   0.31849   0.00000  Uiso   1.00
C353   C     0.96505   0.52226   0.28829   0.00000  Uiso   1.00
N354   N     0.95239   0.49998   0.25000   0.00000  Uiso   1.00
N355   N     0.93047   0.54668   0.32861   0.00000  Uiso   1.00
O356   O     0.91911   0.58318   0.31564   0.00000  Uiso   1.00
O357   O     0.92247   0.53879   0.37953   0.00000  Uiso   1.00
N358   N     0.94043   0.42570   0.40060   0.00000  Uiso   1.00
O359   O     0.93760   0.39306   0.37208   0.00000  Uiso   1.00
O360   O     0.98202   0.44358   0.39107   0.00000  Uiso   1.00
O361   O     0.12846   0.89442   0.25001   0.00000  Uiso   1.00
O362   O     0.20490   0.89441   0.25000   0.00000  Uiso   1.00
C363   C     0.16670   0.91335   0.25015   0.00000  Uiso   1.00
O364   O     0.10947   0.83333   0.32681   0.00000  Uiso   1.00
O365   O     0.18591   0.83332   0.32681   0.00000  Uiso   1.00
C366   C     0.14005   0.83073   0.35200   0.00000  Uiso   1.00
Zn367  Zn    0.11562   0.83334   0.25000   0.00000  Uiso   1.00
Zn368  Zn    0.21771   0.83333   0.25000   0.00000  Uiso   1.00
O369   O     0.12843   0.77226   0.24999   0.00000  Uiso   1.00
O370   O     0.20488   0.77225   0.24999   0.00000  Uiso   1.00
O371   O     0.14742   0.83335   0.17319   0.00000  Uiso   1.00
O372   O     0.22387   0.83334   0.17319   0.00000  Uiso   1.00
C373   C     0.16661   0.75332   0.24996   0.00000  Uiso   1.00
C374   C     0.19332   0.83300   0.14782   0.00000  Uiso   1.00
C375   C     0.25956   0.79034   0.00942   0.00000  Uiso   1.00
H376   H     0.27724   0.79745   0.08189   0.00000  Uiso   1.00
H377   H     0.29200   0.77280   0.48978   0.00000  Uiso   1.00
C378   C     0.20945   0.82654   0.08953   0.00000  Uiso   1.00
C379   C     0.07698   0.84098   0.44133   0.00000  Uiso   1.00
C380   C     0.06370   0.84438   0.49732   0.00000  Uiso   1.00
C381   C     0.09714   0.83600   0.02254   0.00000  Uiso   1.00
C382   C     0.14393   0.82167   0.49197   0.00000  Uiso   1.00
C383   C     0.15380   0.81116   0.43724   0.00000  Uiso   1.00
C384   C     0.18117   0.81752   0.01390   0.00000  Uiso   1.00
C385   C     0.22452   0.79625   0.48466   0.00000  Uiso   1.00
C386   C     0.23066   0.78026   0.43254   0.00000  Uiso   1.00
C387   C     0.19491   0.78714   0.40999   0.00000  Uiso   1.00
C388   C     0.17661   0.83520   0.06397   0.00000  Uiso   1.00
C389   C     0.25165   0.80486   0.06200   0.00000  Uiso   1.00
C390   C     0.12269   0.82592   0.41082   0.00000  Uiso   1.00
H391   H     0.14650   0.85493   0.08504   0.00000  Uiso   1.00
H392   H     0.05207   0.85121   0.42182   0.00000  Uiso   1.00
H393   H     0.08510   0.83990   0.06604   0.00000  Uiso   1.00
H394   H     0.02816   0.85539   0.02100   0.00000  Uiso   1.00
H395   H     0.20000   0.77389   0.37036   0.00000  Uiso   1.00
C396   C     0.21045   0.97877   0.23569   0.00000  Uiso   1.00
H397   H     0.24454   0.96255   0.22385   0.00000  Uiso   1.00
C398   C     0.21039   0.68810   0.23559   0.00000  Uiso   1.00
H399   H     0.24447   0.70447   0.22379   0.00000  Uiso   1.00
C400   C     0.16657   0.70917   0.25003   0.00000  Uiso   1.00
C401   C     0.12280   0.68792   0.26468   0.00000  Uiso   1.00
H402   H     0.08872   0.70416   0.27637   0.00000  Uiso   1.00
C403   C     0.12285   0.97859   0.26487   0.00000  Uiso   1.00
H404   H     0.08878   0.96221   0.27669   0.00000  Uiso   1.00
C405   C     0.16669   0.95751   0.25032   0.00000  Uiso   1.00
C406   C     0.32064   0.81106   0.21203   0.00000  Uiso   1.00
H407   H     0.31158   0.79326   0.18162   0.00000  Uiso   1.00
C408   C     0.03522   0.81111   0.21200   0.00000  Uiso   1.00
H409   H     0.06234   0.79330   0.18153   0.00000  Uiso   1.00
N410   N     0.04760   0.83334   0.25002   0.00000  Uiso   1.00
C411   C     0.01291   0.85521   0.28823   0.00000  Uiso   1.00
H412   H     0.02238   0.87287   0.31849   0.00000  Uiso   1.00
C413   C     0.29839   0.85560   0.28829   0.00000  Uiso   1.00
N414   N     0.28573   0.83331   0.25000   0.00000  Uiso   1.00
N415   N     0.26380   0.88002   0.32861   0.00000  Uiso   1.00
O416   O     0.25245   0.91651   0.31564   0.00000  Uiso   1.00
O417   O     0.25580   0.87212   0.37953   0.00000  Uiso   1.00
N418   N     0.27376   0.75903   0.40060   0.00000  Uiso   1.00
O419   O     0.27093   0.72640   0.37208   0.00000  Uiso   1.00
O420   O     0.31535   0.77691   0.39107   0.00000  Uiso   1.00
O421   O     0.46179   0.89442   0.25001   0.00000  Uiso   1.00
O422   O     0.53823   0.89441   0.25000   0.00000  Uiso   1.00
C423   C     0.50003   0.91335   0.25015   0.00000  Uiso   1.00
O424   O     0.44280   0.83333   0.32681   0.00000  Uiso   1.00
O425   O     0.51924   0.83332   0.32681   0.00000  Uiso   1.00
C426   C     0.47339   0.83073   0.35200   0.00000  Uiso   1.00
Zn427  Zn    0.44896   0.83334   0.25000   0.00000  Uiso   1.00
Zn428  Zn    0.55104   0.83333   0.25000   0.00000  Uiso   1.00
O429   O     0.46177   0.77226   0.24999   0.00000  Uiso   1.00
O430   O     0.53821   0.77225   0.24999   0.00000  Uiso   1.00
O431   O     0.48076   0.83335   0.17319   0.00000  Uiso   1.00
O432   O     0.55720   0.83334   0.17319   0.00000  Uiso   1.00
C433   C     0.49994   0.75332   0.24996   0.00000  Uiso   1.00
C434   C     0.52665   0.83300   0.14782   0.00000  Uiso   1.00
C435   C     0.59290   0.79034   0.00942   0.00000  Uiso   1.00
H436   H     0.61058   0.79745   0.08189   0.00000  Uiso   1.00
H437   H     0.62534   0.77280   0.48978   0.00000  Uiso   1.00
C438   C     0.54279   0.82654   0.08953   0.00000  Uiso   1.00
C439   C     0.41031   0.84098   0.44133   0.00000  Uiso   1.00
C440   C     0.39704   0.84438   0.49732   0.00000  Uiso   1.00
C441   C     0.43048   0.83600   0.02254   0.00000  Uiso   1.00
C442   C     0.47726   0.82167   0.49197   0.00000  Uiso   1.00
C443   C     0.48714   0.81116   0.43724   0.00000  Uiso   1.00
C444   C     0.51450   0.81752   0.01390   0.00000  Uiso   1.00
C445   C     0.55785   0.79625   0.48466   0.00000  Uiso   1.00
C446   C     0.56400   0.78026   0.43254   0.00000  Uiso   1.00
C447   C     0.52824   0.78714   0.40999   0.00000  Uiso   1.00
C448   C     0.50994   0.83520   0.06397   0.00000  Uiso   1.00
C449   C     0.58499   0.80486   0.06200   0.00000  Uiso   1.00
C450   C     0.45603   0.82592   0.41082   0.00000  Uiso   1.00
H451   H     0.47983   0.85493   0.08504   0.00000  Uiso   1.00
H452   H     0.38540   0.85121   0.42182   0.00000  Uiso   1.00
H453   H     0.41844   0.83990   0.06604   0.00000  Uiso   1.00
H454   H     0.36149   0.85539   0.02100   0.00000  Uiso   1.00
H455   H     0.53334   0.77389   0.37036   0.00000  Uiso   1.00
C456   C     0.54378   0.97877   0.23569   0.00000  Uiso   1.00
H457   H     0.57787   0.96255   0.22385   0.00000  Uiso   1.00
C458   C     0.54373   0.68810   0.23559   0.00000  Uiso   1.00
H459   H     0.57780   0.70447   0.22379   0.00000  Uiso   1.00
C460   C     0.49991   0.70917   0.25003   0.00000  Uiso   1.00
C461   C     0.45614   0.68792   0.26468   0.00000  Uiso   1.00
H462   H     0.42206   0.70416   0.27637   0.00000  Uiso   1.00
C463   C     0.45619   0.97859   0.26487   0.00000  Uiso   1.00
H464   H     0.42212   0.96221   0.27669   0.00000  Uiso   1.00
C465   C     0.50002   0.95751   0.25032   0.00000  Uiso   1.00
C466   C     0.65397   0.81106   0.21203   0.00000  Uiso   1.00
H467   H     0.64491   0.79326   0.18162   0.00000  Uiso   1.00
C468   C     0.36855   0.81111   0.21200   0.00000  Uiso   1.00
H469   H     0.39568   0.79330   0.18153   0.00000  Uiso   1.00
N470   N     0.38093   0.83334   0.25002   0.00000  Uiso   1.00
C471   C     0.34625   0.85521   0.28823   0.00000  Uiso   1.00
H472   H     0.35572   0.87287   0.31849   0.00000  Uiso   1.00
C473   C     0.63172   0.85560   0.28829   0.00000  Uiso   1.00
N474   N     0.61906   0.83331   0.25000   0.00000  Uiso   1.00
N475   N     0.59714   0.88002   0.32861   0.00000  Uiso   1.00
O476   O     0.58578   0.91651   0.31564   0.00000  Uiso   1.00
O477   O     0.58914   0.87212   0.37953   0.00000  Uiso   1.00
N478   N     0.60709   0.75903   0.40060   0.00000  Uiso   1.00
O479   O     0.60426   0.72640   0.37208   0.00000  Uiso   1.00
O480   O     0.64868   0.77691   0.39107   0.00000  Uiso   1.00
O481   O     0.79512   0.89442   0.25001   0.00000  Uiso   1.00
O482   O     0.87157   0.89441   0.25000   0.00000  Uiso   1.00
C483   C     0.83336   0.91335   0.25015   0.00000  Uiso   1.00
O484   O     0.77613   0.83333   0.32681   0.00000  Uiso   1.00
O485   O     0.85258   0.83332   0.32681   0.00000  Uiso   1.00
C486   C     0.80672   0.83073   0.35200   0.00000  Uiso   1.00
Zn487  Zn    0.78229   0.83334   0.25000   0.00000  Uiso   1.00
Zn488  Zn    0.88438   0.83333   0.25000   0.00000  Uiso   1.00
O489   O     0.79510   0.77226   0.24999   0.00000  Uiso   1.00
O490   O     0.87154   0.77225   0.24999   0.00000  Uiso   1.00
O491   O     0.81409   0.83335   0.17319   0.00000  Uiso   1.00
O492   O     0.89053   0.83334   0.17319   0.00000  Uiso   1.00
C493   C     0.83327   0.75332   0.24996   0.00000  Uiso   1.00
C494   C     0.85998   0.83300   0.14782   0.00000  Uiso   1.00
C495   C     0.92623   0.79034   0.00942   0.00000  Uiso   1.00
H496   H     0.94391   0.79745   0.08189   0.00000  Uiso   1.00
H497   H     0.95867   0.77280   0.48978   0.00000  Uiso   1.00
C498   C     0.87612   0.82654   0.08953   0.00000  Uiso   1.00
C499   C     0.74365   0.84098   0.44133   0.00000  Uiso   1.00
C500   C     0.73037   0.84438   0.49732   0.00000  Uiso   1.00
C501   C     0.76381   0.83600   0.02254   0.00000  Uiso   1.00
C502   C     0.81060   0.82167   0.49197   0.00000  Uiso   1.00
C503   C     0.82047   0.81116   0.43724   0.00000  Uiso   1.00
C504   C     0.84784   0.81752   0.01390   0.00000  Uiso   1.00
C505   C     0.89118   0.79625   0.48466   0.00000  Uiso   1.00
C506   C     0.89733   0.78026   0.43254   0.00000  Uiso   1.00
C507   C     0.86157   0.78714   0.40999   0.00000  Uiso   1.00
C508   C     0.84327   0.83520   0.06397   0.00000  Uiso   1.00
C509   C     0.91832   0.80486   0.06200   0.00000  Uiso   1.00
C510   C     0.78936   0.82592   0.41082   0.00000  Uiso   1.00
H511   H     0.81317   0.85493   0.08504   0.00000  Uiso   1.00
H512   H     0.71874   0.85121   0.42182   0.00000  Uiso   1.00
H513   H     0.75177   0.83990   0.06604   0.00000  Uiso   1.00
H514   H     0.69482   0.85539   0.02100   0.00000  Uiso   1.00
H515   H     0.86667   0.77389   0.37036   0.00000  Uiso   1.00
C516   C     0.87711   0.97877   0.23569   0.00000  Uiso   1.00
H517   H     0.91120   0.96255   0.22385   0.00000  Uiso   1.00
C518   C     0.87706   0.68810   0.23559   0.00000  Uiso   1.00
H519   H     0.91113   0.70447   0.22379   0.00000  Uiso   1.00
C520   C     0.83324   0.70917   0.25003   0.00000  Uiso   1.00
C521   C     0.78947   0.68792   0.26468   0.00000  Uiso   1.00
H522   H     0.75539   0.70416   0.27637   0.00000  Uiso   1.00
C523   C     0.78952   0.97859   0.26487   0.00000  Uiso   1.00
H524   H     0.75545   0.96221   0.27669   0.00000  Uiso   1.00
C525   C     0.83335   0.95751   0.25032   0.00000  Uiso   1.00
C526   C     0.98731   0.81106   0.21203   0.00000  Uiso   1.00
H527   H     0.97825   0.79326   0.18162   0.00000  Uiso   1.00
C528   C     0.70189   0.81111   0.21200   0.00000  Uiso   1.00
H529   H     0.72901   0.79330   0.18153   0.00000  Uiso   1.00
N530   N     0.71426   0.83334   0.25002   0.00000  Uiso   1.00
C531   C     0.67958   0.85521   0.28823   0.00000  Uiso   1.00
H532   H     0.68905   0.87287   0.31849   0.00000  Uiso   1.00
C533   C     0.96505   0.85560   0.28829   0.00000  Uiso   1.00
N534   N     0.95239   0.83331   0.25000   0.00000  Uiso   1.00
N535   N     0.93047   0.88002   0.32861   0.00000  Uiso   1.00
O536   O     0.91911   0.91651   0.31564   0.00000  Uiso   1.00
O537   O     0.92247   0.87212   0.37953   0.00000  Uiso   1.00
N538   N     0.94043   0.75903   0.40060   0.00000  Uiso   1.00
O539   O     0.93760   0.72640   0.37208   0.00000  Uiso   1.00
O540   O     0.98202   0.77691   0.39107   0.00000  Uiso   1.00
O541   O     0.12846   0.22775   0.75001   0.00000  Uiso   1.00
O542   O     0.20490   0.22774   0.75000   0.00000  Uiso   1.00
C543   C     0.16670   0.24668   0.75015   0.00000  Uiso   1.00
O544   O     0.10947   0.16666   0.82681   0.00000  Uiso   1.00
O545   O     0.18591   0.16665   0.82681   0.00000  Uiso   1.00
C546   C     0.14005   0.16406   0.85200   0.00000  Uiso   1.00
Zn547  Zn    0.11562   0.16667   0.75000   0.00000  Uiso   1.00
Zn548  Zn    0.21771   0.16666   0.75000   0.00000  Uiso   1.00
O549   O     0.12843   0.10559   0.74999   0.00000  Uiso   1.00
O550   O     0.20488   0.10558   0.74999   0.00000  Uiso   1.00
O551   O     0.14742   0.16668   0.67319   0.00000  Uiso   1.00
O552   O     0.22387   0.16667   0.67319   0.00000  Uiso   1.00
C553   C     0.16661   0.08665   0.74996   0.00000  Uiso   1.00
C554   C     0.19332   0.16633   0.64782   0.00000  Uiso   1.00
C555   C     0.25956   0.12367   0.50942   0.00000  Uiso   1.00
H556   H     0.27724   0.13078   0.58189   0.00000  Uiso   1.00
H557   H     0.29200   0.10613   0.98978   0.00000  Uiso   1.00
C558   C     0.20945   0.15987   0.58953   0.00000  Uiso   1.00
C559   C     0.07698   0.17432   0.94133   0.00000  Uiso   1.00
C560   C     0.06370   0.17771   0.99732   0.00000  Uiso   1.00
C561   C     0.09714   0.16933   0.52254   0.00000  Uiso   1.00
C562   C     0.14393   0.15501   0.99197   0.00000  Uiso   1.00
C563   C     0.15380   0.14449   0.93724   0.00000  Uiso   1.00
C564   C     0.18117   0.15085   0.51390   0.00000  Uiso   1.00
C565   C     0.22452   0.12958   0.98466   0.00000  Uiso   1.00
C566   C     0.23066   0.11359   0.93254   0.00000  Uiso   1.00
C567   C     0.19491   0.12047   0.90999   0.00000  Uiso   1.00
C568   C     0.17661   0.16853   0.56397   0.00000  Uiso   1.00
C569   C     0.25165   0.13819   0.56200   0.00000  Uiso   1.00
C570   C     0.12269   0.15926   0.91082   0.00000  Uiso   1.00
H571   H     0.14650   0.18827   0.58504   0.00000  Uiso   1.00
H572   H     0.05207   0.18454   0.92182   0.00000  Uiso   1.00
H573   H     0.08510   0.17324   0.56604   0.00000  Uiso   1.00
H574   H     0.02816   0.18873   0.52100   0.00000  Uiso   1.00
H575   H     0.20000   0.10722   0.87036   0.00000  Uiso   1.00
C576   C     0.21045   0.31211   0.73569   0.00000  Uiso   1.00
H577   H     0.24454   0.29589   0.72385   0.00000  Uiso   1.00
C578   C     0.21039   0.02143   0.73559   0.00000  Uiso   1.00
H579   H     0.24447   0.03780   0.72379   0.00000  Uiso   1.00
C580   C     0.16657   0.04251   0.75003   0.00000  Uiso   1.00
C581   C     0.12280   0.02126   0.76468   0.00000  Uiso   1.00
H582   H     0.08872   0.03750   0.77637   0.00000  Uiso   1.00
C583   C     0.12285   0.31192   0.76487   0.00000  Uiso   1.00
H584   H     0.08878   0.29554   0.77669   0.00000  Uiso   1.00
C585   C     0.16669   0.29084   0.75032   0.00000  Uiso   1.00
C586   C     0.32064   0.14439   0.71203   0.00000  Uiso   1.00
H587   H     0.31158   0.12659   0.68162   0.00000  Uiso   1.00
C588   C     0.03522   0.14444   0.71200   0.00000  Uiso   1.00
H589   H     0.06234   0.12664   0.68153   0.00000  Uiso   1.00
N590   N     0.04760   0.16668   0.75002   0.00000  Uiso   1.00
C591   C     0.01291   0.18855   0.78823   0.00000  Uiso   1.00
H592   H     0.02238   0.20620   0.81849   0.00000  Uiso   1.00
C593   C     0.29839   0.18893   0.78829   0.00000  Uiso   1.00
N594   N     0.28573   0.16665   0.75000   0.00000  Uiso   1.00
N595   N     0.26380   0.21335   0.82861   0.00000  Uiso   1.00
O596   O     0.25245   0.24985   0.81564   0.00000  Uiso   1.00
O597   O     0.25580   0.20546   0.87953   0.00000  Uiso   1.00
N598   N     0.27376   0.09236   0.90060   0.00000  Uiso   1.00
O599   O     0.27093   0.05973   0.87208   0.00000  Uiso   1.00
O600   O     0.31535   0.11024   0.89107   0.00000  Uiso   1.00
O601   O     0.46179   0.22775   0.75001   0.00000  Uiso   1.00
O602   O     0.53823   0.22774   0.75000   0.00000  Uiso   1.00
C603   C     0.50003   0.24668   0.75015   0.00000  Uiso   1.00
O604   O     0.44280   0.16666   0.82681   0.00000  Uiso   1.00
O605   O     0.51924   0.16665   0.82681   0.00000  Uiso   1.00
C606   C     0.47339   0.16406   0.85200   0.00000  Uiso   1.00
Zn607  Zn    0.44896   0.16667   0.75000   0.00000  Uiso   1.00
Zn608  Zn    0.55104   0.16666   0.75000   0.00000  Uiso   1.00
O609   O     0.46177   0.10559   0.74999   0.00000  Uiso   1.00
O610   O     0.53821   0.10558   0.74999   0.00000  Uiso   1.00
O611   O     0.48076   0.16668   0.67319   0.00000  Uiso   1.00
O612   O     0.55720   0.16667   0.67319   0.00000  Uiso   1.00
C613   C     0.49994   0.08665   0.74996   0.00000  Uiso   1.00
C614   C     0.52665   0.16633   0.64782   0.00000  Uiso   1.00
C615   C     0.59290   0.12367   0.50942   0.00000  Uiso   1.00
H616   H     0.61058   0.13078   0.58189   0.00000  Uiso   1.00
H617   H     0.62534   0.10613   0.98978   0.00000  Uiso   1.00
C618   C     0.54279   0.15987   0.58953   0.00000  Uiso   1.00
C619   C     0.41031   0.17432   0.94133   0.00000  Uiso   1.00
C620   C     0.39704   0.17771   0.99732   0.00000  Uiso   1.00
C621   C     0.43048   0.16933   0.52254   0.00000  Uiso   1.00
C622   C     0.47726   0.15501   0.99197   0.00000  Uiso   1.00
C623   C     0.48714   0.14449   0.93724   0.00000  Uiso   1.00
C624   C     0.51450   0.15085   0.51390   0.00000  Uiso   1.00
C625   C     0.55785   0.12958   0.98466   0.00000  Uiso   1.00
C626   C     0.56400   0.11359   0.93254   0.00000  Uiso   1.00
C627   C     0.52824   0.12047   0.90999   0.00000  Uiso   1.00
C628   C     0.50994   0.16853   0.56397   0.00000  Uiso   1.00
C629   C     0.58499   0.13819   0.56200   0.00000  Uiso   1.00
C630   C     0.45603   0.15926   0.91082   0.00000  Uiso   1.00
H631   H     0.47983   0.18827   0.58504   0.00000  Uiso   1.00
H632   H     0.38540   0.18454   0.92182   0.00000  Uiso   1.00
H633   H     0.41844   0.17324   0.56604   0.00000  Uiso   1.00
H634   H     0.36149   0.18873   0.52100   0.00000  Uiso   1.00
H635   H     0.53334   0.10722   0.87036   0.00000  Uiso   1.00
C636   C     0.54378   0.31211   0.73569   0.00000  Uiso   1.00
H637   H     0.57787   0.29589   0.72385   0.00000  Uiso   1.00
C638   C     0.54373   0.02143   0.73559   0.00000  Uiso   1.00
H639   H     0.57780   0.03780   0.72379   0.00000  Uiso   1.00
C640   C     0.49991   0.04251   0.75003   0.00000  Uiso   1.00
C641   C     0.45614   0.02126   0.76468   0.00000  Uiso   1.00
H642   H     0.42206   0.03750   0.77637   0.00000  Uiso   1.00
C643   C     0.45619   0.31192   0.76487   0.00000  Uiso   1.00
H644   H     0.42212   0.29554   0.77669   0.00000  Uiso   1.00
C645   C     0.50002   0.29084   0.75032   0.00000  Uiso   1.00
C646   C     0.65397   0.14439   0.71203   0.00000  Uiso   1.00
H647   H     0.64491   0.12659   0.68162   0.00000  Uiso   1.00
C648   C     0.36855   0.14444   0.71200   0.00000  Uiso   1.00
H649   H     0.39568   0.12664   0.68153   0.00000  Uiso   1.00
N650   N     0.38093   0.16668   0.75002   0.00000  Uiso   1.00
C651   C     0.34625   0.18855   0.78823   0.00000  Uiso   1.00
H652   H     0.35572   0.20620   0.81849   0.00000  Uiso   1.00
C653   C     0.63172   0.18893   0.78829   0.00000  Uiso   1.00
N654   N     0.61906   0.16665   0.75000   0.00000  Uiso   1.00
N655   N     0.59714   0.21335   0.82861   0.00000  Uiso   1.00
O656   O     0.58578   0.24985   0.81564   0.00000  Uiso   1.00
O657   O     0.58914   0.20546   0.87953   0.00000  Uiso   1.00
N658   N     0.60709   0.09236   0.90060   0.00000  Uiso   1.00
O659   O     0.60426   0.05973   0.87208   0.00000  Uiso   1.00
O660   O     0.64868   0.11024   0.89107   0.00000  Uiso   1.00
O661   O     0.79512   0.22775   0.75001   0.00000  Uiso   1.00
O662   O     0.87157   0.22774   0.75000   0.00000  Uiso   1.00
C663   C     0.83336   0.24668   0.75015   0.00000  Uiso   1.00
O664   O     0.77613   0.16666   0.82681   0.00000  Uiso   1.00
O665   O     0.85258   0.16665   0.82681   0.00000  Uiso   1.00
C666   C     0.80672   0.16406   0.85200   0.00000  Uiso   1.00
Zn667  Zn    0.78229   0.16667   0.75000   0.00000  Uiso   1.00
Zn668  Zn    0.88438   0.16666   0.75000   0.00000  Uiso   1.00
O669   O     0.79510   0.10559   0.74999   0.00000  Uiso   1.00
O670   O     0.87154   0.10558   0.74999   0.00000  Uiso   1.00
O671   O     0.81409   0.16668   0.67319   0.00000  Uiso   1.00
O672   O     0.89053   0.16667   0.67319   0.00000  Uiso   1.00
C673   C     0.83327   0.08665   0.74996   0.00000  Uiso   1.00
C674   C     0.85998   0.16633   0.64782   0.00000  Uiso   1.00
C675   C     0.92623   0.12367   0.50942   0.00000  Uiso   1.00
H676   H     0.94391   0.13078   0.58189   0.00000  Uiso   1.00
H677   H     0.95867   0.10613   0.98978   0.00000  Uiso   1.00
C678   C     0.87612   0.15987   0.58953   0.00000  Uiso   1.00
C679   C     0.74365   0.17432   0.94133   0.00000  Uiso   1.00
C680   C     0.73037   0.17771   0.99732   0.00000  Uiso   1.00
C681   C     0.76381   0.16933   0.52254   0.00000  Uiso   1.00
C682   C     0.81060   0.15501   0.99197   0.00000  Uiso   1.00
C683   C     0.82047   0.14449   0.93724   0.00000  Uiso   1.00
C684   C     0.84784   0.15085   0.51390   0.00000  Uiso   1.00
C685   C     0.89118   0.12958   0.98466   0.00000  Uiso   1.00
C686   C     0.89733   0.11359   0.93254   0.00000  Uiso   1.00
C687   C     0.86157   0.12047   0.90999   0.00000  Uiso   1.00
C688   C     0.84327   0.16853   0.56397   0.00000  Uiso   1.00
C689   C     0.91832   0.13819   0.56200   0.00000  Uiso   1.00
C690   C     0.78936   0.15926   0.91082   0.00000  Uiso   1.00
H691   H     0.81317   0.18827   0.58504   0.00000  Uiso   1.00
H692   H     0.71874   0.18454   0.92182   0.00000  Uiso   1.00
H693   H     0.75177   0.17324   0.56604   0.00000  Uiso   1.00
H694   H     0.69482   0.18873   0.52100   0.00000  Uiso   1.00
H695   H     0.86667   0.10722   0.87036   0.00000  Uiso   1.00
C696   C     0.87711   0.31211   0.73569   0.00000  Uiso   1.00
H697   H     0.91120   0.29589   0.72385   0.00000  Uiso   1.00
C698   C     0.87706   0.02143   0.73559   0.00000  Uiso   1.00
H699   H     0.91113   0.03780   0.72379   0.00000  Uiso   1.00
C700   C     0.83324   0.04251   0.75003   0.00000  Uiso   1.00
C701   C     0.78947   0.02126   0.76468   0.00000  Uiso   1.00
H702   H     0.75539   0.03750   0.77637   0.00000  Uiso   1.00
C703   C     0.78952   0.31192   0.76487   0.00000  Uiso   1.00
H704   H     0.75545   0.29554   0.77669   0.00000  Uiso   1.00
C705   C     0.83335   0.29084   0.75032   0.00000  Uiso   1.00
C706   C     0.98731   0.14439   0.71203   0.00000  Uiso   1.00
H707   H     0.97825   0.12659   0.68162   0.00000  Uiso   1.00
C708   C     0.70189   0.14444   0.71200   0.00000  Uiso   1.00
H709   H     0.72901   0.12664   0.68153   0.00000  Uiso   1.00
N710   N     0.71426   0.16668   0.75002   0.00000  Uiso   1.00
C711   C     0.67958   0.18855   0.78823   0.00000  Uiso   1.00
H712   H     0.68905   0.20620   0.81849   0.00000  Uiso   1.00
C713   C     0.96505   0.18893   0.78829   0.00000  Uiso   1.00
N714   N     0.95239   0.16665   0.75000   0.00000  Uiso   1.00
N715   N     0.93047   0.21335   0.82861   0.00000  Uiso   1.00
O716   O     0.91911   0.24985   0.81564   0.00000  Uiso   1.00
O717   O     0.92247   0.20546   0.87953   0.00000  Uiso   1.00
N718   N     0.94043   0.09236   0.90060   0.00000  Uiso   1.00
O719   O     0.93760   0.05973   0.87208   0.00000  Uiso   1.00
O720   O     0.98202   0.11024   0.89107   0.00000  Uiso   1.00
O721   O     0.12846   0.56108   0.75001   0.00000  Uiso   1.00
O722   O     0.20490   0.56107   0.75000   0.00000  Uiso   1.00
C723   C     0.16670   0.58002   0.75015   0.00000  Uiso   1.00
O724   O     0.10947   0.50000   0.82681   0.00000  Uiso   1.00
O725   O     0.18591   0.49999   0.82681   0.00000  Uiso   1.00
C726   C     0.14005   0.49740   0.85200   0.00000  Uiso   1.00
Zn727  Zn    0.11562   0.50001   0.75000   0.00000  Uiso   1.00
Zn728  Zn    0.21771   0.49999   0.75000   0.00000  Uiso   1.00
O729   O     0.12843   0.43893   0.74999   0.00000  Uiso   1.00
O730   O     0.20488   0.43892   0.74999   0.00000  Uiso   1.00
O731   O     0.14742   0.50001   0.67319   0.00000  Uiso   1.00
O732   O     0.22387   0.50000   0.67319   0.00000  Uiso   1.00
C733   C     0.16661   0.41999   0.74996   0.00000  Uiso   1.00
C734   C     0.19332   0.49967   0.64782   0.00000  Uiso   1.00
C735   C     0.25956   0.45701   0.50942   0.00000  Uiso   1.00
H736   H     0.27724   0.46411   0.58189   0.00000  Uiso   1.00
H737   H     0.29200   0.43946   0.98978   0.00000  Uiso   1.00
C738   C     0.20945   0.49321   0.58953   0.00000  Uiso   1.00
C739   C     0.07698   0.50765   0.94133   0.00000  Uiso   1.00
C740   C     0.06370   0.51105   0.99732   0.00000  Uiso   1.00
C741   C     0.09714   0.50266   0.52254   0.00000  Uiso   1.00
C742   C     0.14393   0.48834   0.99197   0.00000  Uiso   1.00
C743   C     0.15380   0.47782   0.93724   0.00000  Uiso   1.00
C744   C     0.18117   0.48418   0.51390   0.00000  Uiso   1.00
C745   C     0.22452   0.46292   0.98466   0.00000  Uiso   1.00
C746   C     0.23066   0.44693   0.93254   0.00000  Uiso   1.00
C747   C     0.19491   0.45381   0.90999   0.00000  Uiso   1.00
C748   C     0.17661   0.50186   0.56397   0.00000  Uiso   1.00
C749   C     0.25165   0.47152   0.56200   0.00000  Uiso   1.00
C750   C     0.12269   0.49259   0.91082   0.00000  Uiso   1.00
H751   H     0.14650   0.52160   0.58504   0.00000  Uiso   1.00
H752   H     0.05207   0.51787   0.92182   0.00000  Uiso   1.00
H753   H     0.08510   0.50657   0.56604   0.00000  Uiso   1.00
H754   H     0.02816   0.52206   0.52100   0.00000  Uiso   1.00
H755   H     0.20000   0.44056   0.87036   0.00000  Uiso   1.00
C756   C     0.21045   0.64544   0.73569   0.00000  Uiso   1.00
H757   H     0.24454   0.62922   0.72385   0.00000  Uiso   1.00
C758   C     0.21039   0.35477   0.73559   0.00000  Uiso   1.00
H759   H     0.24447   0.37113   0.72379   0.00000  Uiso   1.00
C760   C     0.16657   0.37584   0.75003   0.00000  Uiso   1.00
C761   C     0.12280   0.35459   0.76468   0.00000  Uiso   1.00
H762   H     0.08872   0.37083   0.77637   0.00000  Uiso   1.00
C763   C     0.12285   0.64525   0.76487   0.00000  Uiso   1.00
H764   H     0.08878   0.62888   0.77669   0.00000  Uiso   1.00
C765   C     0.16669   0.62418   0.75032   0.00000  Uiso   1.00
C766   C     0.32064   0.47772   0.71203   0.00000  Uiso   1.00
H767   H     0.31158   0.45993   0.68162   0.00000  Uiso   1.00
C768   C     0.03522   0.47777   0.71200   0.00000  Uiso   1.00
H769   H     0.06234   0.45997   0.68153   0.00000  Uiso   1.00
N770   N     0.04760   0.50001   0.75002   0.00000  Uiso   1.00
C771   C     0.01291   0.52188   0.78823   0.00000  Uiso   1.00
H772   H     0.02238   0.53954   0.81849   0.00000  Uiso   1.00
C773   C     0.29839   0.52226   0.78829   0.00000  Uiso   1.00
N774   N     0.28573   0.49998   0.75000   0.00000  Uiso   1.00
N775   N     0.26380   0.54668   0.82861   0.00000  Uiso   1.00
O776   O     0.25245   0.58318   0.81564   0.00000  Uiso   1.00
O777   O     0.25580   0.53879   0.87953   0.00000  Uiso   1.00
N778   N     0.27376   0.42570   0.90060   0.00000  Uiso   1.00
O779   O     0.27093   0.39306   0.87208   0.00000  Uiso   1.00
O780   O     0.31535   0.44358   0.89107   0.00000  Uiso   1.00
O781   O     0.46179   0.56108   0.75001   0.00000  Uiso   1.00
O782   O     0.53823   0.56107   0.75000   0.00000  Uiso   1.00
C783   C     0.50003   0.58002   0.75015   0.00000  Uiso   1.00
O784   O     0.44280   0.50000   0.82681   0.00000  Uiso   1.00
O785   O     0.51924   0.49999   0.82681   0.00000  Uiso   1.00
C786   C     0.47339   0.49740   0.85200   0.00000  Uiso   1.00
Zn787  Zn    0.44896   0.50001   0.75000   0.00000  Uiso   1.00
Zn788  Zn    0.55104   0.49999   0.75000   0.00000  Uiso   1.00
O789   O     0.46177   0.43893   0.74999   0.00000  Uiso   1.00
O790   O     0.53821   0.43892   0.74999   0.00000  Uiso   1.00
O791   O     0.48076   0.50001   0.67319   0.00000  Uiso   1.00
O792   O     0.55720   0.50000   0.67319   0.00000  Uiso   1.00
C793   C     0.49994   0.41999   0.74996   0.00000  Uiso   1.00
C794   C     0.52665   0.49967   0.64782   0.00000  Uiso   1.00
C795   C     0.59290   0.45701   0.50942   0.00000  Uiso   1.00
H796   H     0.61058   0.46411   0.58189   0.00000  Uiso   1.00
H797   H     0.62534   0.43946   0.98978   0.00000  Uiso   1.00
C798   C     0.54279   0.49321   0.58953   0.00000  Uiso   1.00
C799   C     0.41031   0.50765   0.94133   0.00000  Uiso   1.00
C800   C     0.39704   0.51105   0.99732   0.00000  Uiso   1.00
C801   C     0.43048   0.50266   0.52254   0.00000  Uiso   1.00
C802   C     0.47726   0.48834   0.99197   0.00000  Uiso   1.00
C803   C     0.48714   0.47782   0.93724   0.00000  Uiso   1.00
C804   C     0.51450   0.48418   0.51390   0.00000  Uiso   1.00
C805   C     0.55785   0.46292   0.98466   0.00000  Uiso   1.00
C806   C     0.56400   0.44693   0.93254   0.00000  Uiso   1.00
C807   C     0.52824   0.45381   0.90999   0.00000  Uiso   1.00
C808   C     0.50994   0.50186   0.56397   0.00000  Uiso   1.00
C809   C     0.58499   0.47152   0.56200   0.00000  Uiso   1.00
C810   C     0.45603   0.49259   0.91082   0.00000  Uiso   1.00
H811   H     0.47983   0.52160   0.58504   0.00000  Uiso   1.00
H812   H     0.38540   0.51787   0.92182   0.00000  Uiso   1.00
H813   H     0.41844   0.50657   0.56604   0.00000  Uiso   1.00
H814   H     0.36149   0.52206   0.52100   0.00000  Uiso   1.00
H815   H     0.53334   0.44056   0.87036   0.00000  Uiso   1.00
C816   C     0.54378   0.64544   0.73569   0.00000  Uiso   1.00
H817   H     0.57787   0.62922   0.72385   0.00000  Uiso   1.00
C818   C     0.54373   0.35477   0.73559   0.00000  Uiso   1.00
H819   H     0.57780   0.37113   0.72379   0.00000  Uiso   1.00
C820   C     0.49991   0.37584   0.75003   0.00000  Uiso   1.00
C821   C     0.45614   0.35459   0.76468   0.00000  Uiso   1.00
H822   H     0.42206   0.37083   0.77637   0.00000  Uiso   1.00
C823   C     0.45619   0.64525   0.76487   0.00000  Uiso   1.00
H824   H     0.42212   0.62888   0.77669   0.00000  Uiso   1.00
C825   C     0.50002   0.62418   0.75032   0.00000  Uiso   1.00
C826   C     0.65397   0.47772   0.71203   0.00000  Uiso   1.00
H827   H     0.64491   0.45993   0.68162   0.00000  Uiso   1.00
C828   C     0.36855   0.47777   0.71200   0.00000  Uiso   1.00
H829   H     0.39568   0.45997   0.68153   0.00000  Uiso   1.00
N830   N     0.38093   0.50001   0.75002   0.00000  Uiso   1.00
C831   C     0.34625   0.52188   0.78823   0.00000  Uiso   1.00
H832   H     0.35572   0.53954   0.81849   0.00000  Uiso   1.00
C833   C     0.63172   0.52226   0.78829   0.00000  Uiso   1.00
N834   N     0.61906   0.49998   0.75000   0.00000  Uiso   1.00
N835   N     0.59714   0.54668   0.82861   0.00000  Uiso   1.00
O836   O     0.58578   0.58318   0.81564   0.00000  Uiso   1.00
O837   O     0.58914   0.53879   0.87953   0.00000  Uiso   1.00
N838   N     0.60709   0.42570   0.90060   0.00000  Uiso   1.00
O839   O     0.60426   0.39306   0.87208   0.00000  Uiso   1.00
O840   O     0.64868   0.44358   0.89107   0.00000  Uiso   1.00
O841   O     0.79512   0.56108   0.75001   0.00000  Uiso   1.00
O842   O     0.87157   0.56107   0.75000   0.00000  Uiso   1.00
C843   C     0.83336   0.58002   0.75015   0.00000  Uiso   1.00
O844   O     0.77613   0.50000   0.82681   0.00000  Uiso   1.00
O845   O     0.85258   0.49999   0.82681   0.00000  Uiso   1.00
C846   C     0.80672   0.49740   0.85200   0.00000  Uiso   1.00
Zn847  Zn    0.78229   0.50001   0.75000   0.00000  Uiso   1.00
Zn848  Zn    0.88438   0.49999   0.75000   0.00000  Uiso   1.00
O849   O     0.79510   0.43893   0.74999   0.00000  Uiso   1.00
O850   O     0.87154   0.43892   0.74999   0.00000  Uiso   1.00
O851   O     0.81409   0.50001   0.67319   0.00000  Uiso   1.00
O852   O     0.89053   0.50000   0.67319   0.00000  Uiso   1.00
C853   C     0.83327   0.41999   0.74996   0.00000  Uiso   1.00
C854   C     0.85998   0.49967   0.64782   0.00000  Uiso   1.00
C855   C     0.92623   0.45701   0.50942   0.00000  Uiso   1.00
H856   H     0.94391   0.46411   0.58189   0.00000  Uiso   1.00
H857   H     0.95867   0.43946   0.98978   0.00000  Uiso   1.00
C858   C     0.87612   0.49321   0.58953   0.00000  Uiso   1.00
C859   C     0.74365   0.50765   0.94133   0.00000  Uiso   1.00
C860   C     0.73037   0.51105   0.99732   0.00000  Uiso   1.00
C861   C     0.76381   0.50266   0.52254   0.00000  Uiso   1.00
C862   C     0.81060   0.48834   0.99197   0.00000  Uiso   1.00
C863   C     0.82047   0.47782   0.93724   0.00000  Uiso   1.00
C864   C     0.84784   0.48418   0.51390   0.00000  Uiso   1.00
C865   C     0.89118   0.46292   0.98466   0.00000  Uiso   1.00
C866   C     0.89733   0.44693   0.93254   0.00000  Uiso   1.00
C867   C     0.86157   0.45381   0.90999   0.00000  Uiso   1.00
C868   C     0.84327   0.50186   0.56397   0.00000  Uiso   1.00
C869   C     0.91832   0.47152   0.56200   0.00000  Uiso   1.00
C870   C     0.78936   0.49259   0.91082   0.00000  Uiso   1.00
H871   H     0.81317   0.52160   0.58504   0.00000  Uiso   1.00
H872   H     0.71874   0.51787   0.92182   0.00000  Uiso   1.00
H873   H     0.75177   0.50657   0.56604   0.00000  Uiso   1.00
H874   H     0.69482   0.52206   0.52100   0.00000  Uiso   1.00
H875   H     0.86667   0.44056   0.87036   0.00000  Uiso   1.00
C876   C     0.87711   0.64544   0.73569   0.00000  Uiso   1.00
H877   H     0.91120   0.62922   0.72385   0.00000  Uiso   1.00
C878   C     0.87706   0.35477   0.73559   0.00000  Uiso   1.00
H879   H     0.91113   0.37113   0.72379   0.00000  Uiso   1.00
C880   C     0.83324   0.37584   0.75003   0.00000  Uiso   1.00
C881   C     0.78947   0.35459   0.76468   0.00000  Uiso   1.00
H882   H     0.75539   0.37083   0.77637   0.00000  Uiso   1.00
C883   C     0.78952   0.64525   0.76487   0.00000  Uiso   1.00
H884   H     0.75545   0.62888   0.77669   0.00000  Uiso   1.00
C885   C     0.83335   0.62418   0.75032   0.00000  Uiso   1.00
C886   C     0.98731   0.47772   0.71203   0.00000  Uiso   1.00
H887   H     0.97825   0.45993   0.68162   0.00000  Uiso   1.00
C888   C     0.70189   0.47777   0.71200   0.00000  Uiso   1.00
H889   H     0.72901   0.45997   0.68153   0.00000  Uiso   1.00
N890   N     0.71426   0.50001   0.75002   0.00000  Uiso   1.00
C891   C     0.67958   0.52188   0.78823   0.00000  Uiso   1.00
H892   H     0.68905   0.53954   0.81849   0.00000  Uiso   1.00
C893   C     0.96505   0.52226   0.78829   0.00000  Uiso   1.00
N894   N     0.95239   0.49998   0.75000   0.00000  Uiso   1.00
N895   N     0.93047   0.54668   0.82861   0.00000  Uiso   1.00
O896   O     0.91911   0.58318   0.81564   0.00000  Uiso   1.00
O897   O     0.92247   0.53879   0.87953   0.00000  Uiso   1.00
N898   N     0.94043   0.42570   0.90060   0.00000  Uiso   1.00
O899   O     0.93760   0.39306   0.87208   0.00000  Uiso   1.00
O900   O     0.98202   0.44358   0.89107   0.00000  Uiso   1.00
O901   O     0.12846   0.89442   0.75001   0.00000  Uiso   1.00
O902   O     0.20490   0.89441   0.75000   0.00000  Uiso   1.00
C903   C     0.16670   0.91335   0.75015   0.00000  Uiso   1.00
O904   O     0.10947   0.83333   0.82681   0.00000  Uiso   1.00
O905   O     0.18591   0.83332   0.82681   0.00000  Uiso   1.00
C906   C     0.14005   0.83073   0.85200   0.00000  Uiso   1.00
Zn907  Zn    0.11562   0.83334   0.75000   0.00000  Uiso   1.00
Zn908  Zn    0.21771   0.83333   0.75000   0.00000  Uiso   1.00
O909   O     0.12843   0.77226   0.74999   0.00000  Uiso   1.00
O910   O     0.20488   0.77225   0.74999   0.00000  Uiso   1.00
O911   O     0.14742   0.83335   0.67319   0.00000  Uiso   1.00
O912   O     0.22387   0.83334   0.67319   0.00000  Uiso   1.00
C913   C     0.16661   0.75332   0.74996   0.00000  Uiso   1.00
C914   C     0.19332   0.83300   0.64782   0.00000  Uiso   1.00
C915   C     0.25956   0.79034   0.50942   0.00000  Uiso   1.00
H916   H     0.27724   0.79745   0.58189   0.00000  Uiso   1.00
H917   H     0.29200   0.77280   0.98978   0.00000  Uiso   1.00
C918   C     0.20945   0.82654   0.58953   0.00000  Uiso   1.00
C919   C     0.07698   0.84098   0.94133   0.00000  Uiso   1.00
C920   C     0.06370   0.84438   0.99732   0.00000  Uiso   1.00
C921   C     0.09714   0.83600   0.52254   0.00000  Uiso   1.00
C922   C     0.14393   0.82167   0.99197   0.00000  Uiso   1.00
C923   C     0.15380   0.81116   0.93724   0.00000  Uiso   1.00
C924   C     0.18117   0.81752   0.51390   0.00000  Uiso   1.00
C925   C     0.22452   0.79625   0.98466   0.00000  Uiso   1.00
C926   C     0.23066   0.78026   0.93254   0.00000  Uiso   1.00
C927   C     0.19491   0.78714   0.90999   0.00000  Uiso   1.00
C928   C     0.17661   0.83520   0.56397   0.00000  Uiso   1.00
C929   C     0.25165   0.80486   0.56200   0.00000  Uiso   1.00
C930   C     0.12269   0.82592   0.91082   0.00000  Uiso   1.00
H931   H     0.14650   0.85493   0.58504   0.00000  Uiso   1.00
H932   H     0.05207   0.85121   0.92182   0.00000  Uiso   1.00
H933   H     0.08510   0.83990   0.56604   0.00000  Uiso   1.00
H934   H     0.02816   0.85539   0.52100   0.00000  Uiso   1.00
H935   H     0.20000   0.77389   0.87036   0.00000  Uiso   1.00
C936   C     0.21045   0.97877   0.73569   0.00000  Uiso   1.00
H937   H     0.24454   0.96255   0.72385   0.00000  Uiso   1.00
C938   C     0.21039   0.68810   0.73559   0.00000  Uiso   1.00
H939   H     0.24447   0.70447   0.72379   0.00000  Uiso   1.00
C940   C     0.16657   0.70917   0.75003   0.00000  Uiso   1.00
C941   C     0.12280   0.68792   0.76468   0.00000  Uiso   1.00
H942   H     0.08872   0.70416   0.77637   0.00000  Uiso   1.00
C943   C     0.12285   0.97859   0.76487   0.00000  Uiso   1.00
H944   H     0.08878   0.96221   0.77669   0.00000  Uiso   1.00
C945   C     0.16669   0.95751   0.75032   0.00000  Uiso   1.00
C946   C     0.32064   0.81106   0.71203   0.00000  Uiso   1.00
H947   H     0.31158   0.79326   0.68162   0.00000  Uiso   1.00
C948   C     0.03522   0.81111   0.71200   0.00000  Uiso   1.00
H949   H     0.06234   0.79330   0.68153   0.00000  Uiso   1.00
N950   N     0.04760   0.83334   0.75002   0.00000  Uiso   1.00
C951   C     0.01291   0.85521   0.78823   0.00000  Uiso   1.00
H952   H     0.02238   0.87287   0.81849   0.00000  Uiso   1.00
C953   C     0.29839   0.85560   0.78829   0.00000  Uiso   1.00
N954   N     0.28573   0.83331   0.75000   0.00000  Uiso   1.00
N955   N     0.26380   0.88002   0.82861   0.00000  Uiso   1.00
O956   O     0.25245   0.91651   0.81564   0.00000  Uiso   1.00
O957   O     0.25580   0.87212   0.87953   0.00000  Uiso   1.00
N958   N     0.27376   0.75903   0.90060   0.00000  Uiso   1.00
O959   O     0.27093   0.72640   0.87208   0.00000  Uiso   1.00
O960   O     0.31535   0.77691   0.89107   0.00000  Uiso   1.00
O961   O     0.46179   0.89442   0.75001   0.00000  Uiso   1.00
O962   O     0.53823   0.89441   0.75000   0.00000  Uiso   1.00
C963   C     0.50003   0.91335   0.75015   0.00000  Uiso   1.00
O964   O     0.44280   0.83333   0.82681   0.00000  Uiso   1.00
O965   O     0.51924   0.83332   0.82681   0.00000  Uiso   1.00
C966   C     0.47339   0.83073   0.85200   0.00000  Uiso   1.00
Zn967  Zn    0.44896   0.83334   0.75000   0.00000  Uiso   1.00
Zn968  Zn    0.55104   0.83333   0.75000   0.00000  Uiso   1.00
O969   O     0.46177   0.77226   0.74999   0.00000  Uiso   1.00
O970   O     0.53821   0.77225   0.74999   0.00000  Uiso   1.00
O971   O     0.48076   0.83335   0.67319   0.00000  Uiso   1.00
O972   O     0.55720   0.83334   0.67319   0.00000  Uiso   1.00
C973   C     0.49994   0.75332   0.74996   0.00000  Uiso   1.00
C974   C     0.52665   0.83300   0.64782   0.00000  Uiso   1.00
C975   C     0.59290   0.79034   0.50942   0.00000  Uiso   1.00
H976   H     0.61058   0.79745   0.58189   0.00000  Uiso   1.00
H977   H     0.62534   0.77280   0.98978   0.00000  Uiso   1.00
C978   C     0.54279   0.82654   0.58953   0.00000  Uiso   1.00
C979   C     0.41031   0.84098   0.94133   0.00000  Uiso   1.00
C980   C     0.39704   0.84438   0.99732   0.00000  Uiso   1.00
C981   C     0.43048   0.83600   0.52254   0.00000  Uiso   1.00
C982   C     0.47726   0.82167   0.99197   0.00000  Uiso   1.00
C983   C     0.48714   0.81116   0.93724   0.00000  Uiso   1.00
C984   C     0.51450   0.81752   0.51390   0.00000  Uiso   1.00
C985   C     0.55785   0.79625   0.98466   0.00000  Uiso   1.00
C986   C     0.56400   0.78026   0.93254   0.00000  Uiso   1.00
C987   C     0.52824   0.78714   0.90999   0.00000  Uiso   1.00
C988   C     0.50994   0.83520   0.56397   0.00000  Uiso   1.00
C989   C     0.58499   0.80486   0.56200   0.00000  Uiso   1.00
C990   C     0.45603   0.82592   0.91082   0.00000  Uiso   1.00
H991   H     0.47983   0.85493   0.58504   0.00000  Uiso   1.00
H992   H     0.38540   0.85121   0.92182   0.00000  Uiso   1.00
H993   H     0.41844   0.83990   0.56604   0.00000  Uiso   1.00
H994   H     0.36149   0.85539   0.52100   0.00000  Uiso   1.00
H995   H     0.53334   0.77389   0.87036   0.00000  Uiso   1.00
C996   C     0.54378   0.97877   0.73569   0.00000  Uiso   1.00
H997   H     0.57787   0.96255   0.72385   0.00000  Uiso   1.00
C998   C     0.54373   0.68810   0.73559   0.00000  Uiso   1.00
H999   H     0.57780   0.70447   0.72379   0.00000  Uiso   1.00
C1000  C     0.49991   0.70917   0.75003   0.00000  Uiso   1.00
C1001  C     0.45614   0.68792   0.76468   0.00000  Uiso   1.00
H1002  H     0.42206   0.70416   0.77637   0.00000  Uiso   1.00
C1003  C     0.45619   0.97859   0.76487   0.00000  Uiso   1.00
H1004  H     0.42212   0.96221   0.77669   0.00000  Uiso   1.00
C1005  C     0.50002   0.95751   0.75032   0.00000  Uiso   1.00
C1006  C     0.65397   0.81106   0.71203   0.00000  Uiso   1.00
H1007  H     0.64491   0.79326   0.68162   0.00000  Uiso   1.00
C1008  C     0.36855   0.81111   0.71200   0.00000  Uiso   1.00
H1009  H     0.39568   0.79330   0.68153   0.00000  Uiso   1.00
N1010  N     0.38093   0.83334   0.75002   0.00000  Uiso   1.00
C1011  C     0.34625   0.85521   0.78823   0.00000  Uiso   1.00
H1012  H     0.35572   0.87287   0.81849   0.00000  Uiso   1.00
C1013  C     0.63172   0.85560   0.78829   0.00000  Uiso   1.00
N1014  N     0.61906   0.83331   0.75000   0.00000  Uiso   1.00
N1015  N     0.59714   0.88002   0.82861   0.00000  Uiso   1.00
O1016  O     0.58578   0.91651   0.81564   0.00000  Uiso   1.00
O1017  O     0.58914   0.87212   0.87953   0.00000  Uiso   1.00
N1018  N     0.60709   0.75903   0.90060   0.00000  Uiso   1.00
O1019  O     0.60426   0.72640   0.87208   0.00000  Uiso   1.00
O1020  O     0.64868   0.77691   0.89107   0.00000  Uiso   1.00
O1021  O     0.79512   0.89442   0.75001   0.00000  Uiso   1.00
O1022  O     0.87157   0.89441   0.75000   0.00000  Uiso   1.00
C1023  C     0.83336   0.91335   0.75015   0.00000  Uiso   1.00
O1024  O     0.77613   0.83333   0.82681   0.00000  Uiso   1.00
O1025  O     0.85258   0.83332   0.82681   0.00000  Uiso   1.00
C1026  C     0.80672   0.83073   0.85200   0.00000  Uiso   1.00
Zn1027 Zn    0.78229   0.83334   0.75000   0.00000  Uiso   1.00
Zn1028 Zn    0.88438   0.83333   0.75000   0.00000  Uiso   1.00
O1029  O     0.79510   0.77226   0.74999   0.00000  Uiso   1.00
O1030  O     0.87154   0.77225   0.74999   0.00000  Uiso   1.00
O1031  O     0.81409   0.83335   0.67319   0.00000  Uiso   1.00
O1032  O     0.89053   0.83334   0.67319   0.00000  Uiso   1.00
C1033  C     0.83327   0.75332   0.74996   0.00000  Uiso   1.00
C1034  C     0.85998   0.83300   0.64782   0.00000  Uiso   1.00
C1035  C     0.92623   0.79034   0.50942   0.00000  Uiso   1.00
H1036  H     0.94391   0.79745   0.58189   0.00000  Uiso   1.00
H1037  H     0.95867   0.77280   0.98978   0.00000  Uiso   1.00
C1038  C     0.87612   0.82654   0.58953   0.00000  Uiso   1.00
C1039  C     0.74365   0.84098   0.94133   0.00000  Uiso   1.00
C1040  C     0.73037   0.84438   0.99732   0.00000  Uiso   1.00
C1041  C     0.76381   0.83600   0.52254   0.00000  Uiso   1.00
C1042  C     0.81060   0.82167   0.99197   0.00000  Uiso   1.00
C1043  C     0.82047   0.81116   0.93724   0.00000  Uiso   1.00
C1044  C     0.84784   0.81752   0.51390   0.00000  Uiso   1.00
C1045  C     0.89118   0.79625   0.98466   0.00000  Uiso   1.00
C1046  C     0.89733   0.78026   0.93254   0.00000  Uiso   1.00
C1047  C     0.86157   0.78714   0.90999   0.00000  Uiso   1.00
C1048  C     0.84327   0.83520   0.56397   0.00000  Uiso   1.00
C1049  C     0.91832   0.80486   0.56200   0.00000  Uiso   1.00
C1050  C     0.78936   0.82592   0.91082   0.00000  Uiso   1.00
H1051  H     0.81317   0.85493   0.58504   0.00000  Uiso   1.00
H1052  H     0.71874   0.85121   0.92182   0.00000  Uiso   1.00
H1053  H     0.75177   0.83990   0.56604   0.00000  Uiso   1.00
H1054  H     0.69482   0.85539   0.52100   0.00000  Uiso   1.00
H1055  H     0.86667   0.77389   0.87036   0.00000  Uiso   1.00
C1056  C     0.87711   0.97877   0.73569   0.00000  Uiso   1.00
H1057  H     0.91120   0.96255   0.72385   0.00000  Uiso   1.00
C1058  C     0.87706   0.68810   0.73559   0.00000  Uiso   1.00
H1059  H     0.91113   0.70447   0.72379   0.00000  Uiso   1.00
C1060  C     0.83324   0.70917   0.75003   0.00000  Uiso   1.00
C1061  C     0.78947   0.68792   0.76468   0.00000  Uiso   1.00
H1062  H     0.75539   0.70416   0.77637   0.00000  Uiso   1.00
C1063  C     0.78952   0.97859   0.76487   0.00000  Uiso   1.00
H1064  H     0.75545   0.96221   0.77669   0.00000  Uiso   1.00
C1065  C     0.83335   0.95751   0.75032   0.00000  Uiso   1.00
C1066  C     0.98731   0.81106   0.71203   0.00000  Uiso   1.00
H1067  H     0.97825   0.79326   0.68162   0.00000  Uiso   1.00
C1068  C     0.70189   0.81111   0.71200   0.00000  Uiso   1.00
H1069  H     0.72901   0.79330   0.68153   0.00000  Uiso   1.00
N1070  N     0.71426   0.83334   0.75002   0.00000  Uiso   1.00
C1071  C     0.67958   0.85521   0.78823   0.00000  Uiso   1.00
H1072  H     0.68905   0.87287   0.81849   0.00000  Uiso   1.00
C1073  C     0.96505   0.85560   0.78829   0.00000  Uiso   1.00
N1074  N     0.95239   0.83331   0.75000   0.00000  Uiso   1.00
N1075  N     0.93047   0.88002   0.82861   0.00000  Uiso   1.00
O1076  O     0.91911   0.91651   0.81564   0.00000  Uiso   1.00
O1077  O     0.92247   0.87212   0.87953   0.00000  Uiso   1.00
N1078  N     0.94043   0.75903   0.90060   0.00000  Uiso   1.00
O1079  O     0.93760   0.72640   0.87208   0.00000  Uiso   1.00
O1080  O     0.98202   0.77691   0.89107   0.00000  Uiso   1.00
loop_
_geom_bond_atom_site_label_1
_geom_bond_atom_site_label_2
_geom_bond_distance
_geom_bond_site_symmetry_2
_ccdc_geom_bond_type
O1     Zn7     1.996   .     S
O1     C3      1.283   .     A
O2     C3      1.285   .     A
O2     Zn8     1.999   .     S
C3     C45     1.418   .     S
O4     Zn7     1.959   .     S
O4     C6      1.292   .     A
O5     Zn8     1.911   .     S
O5     C6      1.294   .     A
C6     C30     1.460   .     S
Zn7    O11     1.911   .     S
Zn7    O9      1.999   .     S
Zn7    N50     2.013   .     S
Zn8    O12     1.959   .     S
Zn8    O10     1.996   .     S
Zn8    N54     2.013   .     S
O9     C13     1.285   .     A
O10    C13     1.283   .     A
O11    C14     1.293   .     A
O12    C14     1.291   .     A
C13    C40     1.418   .     S
C14    C18     1.451   .     S
C15    C29     1.394   .     A
C15    H557    1.081   1_554 S
C15    C565    1.412   1_554 S
H16    C29     1.083   .     S
H17    C555    1.081   .     S
C18    C29     1.397   .     A
C18    C28     1.385   .     A
C19    C20     1.388   .     A
C19    H32     1.083   .     S
C19    C30     1.403   .     A
C20    C561    1.392   .     S
C20    H574    1.083   .     S
C21    H33     1.079   .     S
C21    C560    1.392   1_554 S
C21    C562    1.420   1_554 S
C22    C23     1.402   .     A
C22    C561    1.420   .     S
C22    C564    1.413   .     S
C23    C27     1.412   .     A
C23    C30     1.412   .     A
C24    C28     1.390   .     A
C24    C562    1.413   1_554 S
C24    C565    1.425   1_554 S
C25    C26     1.409   .     A
C25    C555    1.412   .     S
C25    C564    1.425   .     S
C26    N58     1.437   .     S
C26    C27     1.395   .     A
C27    H35     1.082   .     S
C28    H31     1.080   .     S
H34    C560    1.083   1_554 S
C36    C45     1.396   .     A
C36    H37     1.084   .     S
C36    C218    1.370   .     S
C38    C40     1.397   .     A
C38    H39     1.084   .     S
C38    C396    1.370   1_545 S
C40    C41     1.396   .     A
C41    H42     1.084   .     S
C41    C403    1.370   1_545 S
C43    C45     1.397   .     A
C43    H44     1.084   .     S
C43    C221    1.370   .     S
C46    N54     1.366   .     A
C46    H47     1.082   .     S
C46    C108    1.417   .     S
C48    N50     1.368   .     A
C48    H49     1.082   .     S
C48    C166    1.417   1_455 S
N50    C51     1.359   .     A
C51    H52     1.082   .     S
C51    C173    1.416   1_455 S
C53    N55     1.428   .     S
C53    N54     1.379   .     A
C53    C111    1.416   .     S
N55    O56     1.300   .     A
N55    O57     1.301   .     A
N58    O59     1.301   .     A
N58    O60     1.301   .     A
O61    Zn67    1.996   .     S
O61    C63     1.283   .     A
O62    C63     1.285   .     A
O62    Zn68    1.999   .     S
C63    C105    1.418   .     S
O64    Zn67    1.959   .     S
O64    C66     1.292   .     A
O65    Zn68    1.911   .     S
O65    C66     1.294   .     A
C66    C90     1.460   .     S
Zn67   O71     1.911   .     S
Zn67   O69     1.999   .     S
Zn67   N110    2.013   .     S
Zn68   O72     1.959   .     S
Zn68   O70     1.996   .     S
Zn68   N114    2.013   .     S
O69    C73     1.285   .     A
O70    C73     1.283   .     A
O71    C74     1.293   .     A
O72    C74     1.291   .     A
C73    C100    1.418   .     S
C74    C78     1.451   .     S
C75    C89     1.394   .     A
C75    H617    1.081   1_554 S
C75    C625    1.412   1_554 S
H76    C89     1.083   .     S
H77    C615    1.081   .     S
C78    C89     1.397   .     A
C78    C88     1.385   .     A
C79    C80     1.388   .     A
C79    H92     1.083   .     S
C79    C90     1.403   .     A
C80    C621    1.392   .     S
C80    H634    1.083   .     S
C81    H93     1.079   .     S
C81    C620    1.392   1_554 S
C81    C622    1.420   1_554 S
C82    C83     1.402   .     A
C82    C621    1.420   .     S
C82    C624    1.413   .     S
C83    C87     1.412   .     A
C83    C90     1.412   .     A
C84    C88     1.390   .     A
C84    C622    1.413   1_554 S
C84    C625    1.425   1_554 S
C85    C86     1.409   .     A
C85    C615    1.412   .     S
C85    C624    1.425   .     S
C86    N118    1.437   .     S
C86    C87     1.395   .     A
C87    H95     1.082   .     S
C88    H91     1.080   .     S
H94    C620    1.083   1_554 S
C96    C105    1.396   .     A
C96    H97     1.084   .     S
C96    C278    1.370   .     S
C98    C100    1.397   .     A
C98    H99     1.084   .     S
C98    C456    1.370   1_545 S
C100   C101    1.396   .     A
C101   H102    1.084   .     S
C101   C463    1.370   1_545 S
C103   C105    1.397   .     A
C103   H104    1.084   .     S
C103   C281    1.370   .     S
C106   N114    1.366   .     A
C106   H107    1.082   .     S
C106   C168    1.417   .     S
C108   N110    1.368   .     A
C108   H109    1.082   .     S
N110   C111    1.359   .     A
C111   H112    1.082   .     S
C113   N115    1.428   .     S
C113   N114    1.379   .     A
C113   C171    1.416   .     S
N115   O116    1.300   .     A
N115   O117    1.301   .     A
N118   O119    1.301   .     A
N118   O120    1.301   .     A
O121   Zn127   1.996   .     S
O121   C123    1.283   .     A
O122   C123    1.285   .     A
O122   Zn128   1.999   .     S
C123   C165    1.418   .     S
O124   Zn127   1.959   .     S
O124   C126    1.292   .     A
O125   Zn128   1.911   .     S
O125   C126    1.294   .     A
C126   C150    1.460   .     S
Zn127  O131    1.911   .     S
Zn127  O129    1.999   .     S
Zn127  N170    2.013   .     S
Zn128  O132    1.959   .     S
Zn128  O130    1.996   .     S
Zn128  N174    2.013   .     S
O129   C133    1.285   .     A
O130   C133    1.283   .     A
O131   C134    1.293   .     A
O132   C134    1.291   .     A
C133   C160    1.418   .     S
C134   C138    1.451   .     S
C135   C149    1.394   .     A
C135   H677    1.081   1_554 S
C135   C685    1.412   1_554 S
H136   C149    1.083   .     S
H137   C675    1.081   .     S
C138   C149    1.397   .     A
C138   C148    1.385   .     A
C139   C140    1.388   .     A
C139   H152    1.083   .     S
C139   C150    1.403   .     A
C140   C681    1.392   .     S
C140   H694    1.083   .     S
C141   H153    1.079   .     S
C141   C680    1.392   1_554 S
C141   C682    1.420   1_554 S
C142   C143    1.402   .     A
C142   C681    1.420   .     S
C142   C684    1.413   .     S
C143   C147    1.412   .     A
C143   C150    1.412   .     A
C144   C148    1.390   .     A
C144   C682    1.413   1_554 S
C144   C685    1.425   1_554 S
C145   C146    1.409   .     A
C145   C675    1.412   .     S
C145   C684    1.425   .     S
C146   N178    1.437   .     S
C146   C147    1.395   .     A
C147   H155    1.082   .     S
C148   H151    1.080   .     S
H154   C680    1.083   1_554 S
C156   C165    1.396   .     A
C156   H157    1.084   .     S
C156   C338    1.370   .     S
C158   C160    1.397   .     A
C158   H159    1.084   .     S
C158   C516    1.370   1_545 S
C160   C161    1.396   .     A
C161   H162    1.084   .     S
C161   C523    1.370   1_545 S
C163   C165    1.397   .     A
C163   H164    1.084   .     S
C163   C341    1.370   .     S
C166   N174    1.366   .     A
C166   H167    1.082   .     S
C166   C48     1.417   1_655 S
C168   N170    1.368   .     A
C168   H169    1.082   .     S
N170   C171    1.359   .     A
C171   H172    1.082   .     S
C173   N175    1.428   .     S
C173   N174    1.379   .     A
C173   C51     1.416   1_655 S
N175   O176    1.300   .     A
N175   O177    1.301   .     A
N178   O179    1.301   .     A
N178   O180    1.301   .     A
O181   Zn187   1.996   .     S
O181   C183    1.283   .     A
O182   C183    1.285   .     A
O182   Zn188   1.999   .     S
C183   C225    1.418   .     S
O184   Zn187   1.959   .     S
O184   C186    1.292   .     A
O185   Zn188   1.911   .     S
O185   C186    1.294   .     A
C186   C210    1.460   .     S
Zn187  O191    1.911   .     S
Zn187  O189    1.999   .     S
Zn187  N230    2.013   .     S
Zn188  O192    1.959   .     S
Zn188  O190    1.996   .     S
Zn188  N234    2.013   .     S
O189   C193    1.285   .     A
O190   C193    1.283   .     A
O191   C194    1.293   .     A
O192   C194    1.291   .     A
C193   C220    1.418   .     S
C194   C198    1.451   .     S
C195   C209    1.394   .     A
C195   H737    1.081   1_554 S
C195   C745    1.412   1_554 S
H196   C209    1.083   .     S
H197   C735    1.081   .     S
C198   C209    1.397   .     A
C198   C208    1.385   .     A
C199   C200    1.388   .     A
C199   H212    1.083   .     S
C199   C210    1.403   .     A
C200   C741    1.392   .     S
C200   H754    1.083   .     S
C201   H213    1.079   .     S
C201   C740    1.392   1_554 S
C201   C742    1.420   1_554 S
C202   C203    1.402   .     A
C202   C741    1.420   .     S
C202   C744    1.413   .     S
C203   C207    1.412   .     A
C203   C210    1.412   .     A
C204   C208    1.390   .     A
C204   C742    1.413   1_554 S
C204   C745    1.425   1_554 S
C205   C206    1.409   .     A
C205   C735    1.412   .     S
C205   C744    1.425   .     S
C206   N238    1.437   .     S
C206   C207    1.395   .     A
C207   H215    1.082   .     S
C208   H211    1.080   .     S
H214   C740    1.083   1_554 S
C216   C225    1.396   .     A
C216   H217    1.084   .     S
C216   C398    1.370   .     S
C218   C220    1.397   .     A
C218   H219    1.084   .     S
C220   C221    1.396   .     A
C221   H222    1.084   .     S
C223   C225    1.397   .     A
C223   H224    1.084   .     S
C223   C401    1.370   .     S
C226   N234    1.366   .     A
C226   H227    1.082   .     S
C226   C288    1.417   .     S
C228   N230    1.368   .     A
C228   H229    1.082   .     S
C228   C346    1.417   1_455 S
N230   C231    1.359   .     A
C231   H232    1.082   .     S
C231   C353    1.416   1_455 S
C233   N235    1.428   .     S
C233   N234    1.379   .     A
C233   C291    1.416   .     S
N235   O236    1.300   .     A
N235   O237    1.301   .     A
N238   O239    1.301   .     A
N238   O240    1.301   .     A
O241   Zn247   1.996   .     S
O241   C243    1.283   .     A
O242   C243    1.285   .     A
O242   Zn248   1.999   .     S
C243   C285    1.418   .     S
O244   Zn247   1.959   .     S
O244   C246    1.292   .     A
O245   Zn248   1.911   .     S
O245   C246    1.294   .     A
C246   C270    1.460   .     S
Zn247  O251    1.911   .     S
Zn247  O249    1.999   .     S
Zn247  N290    2.013   .     S
Zn248  O252    1.959   .     S
Zn248  O250    1.996   .     S
Zn248  N294    2.013   .     S
O249   C253    1.285   .     A
O250   C253    1.283   .     A
O251   C254    1.293   .     A
O252   C254    1.291   .     A
C253   C280    1.418   .     S
C254   C258    1.451   .     S
C255   C269    1.394   .     A
C255   H797    1.081   1_554 S
C255   C805    1.412   1_554 S
H256   C269    1.083   .     S
H257   C795    1.081   .     S
C258   C269    1.397   .     A
C258   C268    1.385   .     A
C259   C260    1.388   .     A
C259   H272    1.083   .     S
C259   C270    1.403   .     A
C260   C801    1.392   .     S
C260   H814    1.083   .     S
C261   H273    1.079   .     S
C261   C800    1.392   1_554 S
C261   C802    1.420   1_554 S
C262   C263    1.402   .     A
C262   C801    1.420   .     S
C262   C804    1.413   .     S
C263   C267    1.412   .     A
C263   C270    1.412   .     A
C264   C268    1.390   .     A
C264   C802    1.413   1_554 S
C264   C805    1.425   1_554 S
C265   C266    1.409   .     A
C265   C795    1.412   .     S
C265   C804    1.425   .     S
C266   N298    1.437   .     S
C266   C267    1.395   .     A
C267   H275    1.082   .     S
C268   H271    1.080   .     S
H274   C800    1.083   1_554 S
C276   C285    1.396   .     A
C276   H277    1.084   .     S
C276   C458    1.370   .     S
C278   C280    1.397   .     A
C278   H279    1.084   .     S
C280   C281    1.396   .     A
C281   H282    1.084   .     S
C283   C285    1.397   .     A
C283   H284    1.084   .     S
C283   C461    1.370   .     S
C286   N294    1.366   .     A
C286   H287    1.082   .     S
C286   C348    1.417   .     S
C288   N290    1.368   .     A
C288   H289    1.082   .     S
N290   C291    1.359   .     A
C291   H292    1.082   .     S
C293   N295    1.428   .     S
C293   N294    1.379   .     A
C293   C351    1.416   .     S
N295   O296    1.300   .     A
N295   O297    1.301   .     A
N298   O299    1.301   .     A
N298   O300    1.301   .     A
O301   Zn307   1.996   .     S
O301   C303    1.283   .     A
O302   C303    1.285   .     A
O302   Zn308   1.999   .     S
C303   C345    1.418   .     S
O304   Zn307   1.959   .     S
O304   C306    1.292   .     A
O305   Zn308   1.911   .     S
O305   C306    1.294   .     A
C306   C330    1.460   .     S
Zn307  O311    1.911   .     S
Zn307  O309    1.999   .     S
Zn307  N350    2.013   .     S
Zn308  O312    1.959   .     S
Zn308  O310    1.996   .     S
Zn308  N354    2.013   .     S
O309   C313    1.285   .     A
O310   C313    1.283   .     A
O311   C314    1.293   .     A
O312   C314    1.291   .     A
C313   C340    1.418   .     S
C314   C318    1.451   .     S
C315   C329    1.394   .     A
C315   H857    1.081   1_554 S
C315   C865    1.412   1_554 S
H316   C329    1.083   .     S
H317   C855    1.081   .     S
C318   C329    1.397   .     A
C318   C328    1.385   .     A
C319   C320    1.388   .     A
C319   H332    1.083   .     S
C319   C330    1.403   .     A
C320   C861    1.392   .     S
C320   H874    1.083   .     S
C321   H333    1.079   .     S
C321   C860    1.392   1_554 S
C321   C862    1.420   1_554 S
C322   C323    1.402   .     A
C322   C861    1.420   .     S
C322   C864    1.413   .     S
C323   C327    1.412   .     A
C323   C330    1.412   .     A
C324   C328    1.390   .     A
C324   C862    1.413   1_554 S
C324   C865    1.425   1_554 S
C325   C326    1.409   .     A
C325   C855    1.412   .     S
C325   C864    1.425   .     S
C326   N358    1.437   .     S
C326   C327    1.395   .     A
C327   H335    1.082   .     S
C328   H331    1.080   .     S
H334   C860    1.083   1_554 S
C336   C345    1.396   .     A
C336   H337    1.084   .     S
C336   C518    1.370   .     S
C338   C340    1.397   .     A
C338   H339    1.084   .     S
C340   C341    1.396   .     A
C341   H342    1.084   .     S
C343   C345    1.397   .     A
C343   H344    1.084   .     S
C343   C521    1.370   .     S
C346   N354    1.366   .     A
C346   H347    1.082   .     S
C346   C228    1.417   1_655 S
C348   N350    1.368   .     A
C348   H349    1.082   .     S
N350   C351    1.359   .     A
C351   H352    1.082   .     S
C353   N355    1.428   .     S
C353   N354    1.379   .     A
C353   C231    1.416   1_655 S
N355   O356    1.300   .     A
N355   O357    1.301   .     A
N358   O359    1.301   .     A
N358   O360    1.301   .     A
O361   Zn367   1.996   .     S
O361   C363    1.283   .     A
O362   C363    1.285   .     A
O362   Zn368   1.999   .     S
C363   C405    1.418   .     S
O364   Zn367   1.959   .     S
O364   C366    1.292   .     A
O365   Zn368   1.911   .     S
O365   C366    1.294   .     A
C366   C390    1.460   .     S
Zn367  O371    1.911   .     S
Zn367  O369    1.999   .     S
Zn367  N410    2.013   .     S
Zn368  O372    1.959   .     S
Zn368  O370    1.996   .     S
Zn368  N414    2.013   .     S
O369   C373    1.285   .     A
O370   C373    1.283   .     A
O371   C374    1.293   .     A
O372   C374    1.291   .     A
C373   C400    1.418   .     S
C374   C378    1.451   .     S
C375   C389    1.394   .     A
C375   H917    1.081   1_554 S
C375   C925    1.412   1_554 S
H376   C389    1.083   .     S
H377   C915    1.081   .     S
C378   C389    1.397   .     A
C378   C388    1.385   .     A
C379   C380    1.388   .     A
C379   H392    1.083   .     S
C379   C390    1.403   .     A
C380   C921    1.392   .     S
C380   H934    1.083   .     S
C381   H393    1.079   .     S
C381   C920    1.392   1_554 S
C381   C922    1.420   1_554 S
C382   C383    1.402   .     A
C382   C921    1.420   .     S
C382   C924    1.413   .     S
C383   C387    1.412   .     A
C383   C390    1.412   .     A
C384   C388    1.390   .     A
C384   C922    1.413   1_554 S
C384   C925    1.425   1_554 S
C385   C386    1.409   .     A
C385   C915    1.412   .     S
C385   C924    1.425   .     S
C386   N418    1.437   .     S
C386   C387    1.395   .     A
C387   H395    1.082   .     S
C388   H391    1.080   .     S
H394   C920    1.083   1_554 S
C396   C405    1.396   .     A
C396   H397    1.084   .     S
C396   C38     1.370   1_565 S
C398   C400    1.397   .     A
C398   H399    1.084   .     S
C400   C401    1.396   .     A
C401   H402    1.084   .     S
C403   C405    1.397   .     A
C403   H404    1.084   .     S
C403   C41     1.370   1_565 S
C406   N414    1.366   .     A
C406   H407    1.082   .     S
C406   C468    1.417   .     S
C408   N410    1.368   .     A
C408   H409    1.082   .     S
C408   C526    1.417   1_455 S
N410   C411    1.359   .     A
C411   H412    1.082   .     S
C411   C533    1.416   1_455 S
C413   N415    1.428   .     S
C413   N414    1.379   .     A
C413   C471    1.416   .     S
N415   O416    1.300   .     A
N415   O417    1.301   .     A
N418   O419    1.301   .     A
N418   O420    1.301   .     A
O421   Zn427   1.996   .     S
O421   C423    1.283   .     A
O422   C423    1.285   .     A
O422   Zn428   1.999   .     S
C423   C465    1.418   .     S
O424   Zn427   1.959   .     S
O424   C426    1.292   .     A
O425   Zn428   1.911   .     S
O425   C426    1.294   .     A
C426   C450    1.460   .     S
Zn427  O431    1.911   .     S
Zn427  O429    1.999   .     S
Zn427  N470    2.013   .     S
Zn428  O432    1.959   .     S
Zn428  O430    1.996   .     S
Zn428  N474    2.013   .     S
O429   C433    1.285   .     A
O430   C433    1.283   .     A
O431   C434    1.293   .     A
O432   C434    1.291   .     A
C433   C460    1.418   .     S
C434   C438    1.451   .     S
C435   C449    1.394   .     A
C435   H977    1.081   1_554 S
C435   C985    1.412   1_554 S
H436   C449    1.083   .     S
H437   C975    1.081   .     S
C438   C449    1.397   .     A
C438   C448    1.385   .     A
C439   C440    1.388   .     A
C439   H452    1.083   .     S
C439   C450    1.403   .     A
C440   C981    1.392   .     S
C440   H994    1.083   .     S
C441   H453    1.079   .     S
C441   C980    1.392   1_554 S
C441   C982    1.420   1_554 S
C442   C443    1.402   .     A
C442   C981    1.420   .     S
C442   C984    1.413   .     S
C443   C447    1.412   .     A
C443   C450    1.412   .     A
C444   C448    1.390   .     A
C444   C982    1.413   1_554 S
C444   C985    1.425   1_554 S
C445   C446    1.409   .     A
C445   C975    1.412   .     S
C445   C984    1.425   .     S
C446   N478    1.437   .     S
C446   C447    1.395   .     A
C447   H455    1.082   .     S
C448   H451    1.080   .     S
H454   C980    1.083   1_554 S
C456   C465    1.396   .     A
C456   H457    1.084   .     S
C456   C98     1.370   1_565 S
C458   C460    1.397   .     A
C458   H459    1.084   .     S
C460   C461    1.396   .     A
C461   H462    1.084   .     S
C463   C465    1.397   .     A
C463   H464    1.084   .     S
C463   C101    1.370   1_565 S
C466   N474    1.366   .     A
C466   H467    1.082   .     S
C466   C528    1.417   .     S
C468   N470    1.368   .     A
C468   H469    1.082   .     S
N470   C471    1.359   .     A
C471   H472    1.082   .     S
C473   N475    1.428   .     S
C473   N474    1.379   .     A
C473   C531    1.416   .     S
N475   O476    1.300   .     A
N475   O477    1.301   .     A
N478   O479    1.301   .     A
N478   O480    1.301   .     A
O481   Zn487   1.996   .     S
O481   C483    1.283   .     A
O482   C483    1.285   .     A
O482   Zn488   1.999   .     S
C483   C525    1.418   .     S
O484   Zn487   1.959   .     S
O484   C486    1.292   .     A
O485   Zn488   1.911   .     S
O485   C486    1.294   .     A
C486   C510    1.460   .     S
Zn487  O491    1.911   .     S
Zn487  O489    1.999   .     S
Zn487  N530    2.013   .     S
Zn488  O492    1.959   .     S
Zn488  O490    1.996   .     S
Zn488  N534    2.013   .     S
O489   C493    1.285   .     A
O490   C493    1.283   .     A
O491   C494    1.293   .     A
O492   C494    1.291   .     A
C493   C520    1.418   .     S
C494   C498    1.451   .     S
C495   C509    1.394   .     A
C495   H1037   1.081   1_554 S
C495   C1045   1.412   1_554 S
H496   C509    1.083   .     S
H497   C1035   1.081   .     S
C498   C509    1.397   .     A
C498   C508    1.385   .     A
C499   C500    1.388   .     A
C499   H512    1.083   .     S
C499   C510    1.403   .     A
C500   C1041   1.392   .     S
C500   H1054   1.083   .     S
C501   H513    1.079   .     S
C501   C1040   1.392   1_554 S
C501   C1042   1.420   1_554 S
C502   C503    1.402   .     A
C502   C1041   1.420   .     S
C502   C1044   1.413   .     S
C503   C507    1.412   .     A
C503   C510    1.412   .     A
C504   C508    1.390   .     A
C504   C1042   1.413   1_554 S
C504   C1045   1.425   1_554 S
C505   C506    1.409   .     A
C505   C1035   1.412   .     S
C505   C1044   1.425   .     S
C506   N538    1.437   .     S
C506   C507    1.395   .     A
C507   H515    1.082   .     S
C508   H511    1.080   .     S
H514   C1040   1.083   1_554 S
C516   C525    1.396   .     A
C516   H517    1.084   .     S
C516   C158    1.370   1_565 S
C518   C520    1.397   .     A
C518   H519    1.084   .     S
C520   C521    1.396   .     A
C521   H522    1.084   .     S
C523   C525    1.397   .     A
C523   H524    1.084   .     S
C523   C161    1.370   1_565 S
C526   N534    1.366   .     A
C526   H527    1.082   .     S
C526   C408    1.417   1_655 S
C528   N530    1.368   .     A
C528   H529    1.082   .     S
N530   C531    1.359   .     A
C531   H532    1.082   .     S
C533   N535    1.428   .     S
C533   N534    1.379   .     A
C533   C411    1.416   1_655 S
N535   O536    1.300   .     A
N535   O537    1.301   .     A
N538   O539    1.301   .     A
N538   O540    1.301   .     A
O541   Zn547   1.996   .     S
O541   C543    1.283   .     A
O542   C543    1.285   .     A
O542   Zn548   1.999   .     S
C543   C585    1.418   .     S
O544   Zn547   1.959   .     S
O544   C546    1.292   .     A
O545   Zn548   1.911   .     S
O545   C546    1.294   .     A
C546   C570    1.460   .     S
Zn547  O551    1.911   .     S
Zn547  O549    1.999   .     S
Zn547  N590    2.013   .     S
Zn548  O552    1.959   .     S
Zn548  O550    1.996   .     S
Zn548  N594    2.013   .     S
O549   C553    1.285   .     A
O550   C553    1.283   .     A
O551   C554    1.293   .     A
O552   C554    1.291   .     A
C553   C580    1.418   .     S
C554   C558    1.451   .     S
C555   C569    1.394   .     A
H556   C569    1.083   .     S
H557   C15     1.081   1_556 S
C558   C569    1.397   .     A
C558   C568    1.385   .     A
C559   C560    1.388   .     A
C559   H572    1.083   .     S
C559   C570    1.403   .     A
C560   C21     1.392   1_556 S
C560   H34     1.083   1_556 S
C561   H573    1.079   .     S
C562   C563    1.402   .     A
C562   C21     1.420   1_556 S
C562   C24     1.413   1_556 S
C563   C567    1.412   .     A
C563   C570    1.412   .     A
C564   C568    1.390   .     A
C565   C566    1.409   .     A
C565   C15     1.412   1_556 S
C565   C24     1.425   1_556 S
C566   N598    1.437   .     S
C566   C567    1.395   .     A
C567   H575    1.082   .     S
C568   H571    1.080   .     S
C576   C585    1.396   .     A
C576   H577    1.084   .     S
C576   C758    1.370   .     S
C578   C580    1.397   .     A
C578   H579    1.084   .     S
C578   C936    1.370   1_545 S
C580   C581    1.396   .     A
C581   H582    1.084   .     S
C581   C943    1.370   1_545 S
C583   C585    1.397   .     A
C583   H584    1.084   .     S
C583   C761    1.370   .     S
C586   N594    1.366   .     A
C586   H587    1.082   .     S
C586   C648    1.417   .     S
C588   N590    1.368   .     A
C588   H589    1.082   .     S
C588   C706    1.417   1_455 S
N590   C591    1.359   .     A
C591   H592    1.082   .     S
C591   C713    1.416   1_455 S
C593   N595    1.428   .     S
C593   N594    1.379   .     A
C593   C651    1.416   .     S
N595   O596    1.300   .     A
N595   O597    1.301   .     A
N598   O599    1.301   .     A
N598   O600    1.301   .     A
O601   Zn607   1.996   .     S
O601   C603    1.283   .     A
O602   C603    1.285   .     A
O602   Zn608   1.999   .     S
C603   C645    1.418   .     S
O604   Zn607   1.959   .     S
O604   C606    1.292   .     A
O605   Zn608   1.911   .     S
O605   C606    1.294   .     A
C606   C630    1.460   .     S
Zn607  O611    1.911   .     S
Zn607  O609    1.999   .     S
Zn607  N650    2.013   .     S
Zn608  O612    1.959   .     S
Zn608  O610    1.996   .     S
Zn608  N654    2.013   .     S
O609   C613    1.285   .     A
O610   C613    1.283   .     A
O611   C614    1.293   .     A
O612   C614    1.291   .     A
C613   C640    1.418   .     S
C614   C618    1.451   .     S
C615   C629    1.394   .     A
H616   C629    1.083   .     S
H617   C75     1.081   1_556 S
C618   C629    1.397   .     A
C618   C628    1.385   .     A
C619   C620    1.388   .     A
C619   H632    1.083   .     S
C619   C630    1.403   .     A
C620   C81     1.392   1_556 S
C620   H94     1.083   1_556 S
C621   H633    1.079   .     S
C622   C623    1.402   .     A
C622   C81     1.420   1_556 S
C622   C84     1.413   1_556 S
C623   C627    1.412   .     A
C623   C630    1.412   .     A
C624   C628    1.390   .     A
C625   C626    1.409   .     A
C625   C75     1.412   1_556 S
C625   C84     1.425   1_556 S
C626   N658    1.437   .     S
C626   C627    1.395   .     A
C627   H635    1.082   .     S
C628   H631    1.080   .     S
C636   C645    1.396   .     A
C636   H637    1.084   .     S
C636   C818    1.370   .     S
C638   C640    1.397   .     A
C638   H639    1.084   .     S
C638   C996    1.370   1_545 S
C640   C641    1.396   .     A
C641   H642    1.084   .     S
C641   C1003   1.370   1_545 S
C643   C645    1.397   .     A
C643   H644    1.084   .     S
C643   C821    1.370   .     S
C646   N654    1.366   .     A
C646   H647    1.082   .     S
C646   C708    1.417   .     S
C648   N650    1.368   .     A
C648   H649    1.082   .     S
N650   C651    1.359   .     A
C651   H652    1.082   .     S
C653   N655    1.428   .     S
C653   N654    1.379   .     A
C653   C711    1.416   .     S
N655   O656    1.300   .     A
N655   O657    1.301   .     A
N658   O659    1.301   .     A
N658   O660    1.301   .     A
O661   Zn667   1.996   .     S
O661   C663    1.283   .     A
O662   C663    1.285   .     A
O662   Zn668   1.999   .     S
C663   C705    1.418   .     S
O664   Zn667   1.959   .     S
O664   C666    1.292   .     A
O665   Zn668   1.911   .     S
O665   C666    1.294   .     A
C666   C690    1.460   .     S
Zn667  O671    1.911   .     S
Zn667  O669    1.999   .     S
Zn667  N710    2.013   .     S
Zn668  O672    1.959   .     S
Zn668  O670    1.996   .     S
Zn668  N714    2.013   .     S
O669   C673    1.285   .     A
O670   C673    1.283   .     A
O671   C674    1.293   .     A
O672   C674    1.291   .     A
C673   C700    1.418   .     S
C674   C678    1.451   .     S
C675   C689    1.394   .     A
H676   C689    1.083   .     S
H677   C135    1.081   1_556 S
C678   C689    1.397   .     A
C678   C688    1.385   .     A
C679   C680    1.388   .     A
C679   H692    1.083   .     S
C679   C690    1.403   .     A
C680   C141    1.392   1_556 S
C680   H154    1.083   1_556 S
C681   H693    1.079   .     S
C682   C683    1.402   .     A
C682   C141    1.420   1_556 S
C682   C144    1.413   1_556 S
C683   C687    1.412   .     A
C683   C690    1.412   .     A
C684   C688    1.390   .     A
C685   C686    1.409   .     A
C685   C135    1.412   1_556 S
C685   C144    1.425   1_556 S
C686   N718    1.437   .     S
C686   C687    1.395   .     A
C687   H695    1.082   .     S
C688   H691    1.080   .     S
C696   C705    1.396   .     A
C696   H697    1.084   .     S
C696   C878    1.370   .     S
C698   C700    1.397   .     A
C698   H699    1.084   .     S
C698   C1056   1.370   1_545 S
C700   C701    1.396   .     A
C701   H702    1.084   .     S
C701   C1063   1.370   1_545 S
C703   C705    1.397   .     A
C703   H704    1.084   .     S
C703   C881    1.370   .     S
C706   N714    1.366   .     A
C706   H707    1.082   .     S
C706   C588    1.417   1_655 S
C708   N710    1.368   .     A
C708   H709    1.082   .     S
N710   C711    1.359   .     A
C711   H712    1.082   .     S
C713   N715    1.428   .     S
C713   N714    1.379   .     A
C713   C591    1.416   1_655 S
N715   O716    1.300   .     A
N715   O717    1.301   .     A
N718   O719    1.301   .     A
N718   O720    1.301   .     A
O721   Zn727   1.996   .     S
O721   C723    1.283   .     A
O722   C723    1.285   .     A
O722   Zn728   1.999   .     S
C723   C765    1.418   .     S
O724   Zn727   1.959   .     S
O724   C726    1.292   .     A
O725   Zn728   1.911   .     S
O725   C726    1.294   .     A
C726   C750    1.460   .     S
Zn727  O731    1.911   .     S
Zn727  O729    1.999   .     S
Zn727  N770    2.013   .     S
Zn728  O732    1.959   .     S
Zn728  O730    1.996   .     S
Zn728  N774    2.013   .     S
O729   C733    1.285   .     A
O730   C733    1.283   .     A
O731   C734    1.293   .     A
O732   C734    1.291   .     A
C733   C760    1.418   .     S
C734   C738    1.451   .     S
C735   C749    1.394   .     A
H736   C749    1.083   .     S
H737   C195    1.081   1_556 S
C738   C749    1.397   .     A
C738   C748    1.385   .     A
C739   C740    1.388   .     A
C739   H752    1.083   .     S
C739   C750    1.403   .     A
C740   C201    1.392   1_556 S
C740   H214    1.083   1_556 S
C741   H753    1.079   .     S
C742   C743    1.402   .     A
C742   C201    1.420   1_556 S
C742   C204    1.413   1_556 S
C743   C747    1.412   .     A
C743   C750    1.412   .     A
C744   C748    1.390   .     A
C745   C746    1.409   .     A
C745   C195    1.412   1_556 S
C745   C204    1.425   1_556 S
C746   N778    1.437   .     S
C746   C747    1.395   .     A
C747   H755    1.082   .     S
C748   H751    1.080   .     S
C756   C765    1.396   .     A
C756   H757    1.084   .     S
C756   C938    1.370   .     S
C758   C760    1.397   .     A
C758   H759    1.084   .     S
C760   C761    1.396   .     A
C761   H762    1.084   .     S
C763   C765    1.397   .     A
C763   H764    1.084   .     S
C763   C941    1.370   .     S
C766   N774    1.366   .     A
C766   H767    1.082   .     S
C766   C828    1.417   .     S
C768   N770    1.368   .     A
C768   H769    1.082   .     S
C768   C886    1.417   1_455 S
N770   C771    1.359   .     A
C771   H772    1.082   .     S
C771   C893    1.416   1_455 S
C773   N775    1.428   .     S
C773   N774    1.379   .     A
C773   C831    1.416   .     S
N775   O776    1.300   .     A
N775   O777    1.301   .     A
N778   O779    1.301   .     A
N778   O780    1.301   .     A
O781   Zn787   1.996   .     S
O781   C783    1.283   .     A
O782   C783    1.285   .     A
O782   Zn788   1.999   .     S
C783   C825    1.418   .     S
O784   Zn787   1.959   .     S
O784   C786    1.292   .     A
O785   Zn788   1.911   .     S
O785   C786    1.294   .     A
C786   C810    1.460   .     S
Zn787  O791    1.911   .     S
Zn787  O789    1.999   .     S
Zn787  N830    2.013   .     S
Zn788  O792    1.959   .     S
Zn788  O790    1.996   .     S
Zn788  N834    2.013   .     S
O789   C793    1.285   .     A
O790   C793    1.283   .     A
O791   C794    1.293   .     A
O792   C794    1.291   .     A
C793   C820    1.418   .     S
C794   C798    1.451   .     S
C795   C809    1.394   .     A
H796   C809    1.083   .     S
H797   C255    1.081   1_556 S
C798   C809    1.397   .     A
C798   C808    1.385   .     A
C799   C800    1.388   .     A
C799   H812    1.083   .     S
C799   C810    1.403   .     A
C800   C261    1.392   1_556 S
C800   H274    1.083   1_556 S
C801   H813    1.079   .     S
C802   C803    1.402   .     A
C802   C261    1.420   1_556 S
C802   C264    1.413   1_556 S
C803   C807    1.412   .     A
C803   C810    1.412   .     A
C804   C808    1.390   .     A
C805   C806    1.409   .     A
C805   C255    1.412   1_556 S
C805   C264    1.425   1_556 S
C806   N838    1.437   .     S
C806   C807    1.395   .     A
C807   H815    1.082   .     S
C808   H811    1.080   .     S
C816   C825    1.396   .     A
C816   H817    1.084   .     S
C816   C998    1.370   .     S
C818   C820    1.397   .     A
C818   H819    1.084   .     S
C820   C821    1.396   .     A
C821   H822    1.084   .     S
C823   C825    1.397   .     A
C823   H824    1.084   .     S
C823   C1001   1.370   .     S
C826   N834    1.366   .     A
C826   H827    1.082   .     S
C826   C888    1.417   .     S
C828   N830    1.368   .     A
C828   H829    1.082   .     S
N830   C831    1.359   .     A
C831   H832    1.082   .     S
C833   N835    1.428   .     S
C833   N834    1.379   .     A
C833   C891    1.416   .     S
N835   O836    1.300   .     A
N835   O837    1.301   .     A
N838   O839    1.301   .     A
N838   O840    1.301   .     A
O841   Zn847   1.996   .     S
O841   C843    1.283   .     A
O842   C843    1.285   .     A
O842   Zn848   1.999   .     S
C843   C885    1.418   .     S
O844   Zn847   1.959   .     S
O844   C846    1.292   .     A
O845   Zn848   1.911   .     S
O845   C846    1.294   .     A
C846   C870    1.460   .     S
Zn847  O851    1.911   .     S
Zn847  O849    1.999   .     S
Zn847  N890    2.013   .     S
Zn848  O852    1.959   .     S
Zn848  O850    1.996   .     S
Zn848  N894    2.013   .     S
O849   C853    1.285   .     A
O850   C853    1.283   .     A
O851   C854    1.293   .     A
O852   C854    1.291   .     A
C853   C880    1.418   .     S
C854   C858    1.451   .     S
C855   C869    1.394   .     A
H856   C869    1.083   .     S
H857   C315    1.081   1_556 S
C858   C869    1.397   .     A
C858   C868    1.385   .     A
C859   C860    1.388   .     A
C859   H872    1.083   .     S
C859   C870    1.403   .     A
C860   C321    1.392   1_556 S
C860   H334    1.083   1_556 S
C861   H873    1.079   .     S
C862   C863    1.402   .     A
C862   C321    1.420   1_556 S
C862   C324    1.413   1_556 S
C863   C867    1.412   .     A
C863   C870    1.412   .     A
C864   C868    1.390   .     A
C865   C866    1.409   .     A
C865   C315    1.412   1_556 S
C865   C324    1.425   1_556 S
C866   N898    1.437   .     S
C866   C867    1.395   .     A
C867   H875    1.082   .     S
C868   H871    1.080   .     S
C876   C885    1.396   .     A
C876   H877    1.084   .     S
C876   C1058   1.370   .     S
C878   C880    1.397   .     A
C878   H879    1.084   .     S
C880   C881    1.396   .     A
C881   H882    1.084   .     S
C883   C885    1.397   .     A
C883   H884    1.084   .     S
C883   C1061   1.370   .     S
C886   N894    1.366   .     A
C886   H887    1.082   .     S
C886   C768    1.417   1_655 S
C888   N890    1.368   .     A
C888   H889    1.082   .     S
N890   C891    1.359   .     A
C891   H892    1.082   .     S
C893   N895    1.428   .     S
C893   N894    1.379   .     A
C893   C771    1.416   1_655 S
N895   O896    1.300   .     A
N895   O897    1.301   .     A
N898   O899    1.301   .     A
N898   O900    1.301   .     A
O901   Zn907   1.996   .     S
O901   C903    1.283   .     A
O902   C903    1.285   .     A
O902   Zn908   1.999   .     S
C903   C945    1.418   .     S
O904   Zn907   1.959   .     S
O904   C906    1.292   .     A
O905   Zn908   1.911   .     S
O905   C906    1.294   .     A
C906   C930    1.460   .     S
Zn907  O911    1.911   .     S
Zn907  O909    1.999   .     S
Zn907  N950    2.013   .     S
Zn908  O912    1.959   .     S
Zn908  O910    1.996   .     S
Zn908  N954    2.013   .     S
O909   C913    1.285   .     A
O910   C913    1.283   .     A
O911   C914    1.293   .     A
O912   C914    1.291   .     A
C913   C940    1.418   .     S
C914   C918    1.451   .     S
C915   C929    1.394   .     A
H916   C929    1.083   .     S
H917   C375    1.081   1_556 S
C918   C929    1.397   .     A
C918   C928    1.385   .     A
C919   C920    1.388   .     A
C919   H932    1.083   .     S
C919   C930    1.403   .     A
C920   C381    1.392   1_556 S
C920   H394    1.083   1_556 S
C921   H933    1.079   .     S
C922   C923    1.402   .     A
C922   C381    1.420   1_556 S
C922   C384    1.413   1_556 S
C923   C927    1.412   .     A
C923   C930    1.412   .     A
C924   C928    1.390   .     A
C925   C926    1.409   .     A
C925   C375    1.412   1_556 S
C925   C384    1.425   1_556 S
C926   N958    1.437   .     S
C926   C927    1.395   .     A
C927   H935    1.082   .     S
C928   H931    1.080   .     S
C936   C945    1.396   .     A
C936   H937    1.084   .     S
C936   C578    1.370   1_565 S
C938   C940    1.397   .     A
C938   H939    1.084   .     S
C940   C941    1.396   .     A
C941   H942    1.084   .     S
C943   C945    1.397   .     A
C943   H944    1.084   .     S
C943   C581    1.370   1_565 S
C946   N954    1.366   .     A
C946   H947    1.082   .     S
C946   C1008   1.417   .     S
C948   N950    1.368   .     A
C948   H949    1.082   .     S
C948   C1066   1.417   1_455 S
N950   C951    1.359   .     A
C951   H952    1.082   .     S
C951   C1073   1.416   1_455 S
C953   N955    1.428   .     S
C953   N954    1.379   .     A
C953   C1011   1.416   .     S
N955   O956    1.300   .     A
N955   O957    1.301   .     A
N958   O959    1.301   .     A
N958   O960    1.301   .     A
O961   Zn967   1.996   .     S
O961   C963    1.283   .     A
O962   C963    1.285   .     A
O962   Zn968   1.999   .     S
C963   C1005   1.418   .     S
O964   Zn967   1.959   .     S
O964   C966    1.292   .     A
O965   Zn968   1.911   .     S
O965   C966    1.294   .     A
C966   C990    1.460   .     S
Zn967  O971    1.911   .     S
Zn967  O969    1.999   .     S
Zn967  N1010   2.013   .     S
Zn968  O972    1.959   .     S
Zn968  O970    1.996   .     S
Zn968  N1014   2.013   .     S
O969   C973    1.285   .     A
O970   C973    1.283   .     A
O971   C974    1.293   .     A
O972   C974    1.291   .     A
C973   C1000   1.418   .     S
C974   C978    1.451   .     S
C975   C989    1.394   .     A
H976   C989    1.083   .     S
H977   C435    1.081   1_556 S
C978   C989    1.397   .     A
C978   C988    1.385   .     A
C979   C980    1.388   .     A
C979   H992    1.083   .     S
C979   C990    1.403   .     A
C980   C441    1.392   1_556 S
C980   H454    1.083   1_556 S
C981   H993    1.079   .     S
C982   C983    1.402   .     A
C982   C441    1.420   1_556 S
C982   C444    1.413   1_556 S
C983   C987    1.412   .     A
C983   C990    1.412   .     A
C984   C988    1.390   .     A
C985   C986    1.409   .     A
C985   C435    1.412   1_556 S
C985   C444    1.425   1_556 S
C986   N1018   1.437   .     S
C986   C987    1.395   .     A
C987   H995    1.082   .     S
C988   H991    1.080   .     S
C996   C1005   1.396   .     A
C996   H997    1.084   .     S
C996   C638    1.370   1_565 S
C998   C1000   1.397   .     A
C998   H999    1.084   .     S
C1000  C1001   1.396   .     A
C1001  H1002   1.084   .     S
C1003  C1005   1.397   .     A
C1003  H1004   1.084   .     S
C1003  C641    1.370   1_565 S
C1006  N1014   1.366   .     A
C1006  H1007   1.082   .     S
C1006  C1068   1.417   .     S
C1008  N1010   1.368   .     A
C1008  H1009   1.082   .     S
N1010  C1011   1.359   .     A
C1011  H1012   1.082   .     S
C1013  N1015   1.428   .     S
C1013  N1014   1.379   .     A
C1013  C1071   1.416   .     S
N1015  O1016   1.300   .     A
N1015  O1017   1.301   .     A
N1018  O1019   1.301   .     A
N1018  O1020   1.301   .     A
O1021  Zn1027  1.996   .     S
O1021  C1023   1.283   .     A
O1022  C1023   1.285   .     A
O1022  Zn1028  1.999   .     S
C1023  C1065   1.418   .     S
O1024  Zn1027  1.959   .     S
O1024  C1026   1.292   .     A
O1025  Zn1028  1.911   .     S
O1025  C1026   1.294   .     A
C1026  C1050   1.460   .     S
Zn1027 O1031   1.911   .     S
Zn1027 O1029   1.999   .     S
Zn1027 N1070   2.013   .     S
Zn1028 O1032   1.959   .     S
Zn1028 O1030   1.996   .     S
Zn1028 N1074   2.013   .     S
O1029  C1033   1.285   .     A
O1030  C1033   1.283   .     A
O1031  C1034   1.293   .     A
O1032  C1034   1.291   .     A
C1033  C1060   1.418   .     S
C1034  C1038   1.451   .     S
C1035  C1049   1.394   .     A
H1036  C1049   1.083   .     S
H1037  C495    1.081   1_556 S
C1038  C1049   1.397   .     A
C1038  C1048   1.385   .     A
C1039  C1040   1.388   .     A
C1039  H1052   1.083   .     S
C1039  C1050   1.403   .     A
C1040  C501    1.392   1_556 S
C1040  H514    1.083   1_556 S
C1041  H1053   1.079   .     S
C1042  C1043   1.402   .     A
C1042  C501    1.420   1_556 S
C1042  C504    1.413   1_556 S
C1043  C1047   1.412   .     A
C1043  C1050   1.412   .     A
C1044  C1048   1.390   .     A
C1045  C1046   1.409   .     A
C1045  C495    1.412   1_556 S
C1045  C504    1.425   1_556 S
C1046  N1078   1.437   .     S
C1046  C1047   1.395   .     A
C1047  H1055   1.082   .     S
C1048  H1051   1.080   .     S
C1056  C1065   1.396   .     A
C1056  H1057   1.084   .     S
C1056  C698    1.370   1_565 S
C1058  C1060   1.397   .     A
C1058  H1059   1.084   .     S
C1060  C1061   1.396   .     A
C1061  H1062   1.084   .     S
C1063  C1065   1.397   .     A
C1063  H1064   1.084   .     S
C1063  C701    1.370   1_565 S
C1066  N1074   1.366   .     A
C1066  H1067   1.082   .     S
C1066  C948    1.417   1_655 S
C1068  N1070   1.368   .     A
C1068  H1069   1.082   .     S
N1070  C1071   1.359   .     A
C1071  H1072   1.082   .     S
C1073  N1075   1.428   .     S
C1073  N1074   1.379   .     A
C1073  C951    1.416   1_655 S
N1075  O1076   1.300   .     A
N1075  O1077   1.301   .     A
N1078  O1079   1.301   .     A
N1078  O1080   1.301   .     A
