data_str_m2_o1_o16_pcu_sym.21
_audit_creation_date              2020-01-03
_audit_creation_method            'Materials Studio'
_symmetry_space_group_name_H-M    'P1'
_symmetry_Int_Tables_number       1
_symmetry_cell_setting            triclinic
loop_
_symmetry_equiv_pos_as_xyz
  x,y,z
_cell_length_a                    28.5754
_cell_length_b                    32.4805
_cell_length_c                    26.7596
_cell_angle_alpha                 90.6093
_cell_angle_beta                  72.5945
_cell_angle_gamma                 90.1881
loop_
_atom_site_label
_atom_site_type_symbol
_atom_site_fract_x
_atom_site_fract_y
_atom_site_fract_z
_atom_site_U_iso_or_equiv
_atom_site_adp_type
_atom_site_occupancy
C1     C     0.16674   0.24597   0.24991   0.00000  Uiso   1.00
C2     C     0.12399   0.17261   0.40798   0.00000  Uiso   1.00
C3     C     0.20963   0.31217   0.24848   0.00000  Uiso   1.00
C4     C     0.14042   0.16907   0.35023   0.00000  Uiso   1.00
C5     C     0.20958   0.02141   0.24846   0.00000  Uiso   1.00
C6     C     0.16668   0.04274   0.24972   0.00000  Uiso   1.00
C7     C     0.12386   0.02116   0.25090   0.00000  Uiso   1.00
C8     C     0.12394   0.31191   0.25078   0.00000  Uiso   1.00
C9     C     0.16680   0.29058   0.24970   0.00000  Uiso   1.00
C10    C     0.30107   0.19581   0.27741   0.00000  Uiso   1.00
C11    C     0.01709   0.19554   0.27788   0.00000  Uiso   1.00
C12    C     0.14226   0.17933   0.49146   0.00000  Uiso   1.00
C13    C     0.03321   0.13790   0.22068   0.00000  Uiso   1.00
C14    C     0.31589   0.13767   0.22223   0.00000  Uiso   1.00
C15    C     0.16664   0.08736   0.24989   0.00000  Uiso   1.00
C16    C     0.19288   0.16754   0.14989   0.00000  Uiso   1.00
C17    C     0.26090   0.20685   0.01619   0.00000  Uiso   1.00
C18    C     0.20759   0.17457   0.09342   0.00000  Uiso   1.00
C19    C     0.07622   0.15998   0.43508   0.00000  Uiso   1.00
C20    C     0.06008   0.16032   0.48940   0.00000  Uiso   1.00
C21    C     0.09209   0.17064   0.01813   0.00000  Uiso   1.00
C22    C     0.05710   0.09103   0.14901   0.00000  Uiso   1.00
C23    C     0.15572   0.18612   0.43672   0.00000  Uiso   1.00
C24    C     0.03530   0.04799   0.16080   0.00000  Uiso   1.00
C25    C     0.04899   0.21090   0.08780   0.00000  Uiso   1.00
C26    C     0.08217   0.24097   0.10532   0.00000  Uiso   1.00
C27    C     0.17930   0.18296   0.01690   0.00000  Uiso   1.00
C28    C     0.22489   0.20164   0.49066   0.00000  Uiso   1.00
C29    C     0.23378   0.21510   0.43943   0.00000  Uiso   1.00
C30    C     0.19985   0.20724   0.41271   0.00000  Uiso   1.00
C31    C     0.17328   0.16696   0.06679   0.00000  Uiso   1.00
C32    C     0.25186   0.19407   0.06777   0.00000  Uiso   1.00
Cu33   Cu    0.11978   0.16666   0.25000   0.00000  Uiso   1.00
Cu34   Cu    0.21355   0.16667   0.25000   0.00000  Uiso   1.00
H35    H     0.27869   0.20042   0.08801   0.00000  Uiso   1.00
H36    H     0.14222   0.14805   0.08585   0.00000  Uiso   1.00
H37    H     0.05092   0.15007   0.41423   0.00000  Uiso   1.00
H38    H     0.02241   0.15222   0.00958   0.00000  Uiso   1.00
H39    H     0.20784   0.21937   0.37371   0.00000  Uiso   1.00
H40    H     0.24315   0.29625   0.24756   0.00000  Uiso   1.00
H41    H     0.09270   0.08770   0.11791   0.00000  Uiso   1.00
H42    H     0.03427   0.11076   0.13181   0.00000  Uiso   1.00
H43    H     0.00137   0.04870   0.19448   0.00000  Uiso   1.00
H44    H     0.02645   0.03539   0.12597   0.00000  Uiso   1.00
H45    H     0.06218   0.02725   0.17033   0.00000  Uiso   1.00
H46    H     0.24306   0.03754   0.24753   0.00000  Uiso   1.00
H47    H     0.01642   0.20500   0.12200   0.00000  Uiso   1.00
H48    H     0.03520   0.22554   0.05735   0.00000  Uiso   1.00
H49    H     0.09500   0.22705   0.13662   0.00000  Uiso   1.00
H50    H     0.06156   0.26959   0.12093   0.00000  Uiso   1.00
H51    H     0.11434   0.24905   0.07172   0.00000  Uiso   1.00
H52    H     0.09030   0.03709   0.25210   0.00000  Uiso   1.00
H53    H     0.09044   0.29580   0.25171   0.00000  Uiso   1.00
H54    H     0.27660   0.21943   0.29911   0.00000  Uiso   1.00
H55    H     0.02947   0.21862   0.30048   0.00000  Uiso   1.00
H56    H     0.30150   0.11444   0.20174   0.00000  Uiso   1.00
H57    H     0.26759   0.23089   0.41949   0.00000  Uiso   1.00
H58    H     0.29553   0.22162   0.49668   0.00000  Uiso   1.00
N59    N     0.04931   0.16666   0.24999   0.00000  Uiso   1.00
N60    N     0.28402   0.16669   0.24999   0.00000  Uiso   1.00
O61    O     0.12708   0.22678   0.25001   0.00000  Uiso   1.00
O62    O     0.07333   0.17288   0.07211   0.00000  Uiso   1.00
O63    O     0.20627   0.22679   0.25001   0.00000  Uiso   1.00
O64    O     0.10775   0.16665   0.32549   0.00000  Uiso   1.00
O65    O     0.18694   0.16666   0.32549   0.00000  Uiso   1.00
O66    O     0.12706   0.10654   0.25000   0.00000  Uiso   1.00
O67    O     0.20625   0.10655   0.24999   0.00000  Uiso   1.00
O68    O     0.14640   0.16667   0.17451   0.00000  Uiso   1.00
O69    O     0.22559   0.16668   0.17451   0.00000  Uiso   1.00
O70    O     0.06674   0.10820   0.19379   0.00000  Uiso   1.00
C71    C     0.50008   0.24597   0.24991   0.00000  Uiso   1.00
C72    C     0.45732   0.17261   0.40798   0.00000  Uiso   1.00
C73    C     0.54297   0.31217   0.24848   0.00000  Uiso   1.00
C74    C     0.47375   0.16907   0.35023   0.00000  Uiso   1.00
C75    C     0.54292   0.02141   0.24846   0.00000  Uiso   1.00
C76    C     0.50002   0.04274   0.24972   0.00000  Uiso   1.00
C77    C     0.45720   0.02116   0.25090   0.00000  Uiso   1.00
C78    C     0.45727   0.31191   0.25078   0.00000  Uiso   1.00
C79    C     0.50013   0.29058   0.24970   0.00000  Uiso   1.00
C80    C     0.63440   0.19581   0.27741   0.00000  Uiso   1.00
C81    C     0.35042   0.19554   0.27788   0.00000  Uiso   1.00
C82    C     0.47559   0.17933   0.49146   0.00000  Uiso   1.00
C83    C     0.36654   0.13790   0.22068   0.00000  Uiso   1.00
C84    C     0.64922   0.13767   0.22223   0.00000  Uiso   1.00
C85    C     0.49998   0.08736   0.24989   0.00000  Uiso   1.00
C86    C     0.52621   0.16754   0.14989   0.00000  Uiso   1.00
C87    C     0.59423   0.20685   0.01619   0.00000  Uiso   1.00
C88    C     0.54092   0.17457   0.09342   0.00000  Uiso   1.00
C89    C     0.40955   0.15998   0.43508   0.00000  Uiso   1.00
C90    C     0.39341   0.16032   0.48940   0.00000  Uiso   1.00
C91    C     0.42542   0.17064   0.01813   0.00000  Uiso   1.00
C92    C     0.39043   0.09103   0.14901   0.00000  Uiso   1.00
C93    C     0.48906   0.18612   0.43672   0.00000  Uiso   1.00
C94    C     0.36863   0.04799   0.16080   0.00000  Uiso   1.00
C95    C     0.38232   0.21090   0.08780   0.00000  Uiso   1.00
C96    C     0.41550   0.24097   0.10532   0.00000  Uiso   1.00
C97    C     0.51263   0.18296   0.01690   0.00000  Uiso   1.00
C98    C     0.55822   0.20164   0.49066   0.00000  Uiso   1.00
C99    C     0.56712   0.21510   0.43943   0.00000  Uiso   1.00
C100   C     0.53318   0.20724   0.41271   0.00000  Uiso   1.00
C101   C     0.50662   0.16696   0.06679   0.00000  Uiso   1.00
C102   C     0.58520   0.19407   0.06777   0.00000  Uiso   1.00
Cu103  Cu    0.45311   0.16666   0.25000   0.00000  Uiso   1.00
Cu104  Cu    0.54689   0.16667   0.25000   0.00000  Uiso   1.00
H105   H     0.61203   0.20042   0.08801   0.00000  Uiso   1.00
H106   H     0.47556   0.14805   0.08585   0.00000  Uiso   1.00
H107   H     0.38425   0.15007   0.41423   0.00000  Uiso   1.00
H108   H     0.35574   0.15222   0.00958   0.00000  Uiso   1.00
H109   H     0.54117   0.21937   0.37371   0.00000  Uiso   1.00
H110   H     0.57648   0.29625   0.24756   0.00000  Uiso   1.00
H111   H     0.42603   0.08770   0.11791   0.00000  Uiso   1.00
H112   H     0.36760   0.11076   0.13181   0.00000  Uiso   1.00
H113   H     0.33470   0.04870   0.19448   0.00000  Uiso   1.00
H114   H     0.35978   0.03539   0.12597   0.00000  Uiso   1.00
H115   H     0.39552   0.02725   0.17033   0.00000  Uiso   1.00
H116   H     0.57640   0.03754   0.24753   0.00000  Uiso   1.00
H117   H     0.34975   0.20500   0.12200   0.00000  Uiso   1.00
H118   H     0.36853   0.22554   0.05735   0.00000  Uiso   1.00
H119   H     0.42834   0.22705   0.13662   0.00000  Uiso   1.00
H120   H     0.39489   0.26959   0.12093   0.00000  Uiso   1.00
H121   H     0.44768   0.24905   0.07172   0.00000  Uiso   1.00
H122   H     0.42364   0.03709   0.25210   0.00000  Uiso   1.00
H123   H     0.42377   0.29580   0.25171   0.00000  Uiso   1.00
H124   H     0.60993   0.21943   0.29911   0.00000  Uiso   1.00
H125   H     0.36281   0.21862   0.30048   0.00000  Uiso   1.00
H126   H     0.63483   0.11444   0.20174   0.00000  Uiso   1.00
H127   H     0.60093   0.23089   0.41949   0.00000  Uiso   1.00
H128   H     0.62886   0.22162   0.49668   0.00000  Uiso   1.00
N129   N     0.38265   0.16666   0.24999   0.00000  Uiso   1.00
N130   N     0.61735   0.16669   0.24999   0.00000  Uiso   1.00
O131   O     0.46042   0.22678   0.25001   0.00000  Uiso   1.00
O132   O     0.40666   0.17288   0.07211   0.00000  Uiso   1.00
O133   O     0.53961   0.22679   0.25001   0.00000  Uiso   1.00
O134   O     0.44108   0.16665   0.32549   0.00000  Uiso   1.00
O135   O     0.52027   0.16666   0.32549   0.00000  Uiso   1.00
O136   O     0.46039   0.10654   0.25000   0.00000  Uiso   1.00
O137   O     0.53958   0.10655   0.24999   0.00000  Uiso   1.00
O138   O     0.47973   0.16667   0.17451   0.00000  Uiso   1.00
O139   O     0.55892   0.16668   0.17451   0.00000  Uiso   1.00
O140   O     0.40007   0.10820   0.19379   0.00000  Uiso   1.00
C141   C     0.83341   0.24597   0.24991   0.00000  Uiso   1.00
C142   C     0.79066   0.17261   0.40798   0.00000  Uiso   1.00
C143   C     0.87630   0.31217   0.24848   0.00000  Uiso   1.00
C144   C     0.80708   0.16907   0.35023   0.00000  Uiso   1.00
C145   C     0.87625   0.02141   0.24846   0.00000  Uiso   1.00
C146   C     0.83335   0.04274   0.24972   0.00000  Uiso   1.00
C147   C     0.79053   0.02116   0.25090   0.00000  Uiso   1.00
C148   C     0.79061   0.31191   0.25078   0.00000  Uiso   1.00
C149   C     0.83347   0.29058   0.24970   0.00000  Uiso   1.00
C150   C     0.96774   0.19581   0.27741   0.00000  Uiso   1.00
C151   C     0.68375   0.19554   0.27788   0.00000  Uiso   1.00
C152   C     0.80893   0.17933   0.49146   0.00000  Uiso   1.00
C153   C     0.69987   0.13790   0.22068   0.00000  Uiso   1.00
C154   C     0.98255   0.13767   0.22223   0.00000  Uiso   1.00
C155   C     0.83331   0.08736   0.24989   0.00000  Uiso   1.00
C156   C     0.85954   0.16754   0.14989   0.00000  Uiso   1.00
C157   C     0.92757   0.20685   0.01619   0.00000  Uiso   1.00
C158   C     0.87426   0.17457   0.09342   0.00000  Uiso   1.00
C159   C     0.74288   0.15998   0.43508   0.00000  Uiso   1.00
C160   C     0.72675   0.16032   0.48940   0.00000  Uiso   1.00
C161   C     0.75876   0.17064   0.01813   0.00000  Uiso   1.00
C162   C     0.72377   0.09103   0.14901   0.00000  Uiso   1.00
C163   C     0.82239   0.18612   0.43672   0.00000  Uiso   1.00
C164   C     0.70196   0.04799   0.16080   0.00000  Uiso   1.00
C165   C     0.71565   0.21090   0.08780   0.00000  Uiso   1.00
C166   C     0.74884   0.24097   0.10532   0.00000  Uiso   1.00
C167   C     0.84597   0.18296   0.01690   0.00000  Uiso   1.00
C168   C     0.89156   0.20164   0.49066   0.00000  Uiso   1.00
C169   C     0.90045   0.21510   0.43943   0.00000  Uiso   1.00
C170   C     0.86651   0.20724   0.41271   0.00000  Uiso   1.00
C171   C     0.83995   0.16696   0.06679   0.00000  Uiso   1.00
C172   C     0.91853   0.19407   0.06777   0.00000  Uiso   1.00
Cu173  Cu    0.78645   0.16666   0.25000   0.00000  Uiso   1.00
Cu174  Cu    0.88022   0.16667   0.25000   0.00000  Uiso   1.00
H175   H     0.94536   0.20042   0.08801   0.00000  Uiso   1.00
H176   H     0.80889   0.14805   0.08585   0.00000  Uiso   1.00
H177   H     0.71759   0.15007   0.41423   0.00000  Uiso   1.00
H178   H     0.68907   0.15222   0.00958   0.00000  Uiso   1.00
H179   H     0.87450   0.21937   0.37371   0.00000  Uiso   1.00
H180   H     0.90981   0.29625   0.24756   0.00000  Uiso   1.00
H181   H     0.75937   0.08770   0.11791   0.00000  Uiso   1.00
H182   H     0.70094   0.11076   0.13181   0.00000  Uiso   1.00
H183   H     0.66804   0.04870   0.19448   0.00000  Uiso   1.00
H184   H     0.69311   0.03539   0.12597   0.00000  Uiso   1.00
H185   H     0.72885   0.02725   0.17033   0.00000  Uiso   1.00
H186   H     0.90973   0.03754   0.24753   0.00000  Uiso   1.00
H187   H     0.68308   0.20500   0.12200   0.00000  Uiso   1.00
H188   H     0.70187   0.22554   0.05735   0.00000  Uiso   1.00
H189   H     0.76167   0.22705   0.13662   0.00000  Uiso   1.00
H190   H     0.72822   0.26959   0.12093   0.00000  Uiso   1.00
H191   H     0.78101   0.24905   0.07172   0.00000  Uiso   1.00
H192   H     0.75697   0.03709   0.25210   0.00000  Uiso   1.00
H193   H     0.75710   0.29580   0.25171   0.00000  Uiso   1.00
H194   H     0.94327   0.21943   0.29911   0.00000  Uiso   1.00
H195   H     0.69614   0.21862   0.30048   0.00000  Uiso   1.00
H196   H     0.96816   0.11444   0.20174   0.00000  Uiso   1.00
H197   H     0.93426   0.23089   0.41949   0.00000  Uiso   1.00
H198   H     0.96219   0.22162   0.49668   0.00000  Uiso   1.00
N199   N     0.71598   0.16666   0.24999   0.00000  Uiso   1.00
N200   N     0.95069   0.16669   0.24999   0.00000  Uiso   1.00
O201   O     0.79375   0.22678   0.25001   0.00000  Uiso   1.00
O202   O     0.74000   0.17288   0.07211   0.00000  Uiso   1.00
O203   O     0.87294   0.22679   0.25001   0.00000  Uiso   1.00
O204   O     0.77441   0.16665   0.32549   0.00000  Uiso   1.00
O205   O     0.85360   0.16666   0.32549   0.00000  Uiso   1.00
O206   O     0.79373   0.10654   0.25000   0.00000  Uiso   1.00
O207   O     0.87292   0.10655   0.24999   0.00000  Uiso   1.00
O208   O     0.81306   0.16667   0.17451   0.00000  Uiso   1.00
O209   O     0.89225   0.16668   0.17451   0.00000  Uiso   1.00
O210   O     0.73341   0.10820   0.19379   0.00000  Uiso   1.00
C211   C     0.16674   0.57930   0.24991   0.00000  Uiso   1.00
C212   C     0.12399   0.50595   0.40798   0.00000  Uiso   1.00
C213   C     0.20963   0.64550   0.24848   0.00000  Uiso   1.00
C214   C     0.14042   0.50240   0.35023   0.00000  Uiso   1.00
C215   C     0.20958   0.35475   0.24846   0.00000  Uiso   1.00
C216   C     0.16668   0.37608   0.24972   0.00000  Uiso   1.00
C217   C     0.12386   0.35449   0.25090   0.00000  Uiso   1.00
C218   C     0.12394   0.64525   0.25078   0.00000  Uiso   1.00
C219   C     0.16680   0.62392   0.24970   0.00000  Uiso   1.00
C220   C     0.30107   0.52914   0.27741   0.00000  Uiso   1.00
C221   C     0.01709   0.52887   0.27788   0.00000  Uiso   1.00
C222   C     0.14226   0.51267   0.49146   0.00000  Uiso   1.00
C223   C     0.03321   0.47123   0.22068   0.00000  Uiso   1.00
C224   C     0.31589   0.47100   0.22223   0.00000  Uiso   1.00
C225   C     0.16664   0.42070   0.24989   0.00000  Uiso   1.00
C226   C     0.19288   0.50088   0.14989   0.00000  Uiso   1.00
C227   C     0.26090   0.54018   0.01619   0.00000  Uiso   1.00
C228   C     0.20759   0.50791   0.09342   0.00000  Uiso   1.00
C229   C     0.07622   0.49331   0.43508   0.00000  Uiso   1.00
C230   C     0.06008   0.49365   0.48940   0.00000  Uiso   1.00
C231   C     0.09209   0.50397   0.01813   0.00000  Uiso   1.00
C232   C     0.05710   0.42436   0.14901   0.00000  Uiso   1.00
C233   C     0.15572   0.51946   0.43672   0.00000  Uiso   1.00
C234   C     0.03530   0.38132   0.16080   0.00000  Uiso   1.00
C235   C     0.04899   0.54424   0.08780   0.00000  Uiso   1.00
C236   C     0.08217   0.57431   0.10532   0.00000  Uiso   1.00
C237   C     0.17930   0.51630   0.01690   0.00000  Uiso   1.00
C238   C     0.22489   0.53497   0.49066   0.00000  Uiso   1.00
C239   C     0.23378   0.54844   0.43943   0.00000  Uiso   1.00
C240   C     0.19985   0.54057   0.41271   0.00000  Uiso   1.00
C241   C     0.17328   0.50029   0.06679   0.00000  Uiso   1.00
C242   C     0.25186   0.52740   0.06777   0.00000  Uiso   1.00
Cu243  Cu    0.11978   0.49999   0.25000   0.00000  Uiso   1.00
Cu244  Cu    0.21355   0.50001   0.25000   0.00000  Uiso   1.00
H245   H     0.27869   0.53376   0.08801   0.00000  Uiso   1.00
H246   H     0.14222   0.48138   0.08585   0.00000  Uiso   1.00
H247   H     0.05092   0.48340   0.41423   0.00000  Uiso   1.00
H248   H     0.02241   0.48556   0.00958   0.00000  Uiso   1.00
H249   H     0.20784   0.55271   0.37371   0.00000  Uiso   1.00
H250   H     0.24315   0.62958   0.24756   0.00000  Uiso   1.00
H251   H     0.09270   0.42104   0.11791   0.00000  Uiso   1.00
H252   H     0.03427   0.44409   0.13181   0.00000  Uiso   1.00
H253   H     0.00137   0.38204   0.19448   0.00000  Uiso   1.00
H254   H     0.02645   0.36872   0.12597   0.00000  Uiso   1.00
H255   H     0.06218   0.36059   0.17033   0.00000  Uiso   1.00
H256   H     0.24306   0.37087   0.24753   0.00000  Uiso   1.00
H257   H     0.01642   0.53833   0.12200   0.00000  Uiso   1.00
H258   H     0.03520   0.55887   0.05735   0.00000  Uiso   1.00
H259   H     0.09500   0.56039   0.13662   0.00000  Uiso   1.00
H260   H     0.06156   0.60292   0.12093   0.00000  Uiso   1.00
H261   H     0.11434   0.58238   0.07172   0.00000  Uiso   1.00
H262   H     0.09030   0.37042   0.25210   0.00000  Uiso   1.00
H263   H     0.09044   0.62913   0.25171   0.00000  Uiso   1.00
H264   H     0.27660   0.55276   0.29911   0.00000  Uiso   1.00
H265   H     0.02947   0.55196   0.30048   0.00000  Uiso   1.00
H266   H     0.30150   0.44777   0.20174   0.00000  Uiso   1.00
H267   H     0.26759   0.56422   0.41949   0.00000  Uiso   1.00
H268   H     0.29553   0.55495   0.49668   0.00000  Uiso   1.00
N269   N     0.04931   0.49999   0.24999   0.00000  Uiso   1.00
N270   N     0.28402   0.50002   0.24999   0.00000  Uiso   1.00
O271   O     0.12708   0.56011   0.25001   0.00000  Uiso   1.00
O272   O     0.07333   0.50621   0.07211   0.00000  Uiso   1.00
O273   O     0.20627   0.56012   0.25001   0.00000  Uiso   1.00
O274   O     0.10775   0.49998   0.32549   0.00000  Uiso   1.00
O275   O     0.18694   0.49999   0.32549   0.00000  Uiso   1.00
O276   O     0.12706   0.43988   0.25000   0.00000  Uiso   1.00
O277   O     0.20625   0.43989   0.24999   0.00000  Uiso   1.00
O278   O     0.14640   0.50001   0.17451   0.00000  Uiso   1.00
O279   O     0.22559   0.50002   0.17451   0.00000  Uiso   1.00
O280   O     0.06674   0.44153   0.19379   0.00000  Uiso   1.00
C281   C     0.50008   0.57930   0.24991   0.00000  Uiso   1.00
C282   C     0.45732   0.50595   0.40798   0.00000  Uiso   1.00
C283   C     0.54297   0.64550   0.24848   0.00000  Uiso   1.00
C284   C     0.47375   0.50240   0.35023   0.00000  Uiso   1.00
C285   C     0.54292   0.35475   0.24846   0.00000  Uiso   1.00
C286   C     0.50002   0.37608   0.24972   0.00000  Uiso   1.00
C287   C     0.45720   0.35449   0.25090   0.00000  Uiso   1.00
C288   C     0.45727   0.64525   0.25078   0.00000  Uiso   1.00
C289   C     0.50013   0.62392   0.24970   0.00000  Uiso   1.00
C290   C     0.63440   0.52914   0.27741   0.00000  Uiso   1.00
C291   C     0.35042   0.52887   0.27788   0.00000  Uiso   1.00
C292   C     0.47559   0.51267   0.49146   0.00000  Uiso   1.00
C293   C     0.36654   0.47123   0.22068   0.00000  Uiso   1.00
C294   C     0.64922   0.47100   0.22223   0.00000  Uiso   1.00
C295   C     0.49998   0.42070   0.24989   0.00000  Uiso   1.00
C296   C     0.52621   0.50088   0.14989   0.00000  Uiso   1.00
C297   C     0.59423   0.54018   0.01619   0.00000  Uiso   1.00
C298   C     0.54092   0.50791   0.09342   0.00000  Uiso   1.00
C299   C     0.40955   0.49331   0.43508   0.00000  Uiso   1.00
C300   C     0.39341   0.49365   0.48940   0.00000  Uiso   1.00
C301   C     0.42542   0.50397   0.01813   0.00000  Uiso   1.00
C302   C     0.39043   0.42436   0.14901   0.00000  Uiso   1.00
C303   C     0.48906   0.51946   0.43672   0.00000  Uiso   1.00
C304   C     0.36863   0.38132   0.16080   0.00000  Uiso   1.00
C305   C     0.38232   0.54424   0.08780   0.00000  Uiso   1.00
C306   C     0.41550   0.57431   0.10532   0.00000  Uiso   1.00
C307   C     0.51263   0.51630   0.01690   0.00000  Uiso   1.00
C308   C     0.55822   0.53497   0.49066   0.00000  Uiso   1.00
C309   C     0.56712   0.54844   0.43943   0.00000  Uiso   1.00
C310   C     0.53318   0.54057   0.41271   0.00000  Uiso   1.00
C311   C     0.50662   0.50029   0.06679   0.00000  Uiso   1.00
C312   C     0.58520   0.52740   0.06777   0.00000  Uiso   1.00
Cu313  Cu    0.45311   0.49999   0.25000   0.00000  Uiso   1.00
Cu314  Cu    0.54689   0.50001   0.25000   0.00000  Uiso   1.00
H315   H     0.61203   0.53376   0.08801   0.00000  Uiso   1.00
H316   H     0.47556   0.48138   0.08585   0.00000  Uiso   1.00
H317   H     0.38425   0.48340   0.41423   0.00000  Uiso   1.00
H318   H     0.35574   0.48556   0.00958   0.00000  Uiso   1.00
H319   H     0.54117   0.55271   0.37371   0.00000  Uiso   1.00
H320   H     0.57648   0.62958   0.24756   0.00000  Uiso   1.00
H321   H     0.42603   0.42104   0.11791   0.00000  Uiso   1.00
H322   H     0.36760   0.44409   0.13181   0.00000  Uiso   1.00
H323   H     0.33470   0.38204   0.19448   0.00000  Uiso   1.00
H324   H     0.35978   0.36872   0.12597   0.00000  Uiso   1.00
H325   H     0.39552   0.36059   0.17033   0.00000  Uiso   1.00
H326   H     0.57640   0.37087   0.24753   0.00000  Uiso   1.00
H327   H     0.34975   0.53833   0.12200   0.00000  Uiso   1.00
H328   H     0.36853   0.55887   0.05735   0.00000  Uiso   1.00
H329   H     0.42834   0.56039   0.13662   0.00000  Uiso   1.00
H330   H     0.39489   0.60292   0.12093   0.00000  Uiso   1.00
H331   H     0.44768   0.58238   0.07172   0.00000  Uiso   1.00
H332   H     0.42364   0.37042   0.25210   0.00000  Uiso   1.00
H333   H     0.42377   0.62913   0.25171   0.00000  Uiso   1.00
H334   H     0.60993   0.55276   0.29911   0.00000  Uiso   1.00
H335   H     0.36281   0.55196   0.30048   0.00000  Uiso   1.00
H336   H     0.63483   0.44777   0.20174   0.00000  Uiso   1.00
H337   H     0.60093   0.56422   0.41949   0.00000  Uiso   1.00
H338   H     0.62886   0.55495   0.49668   0.00000  Uiso   1.00
N339   N     0.38265   0.49999   0.24999   0.00000  Uiso   1.00
N340   N     0.61735   0.50002   0.24999   0.00000  Uiso   1.00
O341   O     0.46042   0.56011   0.25001   0.00000  Uiso   1.00
O342   O     0.40666   0.50621   0.07211   0.00000  Uiso   1.00
O343   O     0.53961   0.56012   0.25001   0.00000  Uiso   1.00
O344   O     0.44108   0.49998   0.32549   0.00000  Uiso   1.00
O345   O     0.52027   0.49999   0.32549   0.00000  Uiso   1.00
O346   O     0.46039   0.43988   0.25000   0.00000  Uiso   1.00
O347   O     0.53958   0.43989   0.24999   0.00000  Uiso   1.00
O348   O     0.47973   0.50001   0.17451   0.00000  Uiso   1.00
O349   O     0.55892   0.50002   0.17451   0.00000  Uiso   1.00
O350   O     0.40007   0.44153   0.19379   0.00000  Uiso   1.00
C351   C     0.83341   0.57930   0.24991   0.00000  Uiso   1.00
C352   C     0.79066   0.50595   0.40798   0.00000  Uiso   1.00
C353   C     0.87630   0.64550   0.24848   0.00000  Uiso   1.00
C354   C     0.80708   0.50240   0.35023   0.00000  Uiso   1.00
C355   C     0.87625   0.35475   0.24846   0.00000  Uiso   1.00
C356   C     0.83335   0.37608   0.24972   0.00000  Uiso   1.00
C357   C     0.79053   0.35449   0.25090   0.00000  Uiso   1.00
C358   C     0.79061   0.64525   0.25078   0.00000  Uiso   1.00
C359   C     0.83347   0.62392   0.24970   0.00000  Uiso   1.00
C360   C     0.96774   0.52914   0.27741   0.00000  Uiso   1.00
C361   C     0.68375   0.52887   0.27788   0.00000  Uiso   1.00
C362   C     0.80893   0.51267   0.49146   0.00000  Uiso   1.00
C363   C     0.69987   0.47123   0.22068   0.00000  Uiso   1.00
C364   C     0.98255   0.47100   0.22223   0.00000  Uiso   1.00
C365   C     0.83331   0.42070   0.24989   0.00000  Uiso   1.00
C366   C     0.85954   0.50088   0.14989   0.00000  Uiso   1.00
C367   C     0.92757   0.54018   0.01619   0.00000  Uiso   1.00
C368   C     0.87426   0.50791   0.09342   0.00000  Uiso   1.00
C369   C     0.74288   0.49331   0.43508   0.00000  Uiso   1.00
C370   C     0.72675   0.49365   0.48940   0.00000  Uiso   1.00
C371   C     0.75876   0.50397   0.01813   0.00000  Uiso   1.00
C372   C     0.72377   0.42436   0.14901   0.00000  Uiso   1.00
C373   C     0.82239   0.51946   0.43672   0.00000  Uiso   1.00
C374   C     0.70196   0.38132   0.16080   0.00000  Uiso   1.00
C375   C     0.71565   0.54424   0.08780   0.00000  Uiso   1.00
C376   C     0.74884   0.57431   0.10532   0.00000  Uiso   1.00
C377   C     0.84597   0.51630   0.01690   0.00000  Uiso   1.00
C378   C     0.89156   0.53497   0.49066   0.00000  Uiso   1.00
C379   C     0.90045   0.54844   0.43943   0.00000  Uiso   1.00
C380   C     0.86651   0.54057   0.41271   0.00000  Uiso   1.00
C381   C     0.83995   0.50029   0.06679   0.00000  Uiso   1.00
C382   C     0.91853   0.52740   0.06777   0.00000  Uiso   1.00
Cu383  Cu    0.78645   0.49999   0.25000   0.00000  Uiso   1.00
Cu384  Cu    0.88022   0.50001   0.25000   0.00000  Uiso   1.00
H385   H     0.94536   0.53376   0.08801   0.00000  Uiso   1.00
H386   H     0.80889   0.48138   0.08585   0.00000  Uiso   1.00
H387   H     0.71759   0.48340   0.41423   0.00000  Uiso   1.00
H388   H     0.68907   0.48556   0.00958   0.00000  Uiso   1.00
H389   H     0.87450   0.55271   0.37371   0.00000  Uiso   1.00
H390   H     0.90981   0.62958   0.24756   0.00000  Uiso   1.00
H391   H     0.75937   0.42104   0.11791   0.00000  Uiso   1.00
H392   H     0.70094   0.44409   0.13181   0.00000  Uiso   1.00
H393   H     0.66804   0.38204   0.19448   0.00000  Uiso   1.00
H394   H     0.69311   0.36872   0.12597   0.00000  Uiso   1.00
H395   H     0.72885   0.36059   0.17033   0.00000  Uiso   1.00
H396   H     0.90973   0.37087   0.24753   0.00000  Uiso   1.00
H397   H     0.68308   0.53833   0.12200   0.00000  Uiso   1.00
H398   H     0.70187   0.55887   0.05735   0.00000  Uiso   1.00
H399   H     0.76167   0.56039   0.13662   0.00000  Uiso   1.00
H400   H     0.72822   0.60292   0.12093   0.00000  Uiso   1.00
H401   H     0.78101   0.58238   0.07172   0.00000  Uiso   1.00
H402   H     0.75697   0.37042   0.25210   0.00000  Uiso   1.00
H403   H     0.75710   0.62913   0.25171   0.00000  Uiso   1.00
H404   H     0.94327   0.55276   0.29911   0.00000  Uiso   1.00
H405   H     0.69614   0.55196   0.30048   0.00000  Uiso   1.00
H406   H     0.96816   0.44777   0.20174   0.00000  Uiso   1.00
H407   H     0.93426   0.56422   0.41949   0.00000  Uiso   1.00
H408   H     0.96219   0.55495   0.49668   0.00000  Uiso   1.00
N409   N     0.71598   0.49999   0.24999   0.00000  Uiso   1.00
N410   N     0.95069   0.50002   0.24999   0.00000  Uiso   1.00
O411   O     0.79375   0.56011   0.25001   0.00000  Uiso   1.00
O412   O     0.74000   0.50621   0.07211   0.00000  Uiso   1.00
O413   O     0.87294   0.56012   0.25001   0.00000  Uiso   1.00
O414   O     0.77441   0.49998   0.32549   0.00000  Uiso   1.00
O415   O     0.85360   0.49999   0.32549   0.00000  Uiso   1.00
O416   O     0.79373   0.43988   0.25000   0.00000  Uiso   1.00
O417   O     0.87292   0.43989   0.24999   0.00000  Uiso   1.00
O418   O     0.81306   0.50001   0.17451   0.00000  Uiso   1.00
O419   O     0.89225   0.50002   0.17451   0.00000  Uiso   1.00
O420   O     0.73341   0.44153   0.19379   0.00000  Uiso   1.00
C421   C     0.16674   0.91263   0.24991   0.00000  Uiso   1.00
C422   C     0.12399   0.83928   0.40798   0.00000  Uiso   1.00
C423   C     0.20963   0.97883   0.24848   0.00000  Uiso   1.00
C424   C     0.14042   0.83573   0.35023   0.00000  Uiso   1.00
C425   C     0.20958   0.68808   0.24846   0.00000  Uiso   1.00
C426   C     0.16668   0.70941   0.24972   0.00000  Uiso   1.00
C427   C     0.12386   0.68783   0.25090   0.00000  Uiso   1.00
C428   C     0.12394   0.97858   0.25078   0.00000  Uiso   1.00
C429   C     0.16680   0.95725   0.24970   0.00000  Uiso   1.00
C430   C     0.30107   0.86247   0.27741   0.00000  Uiso   1.00
C431   C     0.01709   0.86220   0.27788   0.00000  Uiso   1.00
C432   C     0.14226   0.84600   0.49146   0.00000  Uiso   1.00
C433   C     0.03321   0.80457   0.22068   0.00000  Uiso   1.00
C434   C     0.31589   0.80433   0.22223   0.00000  Uiso   1.00
C435   C     0.16664   0.75403   0.24989   0.00000  Uiso   1.00
C436   C     0.19288   0.83421   0.14989   0.00000  Uiso   1.00
C437   C     0.26090   0.87352   0.01619   0.00000  Uiso   1.00
C438   C     0.20759   0.84124   0.09342   0.00000  Uiso   1.00
C439   C     0.07622   0.82665   0.43508   0.00000  Uiso   1.00
C440   C     0.06008   0.82699   0.48940   0.00000  Uiso   1.00
C441   C     0.09209   0.83730   0.01813   0.00000  Uiso   1.00
C442   C     0.05710   0.75770   0.14901   0.00000  Uiso   1.00
C443   C     0.15572   0.85279   0.43672   0.00000  Uiso   1.00
C444   C     0.03530   0.71466   0.16080   0.00000  Uiso   1.00
C445   C     0.04899   0.87757   0.08780   0.00000  Uiso   1.00
C446   C     0.08217   0.90764   0.10532   0.00000  Uiso   1.00
C447   C     0.17930   0.84963   0.01690   0.00000  Uiso   1.00
C448   C     0.22489   0.86830   0.49066   0.00000  Uiso   1.00
C449   C     0.23378   0.88177   0.43943   0.00000  Uiso   1.00
C450   C     0.19985   0.87390   0.41271   0.00000  Uiso   1.00
C451   C     0.17328   0.83362   0.06679   0.00000  Uiso   1.00
C452   C     0.25186   0.86073   0.06777   0.00000  Uiso   1.00
Cu453  Cu    0.11978   0.83333   0.25000   0.00000  Uiso   1.00
Cu454  Cu    0.21355   0.83334   0.25000   0.00000  Uiso   1.00
H455   H     0.27869   0.86709   0.08801   0.00000  Uiso   1.00
H456   H     0.14222   0.81471   0.08585   0.00000  Uiso   1.00
H457   H     0.05092   0.81673   0.41423   0.00000  Uiso   1.00
H458   H     0.02241   0.81889   0.00958   0.00000  Uiso   1.00
H459   H     0.20784   0.88604   0.37371   0.00000  Uiso   1.00
H460   H     0.24315   0.96292   0.24756   0.00000  Uiso   1.00
H461   H     0.09270   0.75437   0.11791   0.00000  Uiso   1.00
H462   H     0.03427   0.77742   0.13181   0.00000  Uiso   1.00
H463   H     0.00137   0.71537   0.19448   0.00000  Uiso   1.00
H464   H     0.02645   0.70205   0.12597   0.00000  Uiso   1.00
H465   H     0.06218   0.69392   0.17033   0.00000  Uiso   1.00
H466   H     0.24306   0.70420   0.24753   0.00000  Uiso   1.00
H467   H     0.01642   0.87166   0.12200   0.00000  Uiso   1.00
H468   H     0.03520   0.89221   0.05735   0.00000  Uiso   1.00
H469   H     0.09500   0.89372   0.13662   0.00000  Uiso   1.00
H470   H     0.06156   0.93625   0.12093   0.00000  Uiso   1.00
H471   H     0.11434   0.91572   0.07172   0.00000  Uiso   1.00
H472   H     0.09030   0.70375   0.25210   0.00000  Uiso   1.00
H473   H     0.09044   0.96247   0.25171   0.00000  Uiso   1.00
H474   H     0.27660   0.88609   0.29911   0.00000  Uiso   1.00
H475   H     0.02947   0.88529   0.30048   0.00000  Uiso   1.00
H476   H     0.30150   0.78110   0.20174   0.00000  Uiso   1.00
H477   H     0.26759   0.89755   0.41949   0.00000  Uiso   1.00
H478   H     0.29553   0.88829   0.49668   0.00000  Uiso   1.00
N479   N     0.04931   0.83332   0.24999   0.00000  Uiso   1.00
N480   N     0.28402   0.83335   0.24999   0.00000  Uiso   1.00
O481   O     0.12708   0.89345   0.25001   0.00000  Uiso   1.00
O482   O     0.07333   0.83955   0.07211   0.00000  Uiso   1.00
O483   O     0.20627   0.89346   0.25001   0.00000  Uiso   1.00
O484   O     0.10775   0.83332   0.32549   0.00000  Uiso   1.00
O485   O     0.18694   0.83333   0.32549   0.00000  Uiso   1.00
O486   O     0.12706   0.77321   0.25000   0.00000  Uiso   1.00
O487   O     0.20625   0.77322   0.24999   0.00000  Uiso   1.00
O488   O     0.14640   0.83334   0.17451   0.00000  Uiso   1.00
O489   O     0.22559   0.83335   0.17451   0.00000  Uiso   1.00
O490   O     0.06674   0.77486   0.19379   0.00000  Uiso   1.00
C491   C     0.50008   0.91263   0.24991   0.00000  Uiso   1.00
C492   C     0.45732   0.83928   0.40798   0.00000  Uiso   1.00
C493   C     0.54297   0.97883   0.24848   0.00000  Uiso   1.00
C494   C     0.47375   0.83573   0.35023   0.00000  Uiso   1.00
C495   C     0.54292   0.68808   0.24846   0.00000  Uiso   1.00
C496   C     0.50002   0.70941   0.24972   0.00000  Uiso   1.00
C497   C     0.45720   0.68783   0.25090   0.00000  Uiso   1.00
C498   C     0.45727   0.97858   0.25078   0.00000  Uiso   1.00
C499   C     0.50013   0.95725   0.24970   0.00000  Uiso   1.00
C500   C     0.63440   0.86247   0.27741   0.00000  Uiso   1.00
C501   C     0.35042   0.86220   0.27788   0.00000  Uiso   1.00
C502   C     0.47559   0.84600   0.49146   0.00000  Uiso   1.00
C503   C     0.36654   0.80457   0.22068   0.00000  Uiso   1.00
C504   C     0.64922   0.80433   0.22223   0.00000  Uiso   1.00
C505   C     0.49998   0.75403   0.24989   0.00000  Uiso   1.00
C506   C     0.52621   0.83421   0.14989   0.00000  Uiso   1.00
C507   C     0.59423   0.87352   0.01619   0.00000  Uiso   1.00
C508   C     0.54092   0.84124   0.09342   0.00000  Uiso   1.00
C509   C     0.40955   0.82665   0.43508   0.00000  Uiso   1.00
C510   C     0.39341   0.82699   0.48940   0.00000  Uiso   1.00
C511   C     0.42542   0.83730   0.01813   0.00000  Uiso   1.00
C512   C     0.39043   0.75770   0.14901   0.00000  Uiso   1.00
C513   C     0.48906   0.85279   0.43672   0.00000  Uiso   1.00
C514   C     0.36863   0.71466   0.16080   0.00000  Uiso   1.00
C515   C     0.38232   0.87757   0.08780   0.00000  Uiso   1.00
C516   C     0.41550   0.90764   0.10532   0.00000  Uiso   1.00
C517   C     0.51263   0.84963   0.01690   0.00000  Uiso   1.00
C518   C     0.55822   0.86830   0.49066   0.00000  Uiso   1.00
C519   C     0.56712   0.88177   0.43943   0.00000  Uiso   1.00
C520   C     0.53318   0.87390   0.41271   0.00000  Uiso   1.00
C521   C     0.50662   0.83362   0.06679   0.00000  Uiso   1.00
C522   C     0.58520   0.86073   0.06777   0.00000  Uiso   1.00
Cu523  Cu    0.45311   0.83333   0.25000   0.00000  Uiso   1.00
Cu524  Cu    0.54689   0.83334   0.25000   0.00000  Uiso   1.00
H525   H     0.61203   0.86709   0.08801   0.00000  Uiso   1.00
H526   H     0.47556   0.81471   0.08585   0.00000  Uiso   1.00
H527   H     0.38425   0.81673   0.41423   0.00000  Uiso   1.00
H528   H     0.35574   0.81889   0.00958   0.00000  Uiso   1.00
H529   H     0.54117   0.88604   0.37371   0.00000  Uiso   1.00
H530   H     0.57648   0.96292   0.24756   0.00000  Uiso   1.00
H531   H     0.42603   0.75437   0.11791   0.00000  Uiso   1.00
H532   H     0.36760   0.77742   0.13181   0.00000  Uiso   1.00
H533   H     0.33470   0.71537   0.19448   0.00000  Uiso   1.00
H534   H     0.35978   0.70205   0.12597   0.00000  Uiso   1.00
H535   H     0.39552   0.69392   0.17033   0.00000  Uiso   1.00
H536   H     0.57640   0.70420   0.24753   0.00000  Uiso   1.00
H537   H     0.34975   0.87166   0.12200   0.00000  Uiso   1.00
H538   H     0.36853   0.89221   0.05735   0.00000  Uiso   1.00
H539   H     0.42834   0.89372   0.13662   0.00000  Uiso   1.00
H540   H     0.39489   0.93625   0.12093   0.00000  Uiso   1.00
H541   H     0.44768   0.91572   0.07172   0.00000  Uiso   1.00
H542   H     0.42364   0.70375   0.25210   0.00000  Uiso   1.00
H543   H     0.42377   0.96247   0.25171   0.00000  Uiso   1.00
H544   H     0.60993   0.88609   0.29911   0.00000  Uiso   1.00
H545   H     0.36281   0.88529   0.30048   0.00000  Uiso   1.00
H546   H     0.63483   0.78110   0.20174   0.00000  Uiso   1.00
H547   H     0.60093   0.89755   0.41949   0.00000  Uiso   1.00
H548   H     0.62886   0.88829   0.49668   0.00000  Uiso   1.00
N549   N     0.38265   0.83332   0.24999   0.00000  Uiso   1.00
N550   N     0.61735   0.83335   0.24999   0.00000  Uiso   1.00
O551   O     0.46042   0.89345   0.25001   0.00000  Uiso   1.00
O552   O     0.40666   0.83955   0.07211   0.00000  Uiso   1.00
O553   O     0.53961   0.89346   0.25001   0.00000  Uiso   1.00
O554   O     0.44108   0.83332   0.32549   0.00000  Uiso   1.00
O555   O     0.52027   0.83333   0.32549   0.00000  Uiso   1.00
O556   O     0.46039   0.77321   0.25000   0.00000  Uiso   1.00
O557   O     0.53958   0.77322   0.24999   0.00000  Uiso   1.00
O558   O     0.47973   0.83334   0.17451   0.00000  Uiso   1.00
O559   O     0.55892   0.83335   0.17451   0.00000  Uiso   1.00
O560   O     0.40007   0.77486   0.19379   0.00000  Uiso   1.00
C561   C     0.83341   0.91263   0.24991   0.00000  Uiso   1.00
C562   C     0.79066   0.83928   0.40798   0.00000  Uiso   1.00
C563   C     0.87630   0.97883   0.24848   0.00000  Uiso   1.00
C564   C     0.80708   0.83573   0.35023   0.00000  Uiso   1.00
C565   C     0.87625   0.68808   0.24846   0.00000  Uiso   1.00
C566   C     0.83335   0.70941   0.24972   0.00000  Uiso   1.00
C567   C     0.79053   0.68783   0.25090   0.00000  Uiso   1.00
C568   C     0.79061   0.97858   0.25078   0.00000  Uiso   1.00
C569   C     0.83347   0.95725   0.24970   0.00000  Uiso   1.00
C570   C     0.96774   0.86247   0.27741   0.00000  Uiso   1.00
C571   C     0.68375   0.86220   0.27788   0.00000  Uiso   1.00
C572   C     0.80893   0.84600   0.49146   0.00000  Uiso   1.00
C573   C     0.69987   0.80457   0.22068   0.00000  Uiso   1.00
C574   C     0.98255   0.80433   0.22223   0.00000  Uiso   1.00
C575   C     0.83331   0.75403   0.24989   0.00000  Uiso   1.00
C576   C     0.85954   0.83421   0.14989   0.00000  Uiso   1.00
C577   C     0.92757   0.87352   0.01619   0.00000  Uiso   1.00
C578   C     0.87426   0.84124   0.09342   0.00000  Uiso   1.00
C579   C     0.74288   0.82665   0.43508   0.00000  Uiso   1.00
C580   C     0.72675   0.82699   0.48940   0.00000  Uiso   1.00
C581   C     0.75876   0.83730   0.01813   0.00000  Uiso   1.00
C582   C     0.72377   0.75770   0.14901   0.00000  Uiso   1.00
C583   C     0.82239   0.85279   0.43672   0.00000  Uiso   1.00
C584   C     0.70196   0.71466   0.16080   0.00000  Uiso   1.00
C585   C     0.71565   0.87757   0.08780   0.00000  Uiso   1.00
C586   C     0.74884   0.90764   0.10532   0.00000  Uiso   1.00
C587   C     0.84597   0.84963   0.01690   0.00000  Uiso   1.00
C588   C     0.89156   0.86830   0.49066   0.00000  Uiso   1.00
C589   C     0.90045   0.88177   0.43943   0.00000  Uiso   1.00
C590   C     0.86651   0.87390   0.41271   0.00000  Uiso   1.00
C591   C     0.83995   0.83362   0.06679   0.00000  Uiso   1.00
C592   C     0.91853   0.86073   0.06777   0.00000  Uiso   1.00
Cu593  Cu    0.78645   0.83333   0.25000   0.00000  Uiso   1.00
Cu594  Cu    0.88022   0.83334   0.25000   0.00000  Uiso   1.00
H595   H     0.94536   0.86709   0.08801   0.00000  Uiso   1.00
H596   H     0.80889   0.81471   0.08585   0.00000  Uiso   1.00
H597   H     0.71759   0.81673   0.41423   0.00000  Uiso   1.00
H598   H     0.68907   0.81889   0.00958   0.00000  Uiso   1.00
H599   H     0.87450   0.88604   0.37371   0.00000  Uiso   1.00
H600   H     0.90981   0.96292   0.24756   0.00000  Uiso   1.00
H601   H     0.75937   0.75437   0.11791   0.00000  Uiso   1.00
H602   H     0.70094   0.77742   0.13181   0.00000  Uiso   1.00
H603   H     0.66804   0.71537   0.19448   0.00000  Uiso   1.00
H604   H     0.69311   0.70205   0.12597   0.00000  Uiso   1.00
H605   H     0.72885   0.69392   0.17033   0.00000  Uiso   1.00
H606   H     0.90973   0.70420   0.24753   0.00000  Uiso   1.00
H607   H     0.68308   0.87166   0.12200   0.00000  Uiso   1.00
H608   H     0.70187   0.89221   0.05735   0.00000  Uiso   1.00
H609   H     0.76167   0.89372   0.13662   0.00000  Uiso   1.00
H610   H     0.72822   0.93625   0.12093   0.00000  Uiso   1.00
H611   H     0.78101   0.91572   0.07172   0.00000  Uiso   1.00
H612   H     0.75697   0.70375   0.25210   0.00000  Uiso   1.00
H613   H     0.75710   0.96247   0.25171   0.00000  Uiso   1.00
H614   H     0.94327   0.88609   0.29911   0.00000  Uiso   1.00
H615   H     0.69614   0.88529   0.30048   0.00000  Uiso   1.00
H616   H     0.96816   0.78110   0.20174   0.00000  Uiso   1.00
H617   H     0.93426   0.89755   0.41949   0.00000  Uiso   1.00
H618   H     0.96219   0.88829   0.49668   0.00000  Uiso   1.00
N619   N     0.71598   0.83332   0.24999   0.00000  Uiso   1.00
N620   N     0.95069   0.83335   0.24999   0.00000  Uiso   1.00
O621   O     0.79375   0.89345   0.25001   0.00000  Uiso   1.00
O622   O     0.74000   0.83955   0.07211   0.00000  Uiso   1.00
O623   O     0.87294   0.89346   0.25001   0.00000  Uiso   1.00
O624   O     0.77441   0.83332   0.32549   0.00000  Uiso   1.00
O625   O     0.85360   0.83333   0.32549   0.00000  Uiso   1.00
O626   O     0.79373   0.77321   0.25000   0.00000  Uiso   1.00
O627   O     0.87292   0.77322   0.24999   0.00000  Uiso   1.00
O628   O     0.81306   0.83334   0.17451   0.00000  Uiso   1.00
O629   O     0.89225   0.83335   0.17451   0.00000  Uiso   1.00
O630   O     0.73341   0.77486   0.19379   0.00000  Uiso   1.00
C631   C     0.16674   0.24597   0.74991   0.00000  Uiso   1.00
C632   C     0.12399   0.17261   0.90798   0.00000  Uiso   1.00
C633   C     0.20963   0.31217   0.74848   0.00000  Uiso   1.00
C634   C     0.14042   0.16907   0.85023   0.00000  Uiso   1.00
C635   C     0.20958   0.02141   0.74846   0.00000  Uiso   1.00
C636   C     0.16668   0.04274   0.74972   0.00000  Uiso   1.00
C637   C     0.12386   0.02116   0.75090   0.00000  Uiso   1.00
C638   C     0.12394   0.31191   0.75078   0.00000  Uiso   1.00
C639   C     0.16680   0.29058   0.74970   0.00000  Uiso   1.00
C640   C     0.30107   0.19581   0.77741   0.00000  Uiso   1.00
C641   C     0.01709   0.19554   0.77788   0.00000  Uiso   1.00
C642   C     0.14226   0.17933   0.99146   0.00000  Uiso   1.00
C643   C     0.03321   0.13790   0.72068   0.00000  Uiso   1.00
C644   C     0.31589   0.13767   0.72223   0.00000  Uiso   1.00
C645   C     0.16664   0.08736   0.74989   0.00000  Uiso   1.00
C646   C     0.19288   0.16754   0.64989   0.00000  Uiso   1.00
C647   C     0.26090   0.20685   0.51619   0.00000  Uiso   1.00
C648   C     0.20759   0.17457   0.59342   0.00000  Uiso   1.00
C649   C     0.07622   0.15998   0.93508   0.00000  Uiso   1.00
C650   C     0.06008   0.16032   0.98940   0.00000  Uiso   1.00
C651   C     0.09209   0.17064   0.51813   0.00000  Uiso   1.00
C652   C     0.05710   0.09103   0.64901   0.00000  Uiso   1.00
C653   C     0.15572   0.18612   0.93672   0.00000  Uiso   1.00
C654   C     0.03530   0.04799   0.66080   0.00000  Uiso   1.00
C655   C     0.04899   0.21090   0.58780   0.00000  Uiso   1.00
C656   C     0.08217   0.24097   0.60532   0.00000  Uiso   1.00
C657   C     0.17930   0.18296   0.51690   0.00000  Uiso   1.00
C658   C     0.22489   0.20164   0.99066   0.00000  Uiso   1.00
C659   C     0.23378   0.21510   0.93943   0.00000  Uiso   1.00
C660   C     0.19985   0.20724   0.91271   0.00000  Uiso   1.00
C661   C     0.17328   0.16696   0.56679   0.00000  Uiso   1.00
C662   C     0.25186   0.19407   0.56777   0.00000  Uiso   1.00
Cu663  Cu    0.11978   0.16666   0.75000   0.00000  Uiso   1.00
Cu664  Cu    0.21355   0.16667   0.75000   0.00000  Uiso   1.00
H665   H     0.27869   0.20042   0.58801   0.00000  Uiso   1.00
H666   H     0.14222   0.14805   0.58585   0.00000  Uiso   1.00
H667   H     0.05092   0.15007   0.91423   0.00000  Uiso   1.00
H668   H     0.02241   0.15222   0.50958   0.00000  Uiso   1.00
H669   H     0.20784   0.21937   0.87371   0.00000  Uiso   1.00
H670   H     0.24315   0.29625   0.74756   0.00000  Uiso   1.00
H671   H     0.09270   0.08770   0.61791   0.00000  Uiso   1.00
H672   H     0.03427   0.11076   0.63181   0.00000  Uiso   1.00
H673   H     0.00137   0.04870   0.69448   0.00000  Uiso   1.00
H674   H     0.02645   0.03539   0.62597   0.00000  Uiso   1.00
H675   H     0.06218   0.02725   0.67033   0.00000  Uiso   1.00
H676   H     0.24306   0.03754   0.74753   0.00000  Uiso   1.00
H677   H     0.01642   0.20500   0.62200   0.00000  Uiso   1.00
H678   H     0.03520   0.22554   0.55735   0.00000  Uiso   1.00
H679   H     0.09500   0.22705   0.63662   0.00000  Uiso   1.00
H680   H     0.06156   0.26959   0.62093   0.00000  Uiso   1.00
H681   H     0.11434   0.24905   0.57172   0.00000  Uiso   1.00
H682   H     0.09030   0.03709   0.75210   0.00000  Uiso   1.00
H683   H     0.09044   0.29580   0.75171   0.00000  Uiso   1.00
H684   H     0.27660   0.21943   0.79911   0.00000  Uiso   1.00
H685   H     0.02947   0.21862   0.80048   0.00000  Uiso   1.00
H686   H     0.30150   0.11444   0.70174   0.00000  Uiso   1.00
H687   H     0.26759   0.23089   0.91949   0.00000  Uiso   1.00
H688   H     0.29553   0.22162   0.99668   0.00000  Uiso   1.00
N689   N     0.04931   0.16666   0.74999   0.00000  Uiso   1.00
N690   N     0.28402   0.16669   0.74999   0.00000  Uiso   1.00
O691   O     0.12708   0.22678   0.75001   0.00000  Uiso   1.00
O692   O     0.07333   0.17288   0.57211   0.00000  Uiso   1.00
O693   O     0.20627   0.22679   0.75001   0.00000  Uiso   1.00
O694   O     0.10775   0.16665   0.82549   0.00000  Uiso   1.00
O695   O     0.18694   0.16666   0.82549   0.00000  Uiso   1.00
O696   O     0.12706   0.10654   0.75000   0.00000  Uiso   1.00
O697   O     0.20625   0.10655   0.74999   0.00000  Uiso   1.00
O698   O     0.14640   0.16667   0.67451   0.00000  Uiso   1.00
O699   O     0.22559   0.16668   0.67451   0.00000  Uiso   1.00
O700   O     0.06674   0.10820   0.69379   0.00000  Uiso   1.00
C701   C     0.50008   0.24597   0.74991   0.00000  Uiso   1.00
C702   C     0.45732   0.17261   0.90798   0.00000  Uiso   1.00
C703   C     0.54297   0.31217   0.74848   0.00000  Uiso   1.00
C704   C     0.47375   0.16907   0.85023   0.00000  Uiso   1.00
C705   C     0.54292   0.02141   0.74846   0.00000  Uiso   1.00
C706   C     0.50002   0.04274   0.74972   0.00000  Uiso   1.00
C707   C     0.45720   0.02116   0.75090   0.00000  Uiso   1.00
C708   C     0.45727   0.31191   0.75078   0.00000  Uiso   1.00
C709   C     0.50013   0.29058   0.74970   0.00000  Uiso   1.00
C710   C     0.63440   0.19581   0.77741   0.00000  Uiso   1.00
C711   C     0.35042   0.19554   0.77788   0.00000  Uiso   1.00
C712   C     0.47559   0.17933   0.99146   0.00000  Uiso   1.00
C713   C     0.36654   0.13790   0.72068   0.00000  Uiso   1.00
C714   C     0.64922   0.13767   0.72223   0.00000  Uiso   1.00
C715   C     0.49998   0.08736   0.74989   0.00000  Uiso   1.00
C716   C     0.52621   0.16754   0.64989   0.00000  Uiso   1.00
C717   C     0.59423   0.20685   0.51619   0.00000  Uiso   1.00
C718   C     0.54092   0.17457   0.59342   0.00000  Uiso   1.00
C719   C     0.40955   0.15998   0.93508   0.00000  Uiso   1.00
C720   C     0.39341   0.16032   0.98940   0.00000  Uiso   1.00
C721   C     0.42542   0.17064   0.51813   0.00000  Uiso   1.00
C722   C     0.39043   0.09103   0.64901   0.00000  Uiso   1.00
C723   C     0.48906   0.18612   0.93672   0.00000  Uiso   1.00
C724   C     0.36863   0.04799   0.66080   0.00000  Uiso   1.00
C725   C     0.38232   0.21090   0.58780   0.00000  Uiso   1.00
C726   C     0.41550   0.24097   0.60532   0.00000  Uiso   1.00
C727   C     0.51263   0.18296   0.51690   0.00000  Uiso   1.00
C728   C     0.55822   0.20164   0.99066   0.00000  Uiso   1.00
C729   C     0.56712   0.21510   0.93943   0.00000  Uiso   1.00
C730   C     0.53318   0.20724   0.91271   0.00000  Uiso   1.00
C731   C     0.50662   0.16696   0.56679   0.00000  Uiso   1.00
C732   C     0.58520   0.19407   0.56777   0.00000  Uiso   1.00
Cu733  Cu    0.45311   0.16666   0.75000   0.00000  Uiso   1.00
Cu734  Cu    0.54689   0.16667   0.75000   0.00000  Uiso   1.00
H735   H     0.61203   0.20042   0.58801   0.00000  Uiso   1.00
H736   H     0.47556   0.14805   0.58585   0.00000  Uiso   1.00
H737   H     0.38425   0.15007   0.91423   0.00000  Uiso   1.00
H738   H     0.35574   0.15222   0.50958   0.00000  Uiso   1.00
H739   H     0.54117   0.21937   0.87371   0.00000  Uiso   1.00
H740   H     0.57648   0.29625   0.74756   0.00000  Uiso   1.00
H741   H     0.42603   0.08770   0.61791   0.00000  Uiso   1.00
H742   H     0.36760   0.11076   0.63181   0.00000  Uiso   1.00
H743   H     0.33470   0.04870   0.69448   0.00000  Uiso   1.00
H744   H     0.35978   0.03539   0.62597   0.00000  Uiso   1.00
H745   H     0.39552   0.02725   0.67033   0.00000  Uiso   1.00
H746   H     0.57640   0.03754   0.74753   0.00000  Uiso   1.00
H747   H     0.34975   0.20500   0.62200   0.00000  Uiso   1.00
H748   H     0.36853   0.22554   0.55735   0.00000  Uiso   1.00
H749   H     0.42834   0.22705   0.63662   0.00000  Uiso   1.00
H750   H     0.39489   0.26959   0.62093   0.00000  Uiso   1.00
H751   H     0.44768   0.24905   0.57172   0.00000  Uiso   1.00
H752   H     0.42364   0.03709   0.75210   0.00000  Uiso   1.00
H753   H     0.42377   0.29580   0.75171   0.00000  Uiso   1.00
H754   H     0.60993   0.21943   0.79911   0.00000  Uiso   1.00
H755   H     0.36281   0.21862   0.80048   0.00000  Uiso   1.00
H756   H     0.63483   0.11444   0.70174   0.00000  Uiso   1.00
H757   H     0.60093   0.23089   0.91949   0.00000  Uiso   1.00
H758   H     0.62886   0.22162   0.99668   0.00000  Uiso   1.00
N759   N     0.38265   0.16666   0.74999   0.00000  Uiso   1.00
N760   N     0.61735   0.16669   0.74999   0.00000  Uiso   1.00
O761   O     0.46042   0.22678   0.75001   0.00000  Uiso   1.00
O762   O     0.40666   0.17288   0.57211   0.00000  Uiso   1.00
O763   O     0.53961   0.22679   0.75001   0.00000  Uiso   1.00
O764   O     0.44108   0.16665   0.82549   0.00000  Uiso   1.00
O765   O     0.52027   0.16666   0.82549   0.00000  Uiso   1.00
O766   O     0.46039   0.10654   0.75000   0.00000  Uiso   1.00
O767   O     0.53958   0.10655   0.74999   0.00000  Uiso   1.00
O768   O     0.47973   0.16667   0.67451   0.00000  Uiso   1.00
O769   O     0.55892   0.16668   0.67451   0.00000  Uiso   1.00
O770   O     0.40007   0.10820   0.69379   0.00000  Uiso   1.00
C771   C     0.83341   0.24597   0.74991   0.00000  Uiso   1.00
C772   C     0.79066   0.17261   0.90798   0.00000  Uiso   1.00
C773   C     0.87630   0.31217   0.74848   0.00000  Uiso   1.00
C774   C     0.80708   0.16907   0.85023   0.00000  Uiso   1.00
C775   C     0.87625   0.02141   0.74846   0.00000  Uiso   1.00
C776   C     0.83335   0.04274   0.74972   0.00000  Uiso   1.00
C777   C     0.79053   0.02116   0.75090   0.00000  Uiso   1.00
C778   C     0.79061   0.31191   0.75078   0.00000  Uiso   1.00
C779   C     0.83347   0.29058   0.74970   0.00000  Uiso   1.00
C780   C     0.96774   0.19581   0.77741   0.00000  Uiso   1.00
C781   C     0.68375   0.19554   0.77788   0.00000  Uiso   1.00
C782   C     0.80893   0.17933   0.99146   0.00000  Uiso   1.00
C783   C     0.69987   0.13790   0.72068   0.00000  Uiso   1.00
C784   C     0.98255   0.13767   0.72223   0.00000  Uiso   1.00
C785   C     0.83331   0.08736   0.74989   0.00000  Uiso   1.00
C786   C     0.85954   0.16754   0.64989   0.00000  Uiso   1.00
C787   C     0.92757   0.20685   0.51619   0.00000  Uiso   1.00
C788   C     0.87426   0.17457   0.59342   0.00000  Uiso   1.00
C789   C     0.74288   0.15998   0.93508   0.00000  Uiso   1.00
C790   C     0.72675   0.16032   0.98940   0.00000  Uiso   1.00
C791   C     0.75876   0.17064   0.51813   0.00000  Uiso   1.00
C792   C     0.72377   0.09103   0.64901   0.00000  Uiso   1.00
C793   C     0.82239   0.18612   0.93672   0.00000  Uiso   1.00
C794   C     0.70196   0.04799   0.66080   0.00000  Uiso   1.00
C795   C     0.71565   0.21090   0.58780   0.00000  Uiso   1.00
C796   C     0.74884   0.24097   0.60532   0.00000  Uiso   1.00
C797   C     0.84597   0.18296   0.51690   0.00000  Uiso   1.00
C798   C     0.89156   0.20164   0.99066   0.00000  Uiso   1.00
C799   C     0.90045   0.21510   0.93943   0.00000  Uiso   1.00
C800   C     0.86651   0.20724   0.91271   0.00000  Uiso   1.00
C801   C     0.83995   0.16696   0.56679   0.00000  Uiso   1.00
C802   C     0.91853   0.19407   0.56777   0.00000  Uiso   1.00
Cu803  Cu    0.78645   0.16666   0.75000   0.00000  Uiso   1.00
Cu804  Cu    0.88022   0.16667   0.75000   0.00000  Uiso   1.00
H805   H     0.94536   0.20042   0.58801   0.00000  Uiso   1.00
H806   H     0.80889   0.14805   0.58585   0.00000  Uiso   1.00
H807   H     0.71759   0.15007   0.91423   0.00000  Uiso   1.00
H808   H     0.68907   0.15222   0.50958   0.00000  Uiso   1.00
H809   H     0.87450   0.21937   0.87371   0.00000  Uiso   1.00
H810   H     0.90981   0.29625   0.74756   0.00000  Uiso   1.00
H811   H     0.75937   0.08770   0.61791   0.00000  Uiso   1.00
H812   H     0.70094   0.11076   0.63181   0.00000  Uiso   1.00
H813   H     0.66804   0.04870   0.69448   0.00000  Uiso   1.00
H814   H     0.69311   0.03539   0.62597   0.00000  Uiso   1.00
H815   H     0.72885   0.02725   0.67033   0.00000  Uiso   1.00
H816   H     0.90973   0.03754   0.74753   0.00000  Uiso   1.00
H817   H     0.68308   0.20500   0.62200   0.00000  Uiso   1.00
H818   H     0.70187   0.22554   0.55735   0.00000  Uiso   1.00
H819   H     0.76167   0.22705   0.63662   0.00000  Uiso   1.00
H820   H     0.72822   0.26959   0.62093   0.00000  Uiso   1.00
H821   H     0.78101   0.24905   0.57172   0.00000  Uiso   1.00
H822   H     0.75697   0.03709   0.75210   0.00000  Uiso   1.00
H823   H     0.75710   0.29580   0.75171   0.00000  Uiso   1.00
H824   H     0.94327   0.21943   0.79911   0.00000  Uiso   1.00
H825   H     0.69614   0.21862   0.80048   0.00000  Uiso   1.00
H826   H     0.96816   0.11444   0.70174   0.00000  Uiso   1.00
H827   H     0.93426   0.23089   0.91949   0.00000  Uiso   1.00
H828   H     0.96219   0.22162   0.99668   0.00000  Uiso   1.00
N829   N     0.71598   0.16666   0.74999   0.00000  Uiso   1.00
N830   N     0.95069   0.16669   0.74999   0.00000  Uiso   1.00
O831   O     0.79375   0.22678   0.75001   0.00000  Uiso   1.00
O832   O     0.74000   0.17288   0.57211   0.00000  Uiso   1.00
O833   O     0.87294   0.22679   0.75001   0.00000  Uiso   1.00
O834   O     0.77441   0.16665   0.82549   0.00000  Uiso   1.00
O835   O     0.85360   0.16666   0.82549   0.00000  Uiso   1.00
O836   O     0.79373   0.10654   0.75000   0.00000  Uiso   1.00
O837   O     0.87292   0.10655   0.74999   0.00000  Uiso   1.00
O838   O     0.81306   0.16667   0.67451   0.00000  Uiso   1.00
O839   O     0.89225   0.16668   0.67451   0.00000  Uiso   1.00
O840   O     0.73341   0.10820   0.69379   0.00000  Uiso   1.00
C841   C     0.16674   0.57930   0.74991   0.00000  Uiso   1.00
C842   C     0.12399   0.50595   0.90798   0.00000  Uiso   1.00
C843   C     0.20963   0.64550   0.74848   0.00000  Uiso   1.00
C844   C     0.14042   0.50240   0.85023   0.00000  Uiso   1.00
C845   C     0.20958   0.35475   0.74846   0.00000  Uiso   1.00
C846   C     0.16668   0.37608   0.74972   0.00000  Uiso   1.00
C847   C     0.12386   0.35449   0.75090   0.00000  Uiso   1.00
C848   C     0.12394   0.64525   0.75078   0.00000  Uiso   1.00
C849   C     0.16680   0.62392   0.74970   0.00000  Uiso   1.00
C850   C     0.30107   0.52914   0.77741   0.00000  Uiso   1.00
C851   C     0.01709   0.52887   0.77788   0.00000  Uiso   1.00
C852   C     0.14226   0.51267   0.99146   0.00000  Uiso   1.00
C853   C     0.03321   0.47123   0.72068   0.00000  Uiso   1.00
C854   C     0.31589   0.47100   0.72223   0.00000  Uiso   1.00
C855   C     0.16664   0.42070   0.74989   0.00000  Uiso   1.00
C856   C     0.19288   0.50088   0.64989   0.00000  Uiso   1.00
C857   C     0.26090   0.54018   0.51619   0.00000  Uiso   1.00
C858   C     0.20759   0.50791   0.59342   0.00000  Uiso   1.00
C859   C     0.07622   0.49331   0.93508   0.00000  Uiso   1.00
C860   C     0.06008   0.49365   0.98940   0.00000  Uiso   1.00
C861   C     0.09209   0.50397   0.51813   0.00000  Uiso   1.00
C862   C     0.05710   0.42436   0.64901   0.00000  Uiso   1.00
C863   C     0.15572   0.51946   0.93672   0.00000  Uiso   1.00
C864   C     0.03530   0.38132   0.66080   0.00000  Uiso   1.00
C865   C     0.04899   0.54424   0.58780   0.00000  Uiso   1.00
C866   C     0.08217   0.57431   0.60532   0.00000  Uiso   1.00
C867   C     0.17930   0.51630   0.51690   0.00000  Uiso   1.00
C868   C     0.22489   0.53497   0.99066   0.00000  Uiso   1.00
C869   C     0.23378   0.54844   0.93943   0.00000  Uiso   1.00
C870   C     0.19985   0.54057   0.91271   0.00000  Uiso   1.00
C871   C     0.17328   0.50029   0.56679   0.00000  Uiso   1.00
C872   C     0.25186   0.52740   0.56777   0.00000  Uiso   1.00
Cu873  Cu    0.11978   0.49999   0.75000   0.00000  Uiso   1.00
Cu874  Cu    0.21355   0.50001   0.75000   0.00000  Uiso   1.00
H875   H     0.27869   0.53376   0.58801   0.00000  Uiso   1.00
H876   H     0.14222   0.48138   0.58585   0.00000  Uiso   1.00
H877   H     0.05092   0.48340   0.91423   0.00000  Uiso   1.00
H878   H     0.02241   0.48556   0.50958   0.00000  Uiso   1.00
H879   H     0.20784   0.55271   0.87371   0.00000  Uiso   1.00
H880   H     0.24315   0.62958   0.74756   0.00000  Uiso   1.00
H881   H     0.09270   0.42104   0.61791   0.00000  Uiso   1.00
H882   H     0.03427   0.44409   0.63181   0.00000  Uiso   1.00
H883   H     0.00137   0.38204   0.69448   0.00000  Uiso   1.00
H884   H     0.02645   0.36872   0.62597   0.00000  Uiso   1.00
H885   H     0.06218   0.36059   0.67033   0.00000  Uiso   1.00
H886   H     0.24306   0.37087   0.74753   0.00000  Uiso   1.00
H887   H     0.01642   0.53833   0.62200   0.00000  Uiso   1.00
H888   H     0.03520   0.55887   0.55735   0.00000  Uiso   1.00
H889   H     0.09500   0.56039   0.63662   0.00000  Uiso   1.00
H890   H     0.06156   0.60292   0.62093   0.00000  Uiso   1.00
H891   H     0.11434   0.58238   0.57172   0.00000  Uiso   1.00
H892   H     0.09030   0.37042   0.75210   0.00000  Uiso   1.00
H893   H     0.09044   0.62913   0.75171   0.00000  Uiso   1.00
H894   H     0.27660   0.55276   0.79911   0.00000  Uiso   1.00
H895   H     0.02947   0.55196   0.80048   0.00000  Uiso   1.00
H896   H     0.30150   0.44777   0.70174   0.00000  Uiso   1.00
H897   H     0.26759   0.56422   0.91949   0.00000  Uiso   1.00
H898   H     0.29553   0.55495   0.99668   0.00000  Uiso   1.00
N899   N     0.04931   0.49999   0.74999   0.00000  Uiso   1.00
N900   N     0.28402   0.50002   0.74999   0.00000  Uiso   1.00
O901   O     0.12708   0.56011   0.75001   0.00000  Uiso   1.00
O902   O     0.07333   0.50621   0.57211   0.00000  Uiso   1.00
O903   O     0.20627   0.56012   0.75001   0.00000  Uiso   1.00
O904   O     0.10775   0.49998   0.82549   0.00000  Uiso   1.00
O905   O     0.18694   0.49999   0.82549   0.00000  Uiso   1.00
O906   O     0.12706   0.43988   0.75000   0.00000  Uiso   1.00
O907   O     0.20625   0.43989   0.74999   0.00000  Uiso   1.00
O908   O     0.14640   0.50001   0.67451   0.00000  Uiso   1.00
O909   O     0.22559   0.50002   0.67451   0.00000  Uiso   1.00
O910   O     0.06674   0.44153   0.69379   0.00000  Uiso   1.00
C911   C     0.50008   0.57930   0.74991   0.00000  Uiso   1.00
C912   C     0.45732   0.50595   0.90798   0.00000  Uiso   1.00
C913   C     0.54297   0.64550   0.74848   0.00000  Uiso   1.00
C914   C     0.47375   0.50240   0.85023   0.00000  Uiso   1.00
C915   C     0.54292   0.35475   0.74846   0.00000  Uiso   1.00
C916   C     0.50002   0.37608   0.74972   0.00000  Uiso   1.00
C917   C     0.45720   0.35449   0.75090   0.00000  Uiso   1.00
C918   C     0.45727   0.64525   0.75078   0.00000  Uiso   1.00
C919   C     0.50013   0.62392   0.74970   0.00000  Uiso   1.00
C920   C     0.63440   0.52914   0.77741   0.00000  Uiso   1.00
C921   C     0.35042   0.52887   0.77788   0.00000  Uiso   1.00
C922   C     0.47559   0.51267   0.99146   0.00000  Uiso   1.00
C923   C     0.36654   0.47123   0.72068   0.00000  Uiso   1.00
C924   C     0.64922   0.47100   0.72223   0.00000  Uiso   1.00
C925   C     0.49998   0.42070   0.74989   0.00000  Uiso   1.00
C926   C     0.52621   0.50088   0.64989   0.00000  Uiso   1.00
C927   C     0.59423   0.54018   0.51619   0.00000  Uiso   1.00
C928   C     0.54092   0.50791   0.59342   0.00000  Uiso   1.00
C929   C     0.40955   0.49331   0.93508   0.00000  Uiso   1.00
C930   C     0.39341   0.49365   0.98940   0.00000  Uiso   1.00
C931   C     0.42542   0.50397   0.51813   0.00000  Uiso   1.00
C932   C     0.39043   0.42436   0.64901   0.00000  Uiso   1.00
C933   C     0.48906   0.51946   0.93672   0.00000  Uiso   1.00
C934   C     0.36863   0.38132   0.66080   0.00000  Uiso   1.00
C935   C     0.38232   0.54424   0.58780   0.00000  Uiso   1.00
C936   C     0.41550   0.57431   0.60532   0.00000  Uiso   1.00
C937   C     0.51263   0.51630   0.51690   0.00000  Uiso   1.00
C938   C     0.55822   0.53497   0.99066   0.00000  Uiso   1.00
C939   C     0.56712   0.54844   0.93943   0.00000  Uiso   1.00
C940   C     0.53318   0.54057   0.91271   0.00000  Uiso   1.00
C941   C     0.50662   0.50029   0.56679   0.00000  Uiso   1.00
C942   C     0.58520   0.52740   0.56777   0.00000  Uiso   1.00
Cu943  Cu    0.45311   0.49999   0.75000   0.00000  Uiso   1.00
Cu944  Cu    0.54689   0.50001   0.75000   0.00000  Uiso   1.00
H945   H     0.61203   0.53376   0.58801   0.00000  Uiso   1.00
H946   H     0.47556   0.48138   0.58585   0.00000  Uiso   1.00
H947   H     0.38425   0.48340   0.91423   0.00000  Uiso   1.00
H948   H     0.35574   0.48556   0.50958   0.00000  Uiso   1.00
H949   H     0.54117   0.55271   0.87371   0.00000  Uiso   1.00
H950   H     0.57648   0.62958   0.74756   0.00000  Uiso   1.00
H951   H     0.42603   0.42104   0.61791   0.00000  Uiso   1.00
H952   H     0.36760   0.44409   0.63181   0.00000  Uiso   1.00
H953   H     0.33470   0.38204   0.69448   0.00000  Uiso   1.00
H954   H     0.35978   0.36872   0.62597   0.00000  Uiso   1.00
H955   H     0.39552   0.36059   0.67033   0.00000  Uiso   1.00
H956   H     0.57640   0.37087   0.74753   0.00000  Uiso   1.00
H957   H     0.34975   0.53833   0.62200   0.00000  Uiso   1.00
H958   H     0.36853   0.55887   0.55735   0.00000  Uiso   1.00
H959   H     0.42834   0.56039   0.63662   0.00000  Uiso   1.00
H960   H     0.39489   0.60292   0.62093   0.00000  Uiso   1.00
H961   H     0.44768   0.58238   0.57172   0.00000  Uiso   1.00
H962   H     0.42364   0.37042   0.75210   0.00000  Uiso   1.00
H963   H     0.42377   0.62913   0.75171   0.00000  Uiso   1.00
H964   H     0.60993   0.55276   0.79911   0.00000  Uiso   1.00
H965   H     0.36281   0.55196   0.80048   0.00000  Uiso   1.00
H966   H     0.63483   0.44777   0.70174   0.00000  Uiso   1.00
H967   H     0.60093   0.56422   0.91949   0.00000  Uiso   1.00
H968   H     0.62886   0.55495   0.99668   0.00000  Uiso   1.00
N969   N     0.38265   0.49999   0.74999   0.00000  Uiso   1.00
N970   N     0.61735   0.50002   0.74999   0.00000  Uiso   1.00
O971   O     0.46042   0.56011   0.75001   0.00000  Uiso   1.00
O972   O     0.40666   0.50621   0.57211   0.00000  Uiso   1.00
O973   O     0.53961   0.56012   0.75001   0.00000  Uiso   1.00
O974   O     0.44108   0.49998   0.82549   0.00000  Uiso   1.00
O975   O     0.52027   0.49999   0.82549   0.00000  Uiso   1.00
O976   O     0.46039   0.43988   0.75000   0.00000  Uiso   1.00
O977   O     0.53958   0.43989   0.74999   0.00000  Uiso   1.00
O978   O     0.47973   0.50001   0.67451   0.00000  Uiso   1.00
O979   O     0.55892   0.50002   0.67451   0.00000  Uiso   1.00
O980   O     0.40007   0.44153   0.69379   0.00000  Uiso   1.00
C981   C     0.83341   0.57930   0.74991   0.00000  Uiso   1.00
C982   C     0.79066   0.50595   0.90798   0.00000  Uiso   1.00
C983   C     0.87630   0.64550   0.74848   0.00000  Uiso   1.00
C984   C     0.80708   0.50240   0.85023   0.00000  Uiso   1.00
C985   C     0.87625   0.35475   0.74846   0.00000  Uiso   1.00
C986   C     0.83335   0.37608   0.74972   0.00000  Uiso   1.00
C987   C     0.79053   0.35449   0.75090   0.00000  Uiso   1.00
C988   C     0.79061   0.64525   0.75078   0.00000  Uiso   1.00
C989   C     0.83347   0.62392   0.74970   0.00000  Uiso   1.00
C990   C     0.96774   0.52914   0.77741   0.00000  Uiso   1.00
C991   C     0.68375   0.52887   0.77788   0.00000  Uiso   1.00
C992   C     0.80893   0.51267   0.99146   0.00000  Uiso   1.00
C993   C     0.69987   0.47123   0.72068   0.00000  Uiso   1.00
C994   C     0.98255   0.47100   0.72223   0.00000  Uiso   1.00
C995   C     0.83331   0.42070   0.74989   0.00000  Uiso   1.00
C996   C     0.85954   0.50088   0.64989   0.00000  Uiso   1.00
C997   C     0.92757   0.54018   0.51619   0.00000  Uiso   1.00
C998   C     0.87426   0.50791   0.59342   0.00000  Uiso   1.00
C999   C     0.74288   0.49331   0.93508   0.00000  Uiso   1.00
C1000  C     0.72675   0.49365   0.98940   0.00000  Uiso   1.00
C1001  C     0.75876   0.50397   0.51813   0.00000  Uiso   1.00
C1002  C     0.72377   0.42436   0.64901   0.00000  Uiso   1.00
C1003  C     0.82239   0.51946   0.93672   0.00000  Uiso   1.00
C1004  C     0.70196   0.38132   0.66080   0.00000  Uiso   1.00
C1005  C     0.71565   0.54424   0.58780   0.00000  Uiso   1.00
C1006  C     0.74884   0.57431   0.60532   0.00000  Uiso   1.00
C1007  C     0.84597   0.51630   0.51690   0.00000  Uiso   1.00
C1008  C     0.89156   0.53497   0.99066   0.00000  Uiso   1.00
C1009  C     0.90045   0.54844   0.93943   0.00000  Uiso   1.00
C1010  C     0.86651   0.54057   0.91271   0.00000  Uiso   1.00
C1011  C     0.83995   0.50029   0.56679   0.00000  Uiso   1.00
C1012  C     0.91853   0.52740   0.56777   0.00000  Uiso   1.00
Cu1013 Cu    0.78645   0.49999   0.75000   0.00000  Uiso   1.00
Cu1014 Cu    0.88022   0.50001   0.75000   0.00000  Uiso   1.00
H1015  H     0.94536   0.53376   0.58801   0.00000  Uiso   1.00
H1016  H     0.80889   0.48138   0.58585   0.00000  Uiso   1.00
H1017  H     0.71759   0.48340   0.91423   0.00000  Uiso   1.00
H1018  H     0.68907   0.48556   0.50958   0.00000  Uiso   1.00
H1019  H     0.87450   0.55271   0.87371   0.00000  Uiso   1.00
H1020  H     0.90981   0.62958   0.74756   0.00000  Uiso   1.00
H1021  H     0.75937   0.42104   0.61791   0.00000  Uiso   1.00
H1022  H     0.70094   0.44409   0.63181   0.00000  Uiso   1.00
H1023  H     0.66804   0.38204   0.69448   0.00000  Uiso   1.00
H1024  H     0.69311   0.36872   0.62597   0.00000  Uiso   1.00
H1025  H     0.72885   0.36059   0.67033   0.00000  Uiso   1.00
H1026  H     0.90973   0.37087   0.74753   0.00000  Uiso   1.00
H1027  H     0.68308   0.53833   0.62200   0.00000  Uiso   1.00
H1028  H     0.70187   0.55887   0.55735   0.00000  Uiso   1.00
H1029  H     0.76167   0.56039   0.63662   0.00000  Uiso   1.00
H1030  H     0.72822   0.60292   0.62093   0.00000  Uiso   1.00
H1031  H     0.78101   0.58238   0.57172   0.00000  Uiso   1.00
H1032  H     0.75697   0.37042   0.75210   0.00000  Uiso   1.00
H1033  H     0.75710   0.62913   0.75171   0.00000  Uiso   1.00
H1034  H     0.94327   0.55276   0.79911   0.00000  Uiso   1.00
H1035  H     0.69614   0.55196   0.80048   0.00000  Uiso   1.00
H1036  H     0.96816   0.44777   0.70174   0.00000  Uiso   1.00
H1037  H     0.93426   0.56422   0.91949   0.00000  Uiso   1.00
H1038  H     0.96219   0.55495   0.99668   0.00000  Uiso   1.00
N1039  N     0.71598   0.49999   0.74999   0.00000  Uiso   1.00
N1040  N     0.95069   0.50002   0.74999   0.00000  Uiso   1.00
O1041  O     0.79375   0.56011   0.75001   0.00000  Uiso   1.00
O1042  O     0.74000   0.50621   0.57211   0.00000  Uiso   1.00
O1043  O     0.87294   0.56012   0.75001   0.00000  Uiso   1.00
O1044  O     0.77441   0.49998   0.82549   0.00000  Uiso   1.00
O1045  O     0.85360   0.49999   0.82549   0.00000  Uiso   1.00
O1046  O     0.79373   0.43988   0.75000   0.00000  Uiso   1.00
O1047  O     0.87292   0.43989   0.74999   0.00000  Uiso   1.00
O1048  O     0.81306   0.50001   0.67451   0.00000  Uiso   1.00
O1049  O     0.89225   0.50002   0.67451   0.00000  Uiso   1.00
O1050  O     0.73341   0.44153   0.69379   0.00000  Uiso   1.00
C1051  C     0.16674   0.91263   0.74991   0.00000  Uiso   1.00
C1052  C     0.12399   0.83928   0.90798   0.00000  Uiso   1.00
C1053  C     0.20963   0.97883   0.74848   0.00000  Uiso   1.00
C1054  C     0.14042   0.83573   0.85023   0.00000  Uiso   1.00
C1055  C     0.20958   0.68808   0.74846   0.00000  Uiso   1.00
C1056  C     0.16668   0.70941   0.74972   0.00000  Uiso   1.00
C1057  C     0.12386   0.68783   0.75090   0.00000  Uiso   1.00
C1058  C     0.12394   0.97858   0.75078   0.00000  Uiso   1.00
C1059  C     0.16680   0.95725   0.74970   0.00000  Uiso   1.00
C1060  C     0.30107   0.86247   0.77741   0.00000  Uiso   1.00
C1061  C     0.01709   0.86220   0.77788   0.00000  Uiso   1.00
C1062  C     0.14226   0.84600   0.99146   0.00000  Uiso   1.00
C1063  C     0.03321   0.80457   0.72068   0.00000  Uiso   1.00
C1064  C     0.31589   0.80433   0.72223   0.00000  Uiso   1.00
C1065  C     0.16664   0.75403   0.74989   0.00000  Uiso   1.00
C1066  C     0.19288   0.83421   0.64989   0.00000  Uiso   1.00
C1067  C     0.26090   0.87352   0.51619   0.00000  Uiso   1.00
C1068  C     0.20759   0.84124   0.59342   0.00000  Uiso   1.00
C1069  C     0.07622   0.82665   0.93508   0.00000  Uiso   1.00
C1070  C     0.06008   0.82699   0.98940   0.00000  Uiso   1.00
C1071  C     0.09209   0.83730   0.51813   0.00000  Uiso   1.00
C1072  C     0.05710   0.75770   0.64901   0.00000  Uiso   1.00
C1073  C     0.15572   0.85279   0.93672   0.00000  Uiso   1.00
C1074  C     0.03530   0.71466   0.66080   0.00000  Uiso   1.00
C1075  C     0.04899   0.87757   0.58780   0.00000  Uiso   1.00
C1076  C     0.08217   0.90764   0.60532   0.00000  Uiso   1.00
C1077  C     0.17930   0.84963   0.51690   0.00000  Uiso   1.00
C1078  C     0.22489   0.86830   0.99066   0.00000  Uiso   1.00
C1079  C     0.23378   0.88177   0.93943   0.00000  Uiso   1.00
C1080  C     0.19985   0.87390   0.91271   0.00000  Uiso   1.00
C1081  C     0.17328   0.83362   0.56679   0.00000  Uiso   1.00
C1082  C     0.25186   0.86073   0.56777   0.00000  Uiso   1.00
Cu1083 Cu    0.11978   0.83333   0.75000   0.00000  Uiso   1.00
Cu1084 Cu    0.21355   0.83334   0.75000   0.00000  Uiso   1.00
H1085  H     0.27869   0.86709   0.58801   0.00000  Uiso   1.00
H1086  H     0.14222   0.81471   0.58585   0.00000  Uiso   1.00
H1087  H     0.05092   0.81673   0.91423   0.00000  Uiso   1.00
H1088  H     0.02241   0.81889   0.50958   0.00000  Uiso   1.00
H1089  H     0.20784   0.88604   0.87371   0.00000  Uiso   1.00
H1090  H     0.24315   0.96292   0.74756   0.00000  Uiso   1.00
H1091  H     0.09270   0.75437   0.61791   0.00000  Uiso   1.00
H1092  H     0.03427   0.77742   0.63181   0.00000  Uiso   1.00
H1093  H     0.00137   0.71537   0.69448   0.00000  Uiso   1.00
H1094  H     0.02645   0.70205   0.62597   0.00000  Uiso   1.00
H1095  H     0.06218   0.69392   0.67033   0.00000  Uiso   1.00
H1096  H     0.24306   0.70420   0.74753   0.00000  Uiso   1.00
H1097  H     0.01642   0.87166   0.62200   0.00000  Uiso   1.00
H1098  H     0.03520   0.89221   0.55735   0.00000  Uiso   1.00
H1099  H     0.09500   0.89372   0.63662   0.00000  Uiso   1.00
H1100  H     0.06156   0.93625   0.62093   0.00000  Uiso   1.00
H1101  H     0.11434   0.91572   0.57172   0.00000  Uiso   1.00
H1102  H     0.09030   0.70375   0.75210   0.00000  Uiso   1.00
H1103  H     0.09044   0.96247   0.75171   0.00000  Uiso   1.00
H1104  H     0.27660   0.88609   0.79911   0.00000  Uiso   1.00
H1105  H     0.02947   0.88529   0.80048   0.00000  Uiso   1.00
H1106  H     0.30150   0.78110   0.70174   0.00000  Uiso   1.00
H1107  H     0.26759   0.89755   0.91949   0.00000  Uiso   1.00
H1108  H     0.29553   0.88829   0.99668   0.00000  Uiso   1.00
N1109  N     0.04931   0.83332   0.74999   0.00000  Uiso   1.00
N1110  N     0.28402   0.83335   0.74999   0.00000  Uiso   1.00
O1111  O     0.12708   0.89345   0.75001   0.00000  Uiso   1.00
O1112  O     0.07333   0.83955   0.57211   0.00000  Uiso   1.00
O1113  O     0.20627   0.89346   0.75001   0.00000  Uiso   1.00
O1114  O     0.10775   0.83332   0.82549   0.00000  Uiso   1.00
O1115  O     0.18694   0.83333   0.82549   0.00000  Uiso   1.00
O1116  O     0.12706   0.77321   0.75000   0.00000  Uiso   1.00
O1117  O     0.20625   0.77322   0.74999   0.00000  Uiso   1.00
O1118  O     0.14640   0.83334   0.67451   0.00000  Uiso   1.00
O1119  O     0.22559   0.83335   0.67451   0.00000  Uiso   1.00
O1120  O     0.06674   0.77486   0.69379   0.00000  Uiso   1.00
C1121  C     0.50008   0.91263   0.74991   0.00000  Uiso   1.00
C1122  C     0.45732   0.83928   0.90798   0.00000  Uiso   1.00
C1123  C     0.54297   0.97883   0.74848   0.00000  Uiso   1.00
C1124  C     0.47375   0.83573   0.85023   0.00000  Uiso   1.00
C1125  C     0.54292   0.68808   0.74846   0.00000  Uiso   1.00
C1126  C     0.50002   0.70941   0.74972   0.00000  Uiso   1.00
C1127  C     0.45720   0.68783   0.75090   0.00000  Uiso   1.00
C1128  C     0.45727   0.97858   0.75078   0.00000  Uiso   1.00
C1129  C     0.50013   0.95725   0.74970   0.00000  Uiso   1.00
C1130  C     0.63440   0.86247   0.77741   0.00000  Uiso   1.00
C1131  C     0.35042   0.86220   0.77788   0.00000  Uiso   1.00
C1132  C     0.47559   0.84600   0.99146   0.00000  Uiso   1.00
C1133  C     0.36654   0.80457   0.72068   0.00000  Uiso   1.00
C1134  C     0.64922   0.80433   0.72223   0.00000  Uiso   1.00
C1135  C     0.49998   0.75403   0.74989   0.00000  Uiso   1.00
C1136  C     0.52621   0.83421   0.64989   0.00000  Uiso   1.00
C1137  C     0.59423   0.87352   0.51619   0.00000  Uiso   1.00
C1138  C     0.54092   0.84124   0.59342   0.00000  Uiso   1.00
C1139  C     0.40955   0.82665   0.93508   0.00000  Uiso   1.00
C1140  C     0.39341   0.82699   0.98940   0.00000  Uiso   1.00
C1141  C     0.42542   0.83730   0.51813   0.00000  Uiso   1.00
C1142  C     0.39043   0.75770   0.64901   0.00000  Uiso   1.00
C1143  C     0.48906   0.85279   0.93672   0.00000  Uiso   1.00
C1144  C     0.36863   0.71466   0.66080   0.00000  Uiso   1.00
C1145  C     0.38232   0.87757   0.58780   0.00000  Uiso   1.00
C1146  C     0.41550   0.90764   0.60532   0.00000  Uiso   1.00
C1147  C     0.51263   0.84963   0.51690   0.00000  Uiso   1.00
C1148  C     0.55822   0.86830   0.99066   0.00000  Uiso   1.00
C1149  C     0.56712   0.88177   0.93943   0.00000  Uiso   1.00
C1150  C     0.53318   0.87390   0.91271   0.00000  Uiso   1.00
C1151  C     0.50662   0.83362   0.56679   0.00000  Uiso   1.00
C1152  C     0.58520   0.86073   0.56777   0.00000  Uiso   1.00
Cu1153 Cu    0.45311   0.83333   0.75000   0.00000  Uiso   1.00
Cu1154 Cu    0.54689   0.83334   0.75000   0.00000  Uiso   1.00
H1155  H     0.61203   0.86709   0.58801   0.00000  Uiso   1.00
H1156  H     0.47556   0.81471   0.58585   0.00000  Uiso   1.00
H1157  H     0.38425   0.81673   0.91423   0.00000  Uiso   1.00
H1158  H     0.35574   0.81889   0.50958   0.00000  Uiso   1.00
H1159  H     0.54117   0.88604   0.87371   0.00000  Uiso   1.00
H1160  H     0.57648   0.96292   0.74756   0.00000  Uiso   1.00
H1161  H     0.42603   0.75437   0.61791   0.00000  Uiso   1.00
H1162  H     0.36760   0.77742   0.63181   0.00000  Uiso   1.00
H1163  H     0.33470   0.71537   0.69448   0.00000  Uiso   1.00
H1164  H     0.35978   0.70205   0.62597   0.00000  Uiso   1.00
H1165  H     0.39552   0.69392   0.67033   0.00000  Uiso   1.00
H1166  H     0.57640   0.70420   0.74753   0.00000  Uiso   1.00
H1167  H     0.34975   0.87166   0.62200   0.00000  Uiso   1.00
H1168  H     0.36853   0.89221   0.55735   0.00000  Uiso   1.00
H1169  H     0.42834   0.89372   0.63662   0.00000  Uiso   1.00
H1170  H     0.39489   0.93625   0.62093   0.00000  Uiso   1.00
H1171  H     0.44768   0.91572   0.57172   0.00000  Uiso   1.00
H1172  H     0.42364   0.70375   0.75210   0.00000  Uiso   1.00
H1173  H     0.42377   0.96247   0.75171   0.00000  Uiso   1.00
H1174  H     0.60993   0.88609   0.79911   0.00000  Uiso   1.00
H1175  H     0.36281   0.88529   0.80048   0.00000  Uiso   1.00
H1176  H     0.63483   0.78110   0.70174   0.00000  Uiso   1.00
H1177  H     0.60093   0.89755   0.91949   0.00000  Uiso   1.00
H1178  H     0.62886   0.88829   0.99668   0.00000  Uiso   1.00
N1179  N     0.38265   0.83332   0.74999   0.00000  Uiso   1.00
N1180  N     0.61735   0.83335   0.74999   0.00000  Uiso   1.00
O1181  O     0.46042   0.89345   0.75001   0.00000  Uiso   1.00
O1182  O     0.40666   0.83955   0.57211   0.00000  Uiso   1.00
O1183  O     0.53961   0.89346   0.75001   0.00000  Uiso   1.00
O1184  O     0.44108   0.83332   0.82549   0.00000  Uiso   1.00
O1185  O     0.52027   0.83333   0.82549   0.00000  Uiso   1.00
O1186  O     0.46039   0.77321   0.75000   0.00000  Uiso   1.00
O1187  O     0.53958   0.77322   0.74999   0.00000  Uiso   1.00
O1188  O     0.47973   0.83334   0.67451   0.00000  Uiso   1.00
O1189  O     0.55892   0.83335   0.67451   0.00000  Uiso   1.00
O1190  O     0.40007   0.77486   0.69379   0.00000  Uiso   1.00
C1191  C     0.83341   0.91263   0.74991   0.00000  Uiso   1.00
C1192  C     0.79066   0.83928   0.90798   0.00000  Uiso   1.00
C1193  C     0.87630   0.97883   0.74848   0.00000  Uiso   1.00
C1194  C     0.80708   0.83573   0.85023   0.00000  Uiso   1.00
C1195  C     0.87625   0.68808   0.74846   0.00000  Uiso   1.00
C1196  C     0.83335   0.70941   0.74972   0.00000  Uiso   1.00
C1197  C     0.79053   0.68783   0.75090   0.00000  Uiso   1.00
C1198  C     0.79061   0.97858   0.75078   0.00000  Uiso   1.00
C1199  C     0.83347   0.95725   0.74970   0.00000  Uiso   1.00
C1200  C     0.96774   0.86247   0.77741   0.00000  Uiso   1.00
C1201  C     0.68375   0.86220   0.77788   0.00000  Uiso   1.00
C1202  C     0.80893   0.84600   0.99146   0.00000  Uiso   1.00
C1203  C     0.69987   0.80457   0.72068   0.00000  Uiso   1.00
C1204  C     0.98255   0.80433   0.72223   0.00000  Uiso   1.00
C1205  C     0.83331   0.75403   0.74989   0.00000  Uiso   1.00
C1206  C     0.85954   0.83421   0.64989   0.00000  Uiso   1.00
C1207  C     0.92757   0.87352   0.51619   0.00000  Uiso   1.00
C1208  C     0.87426   0.84124   0.59342   0.00000  Uiso   1.00
C1209  C     0.74288   0.82665   0.93508   0.00000  Uiso   1.00
C1210  C     0.72675   0.82699   0.98940   0.00000  Uiso   1.00
C1211  C     0.75876   0.83730   0.51813   0.00000  Uiso   1.00
C1212  C     0.72377   0.75770   0.64901   0.00000  Uiso   1.00
C1213  C     0.82239   0.85279   0.93672   0.00000  Uiso   1.00
C1214  C     0.70196   0.71466   0.66080   0.00000  Uiso   1.00
C1215  C     0.71565   0.87757   0.58780   0.00000  Uiso   1.00
C1216  C     0.74884   0.90764   0.60532   0.00000  Uiso   1.00
C1217  C     0.84597   0.84963   0.51690   0.00000  Uiso   1.00
C1218  C     0.89156   0.86830   0.99066   0.00000  Uiso   1.00
C1219  C     0.90045   0.88177   0.93943   0.00000  Uiso   1.00
C1220  C     0.86651   0.87390   0.91271   0.00000  Uiso   1.00
C1221  C     0.83995   0.83362   0.56679   0.00000  Uiso   1.00
C1222  C     0.91853   0.86073   0.56777   0.00000  Uiso   1.00
Cu1223 Cu    0.78645   0.83333   0.75000   0.00000  Uiso   1.00
Cu1224 Cu    0.88022   0.83334   0.75000   0.00000  Uiso   1.00
H1225  H     0.94536   0.86709   0.58801   0.00000  Uiso   1.00
H1226  H     0.80889   0.81471   0.58585   0.00000  Uiso   1.00
H1227  H     0.71759   0.81673   0.91423   0.00000  Uiso   1.00
H1228  H     0.68907   0.81889   0.50958   0.00000  Uiso   1.00
H1229  H     0.87450   0.88604   0.87371   0.00000  Uiso   1.00
H1230  H     0.90981   0.96292   0.74756   0.00000  Uiso   1.00
H1231  H     0.75937   0.75437   0.61791   0.00000  Uiso   1.00
H1232  H     0.70094   0.77742   0.63181   0.00000  Uiso   1.00
H1233  H     0.66804   0.71537   0.69448   0.00000  Uiso   1.00
H1234  H     0.69311   0.70205   0.62597   0.00000  Uiso   1.00
H1235  H     0.72885   0.69392   0.67033   0.00000  Uiso   1.00
H1236  H     0.90973   0.70420   0.74753   0.00000  Uiso   1.00
H1237  H     0.68308   0.87166   0.62200   0.00000  Uiso   1.00
H1238  H     0.70187   0.89221   0.55735   0.00000  Uiso   1.00
H1239  H     0.76167   0.89372   0.63662   0.00000  Uiso   1.00
H1240  H     0.72822   0.93625   0.62093   0.00000  Uiso   1.00
H1241  H     0.78101   0.91572   0.57172   0.00000  Uiso   1.00
H1242  H     0.75697   0.70375   0.75210   0.00000  Uiso   1.00
H1243  H     0.75710   0.96247   0.75171   0.00000  Uiso   1.00
H1244  H     0.94327   0.88609   0.79911   0.00000  Uiso   1.00
H1245  H     0.69614   0.88529   0.80048   0.00000  Uiso   1.00
H1246  H     0.96816   0.78110   0.70174   0.00000  Uiso   1.00
H1247  H     0.93426   0.89755   0.91949   0.00000  Uiso   1.00
H1248  H     0.96219   0.88829   0.99668   0.00000  Uiso   1.00
N1249  N     0.71598   0.83332   0.74999   0.00000  Uiso   1.00
N1250  N     0.95069   0.83335   0.74999   0.00000  Uiso   1.00
O1251  O     0.79375   0.89345   0.75001   0.00000  Uiso   1.00
O1252  O     0.74000   0.83955   0.57211   0.00000  Uiso   1.00
O1253  O     0.87294   0.89346   0.75001   0.00000  Uiso   1.00
O1254  O     0.77441   0.83332   0.82549   0.00000  Uiso   1.00
O1255  O     0.85360   0.83333   0.82549   0.00000  Uiso   1.00
O1256  O     0.79373   0.77321   0.75000   0.00000  Uiso   1.00
O1257  O     0.87292   0.77322   0.74999   0.00000  Uiso   1.00
O1258  O     0.81306   0.83334   0.67451   0.00000  Uiso   1.00
O1259  O     0.89225   0.83335   0.67451   0.00000  Uiso   1.00
O1260  O     0.73341   0.77486   0.69379   0.00000  Uiso   1.00
loop_
_geom_bond_atom_site_label_1
_geom_bond_atom_site_label_2
_geom_bond_distance
_geom_bond_site_symmetry_2
_ccdc_geom_bond_type
C1     C9      1.449   .     S
C1     O63     1.292   .     A
C1     O61     1.291   .     A
C2     C4      1.478   .     S
C2     C23     1.419   .     A
C2     C19     1.403   .     A
C3     C9      1.401   .     A
C3     H40     1.083   .     S
C3     C215    1.383   .     S
C4     O64     1.298   .     A
C4     O65     1.298   .     A
C5     H46     1.083   .     S
C5     C6      1.401   .     A
C5     C423    1.383   1_545 S
C6     C7      1.400   .     A
C6     C15     1.449   .     S
C7     H52     1.083   .     S
C7     C428    1.383   1_545 S
C8     H53     1.083   .     S
C8     C9      1.402   .     A
C8     C217    1.383   .     S
C10    N60     1.366   .     A
C10    H54     1.080   .     S
C10    C81     1.414   .     S
C11    N59     1.366   .     A
C11    H55     1.082   .     S
C11    C150    1.414   1_455 S
C12    C23     1.418   .     A
C12    C651    1.426   .     S
C12    C657    1.424   .     S
C13    N59     1.377   .     A
C13    O70     1.395   .     S
C13    C154    1.436   1_455 S
C14    N60     1.362   .     A
C14    H56     1.079   .     S
C14    C83     1.436   .     S
C15    O67     1.291   .     A
C15    O66     1.292   .     A
C16    O68     1.294   .     A
C16    C18     1.463   .     S
C16    O69     1.295   .     A
C17    C32     1.394   .     A
C17    C658    1.404   1_554 S
C17    H688    1.084   1_554 S
C18    C32     1.399   .     A
C18    C31     1.394   .     A
C19    C20     1.387   .     A
C19    H37     1.083   .     S
C20    C651    1.398   .     S
C20    H668    1.083   .     S
C21    O62     1.383   .     S
C21    C650    1.398   1_554 S
C21    C642    1.426   1_554 S
C22    H42     1.112   .     S
C22    C24     1.526   .     S
C22    H41     1.110   .     S
C22    O70     1.416   .     S
C23    C30     1.411   .     A
C24    H45     1.110   .     S
C24    H44     1.110   .     S
C24    H43     1.109   .     S
C25    H48     1.117   .     S
C25    C26     1.524   .     S
C25    O62     1.416   .     S
C25    H47     1.111   .     S
C26    H51     1.110   .     S
C26    H50     1.111   .     S
C26    H49     1.111   .     S
C27    C31     1.400   .     A
C27    C642    1.424   1_554 S
C27    C658    1.419   1_554 S
C28    C29     1.392   .     A
C28    C647    1.404   .     S
C28    C657    1.419   .     S
C29    C30     1.388   .     A
C29    H57     1.084   .     S
C30    H39     1.078   .     S
C31    H36     1.076   .     S
C32    H35     1.081   .     S
Cu33   O66     1.964   .     S
Cu33   Cu34    2.680   .     S
Cu33   N59     2.014   .     S
Cu33   O64     1.945   .     S
Cu33   O61     1.963   .     S
Cu33   O68     1.934   .     S
Cu34   N60     2.014   .     S
Cu34   O67     1.963   .     S
Cu34   O65     1.934   .     S
Cu34   O63     1.964   .     S
Cu34   O69     1.945   .     S
H38    C650    1.083   1_554 S
H58    C647    1.084   .     S
C71    C79     1.449   .     S
C71    O133    1.292   .     A
C71    O131    1.291   .     A
C72    C74     1.478   .     S
C72    C93     1.419   .     A
C72    C89     1.403   .     A
C73    C79     1.401   .     A
C73    H110    1.083   .     S
C73    C285    1.383   .     S
C74    O134    1.298   .     A
C74    O135    1.298   .     A
C75    H116    1.083   .     S
C75    C76     1.401   .     A
C75    C493    1.383   1_545 S
C76    C77     1.400   .     A
C76    C85     1.449   .     S
C77    H122    1.083   .     S
C77    C498    1.383   1_545 S
C78    H123    1.083   .     S
C78    C79     1.402   .     A
C78    C287    1.383   .     S
C80    N130    1.366   .     A
C80    H124    1.080   .     S
C80    C151    1.414   .     S
C81    N129    1.366   .     A
C81    H125    1.082   .     S
C82    C93     1.418   .     A
C82    C721    1.426   .     S
C82    C727    1.424   .     S
C83    N129    1.377   .     A
C83    O140    1.395   .     S
C84    N130    1.362   .     A
C84    H126    1.079   .     S
C84    C153    1.436   .     S
C85    O137    1.291   .     A
C85    O136    1.292   .     A
C86    O138    1.294   .     A
C86    C88     1.463   .     S
C86    O139    1.295   .     A
C87    C102    1.394   .     A
C87    C728    1.404   1_554 S
C87    H758    1.084   1_554 S
C88    C102    1.399   .     A
C88    C101    1.394   .     A
C89    C90     1.387   .     A
C89    H107    1.083   .     S
C90    C721    1.398   .     S
C90    H738    1.083   .     S
C91    O132    1.383   .     S
C91    C720    1.398   1_554 S
C91    C712    1.426   1_554 S
C92    H112    1.112   .     S
C92    C94     1.526   .     S
C92    H111    1.110   .     S
C92    O140    1.416   .     S
C93    C100    1.411   .     A
C94    H115    1.110   .     S
C94    H114    1.110   .     S
C94    H113    1.109   .     S
C95    H118    1.117   .     S
C95    C96     1.524   .     S
C95    O132    1.416   .     S
C95    H117    1.111   .     S
C96    H121    1.110   .     S
C96    H120    1.111   .     S
C96    H119    1.111   .     S
C97    C101    1.400   .     A
C97    C712    1.424   1_554 S
C97    C728    1.419   1_554 S
C98    C99     1.392   .     A
C98    C717    1.404   .     S
C98    C727    1.419   .     S
C99    C100    1.388   .     A
C99    H127    1.084   .     S
C100   H109    1.078   .     S
C101   H106    1.076   .     S
C102   H105    1.081   .     S
Cu103  O136    1.964   .     S
Cu103  Cu104   2.680   .     S
Cu103  N129    2.014   .     S
Cu103  O134    1.945   .     S
Cu103  O131    1.963   .     S
Cu103  O138    1.934   .     S
Cu104  N130    2.014   .     S
Cu104  O137    1.963   .     S
Cu104  O135    1.934   .     S
Cu104  O133    1.964   .     S
Cu104  O139    1.945   .     S
H108   C720    1.083   1_554 S
H128   C717    1.084   .     S
C141   C149    1.449   .     S
C141   O203    1.292   .     A
C141   O201    1.291   .     A
C142   C144    1.478   .     S
C142   C163    1.419   .     A
C142   C159    1.403   .     A
C143   C149    1.401   .     A
C143   H180    1.083   .     S
C143   C355    1.383   .     S
C144   O204    1.298   .     A
C144   O205    1.298   .     A
C145   H186    1.083   .     S
C145   C146    1.401   .     A
C145   C563    1.383   1_545 S
C146   C147    1.400   .     A
C146   C155    1.449   .     S
C147   H192    1.083   .     S
C147   C568    1.383   1_545 S
C148   H193    1.083   .     S
C148   C149    1.402   .     A
C148   C357    1.383   .     S
C150   N200    1.366   .     A
C150   H194    1.080   .     S
C150   C11     1.414   1_655 S
C151   N199    1.366   .     A
C151   H195    1.082   .     S
C152   C163    1.418   .     A
C152   C791    1.426   .     S
C152   C797    1.424   .     S
C153   N199    1.377   .     A
C153   O210    1.395   .     S
C154   N200    1.362   .     A
C154   H196    1.079   .     S
C154   C13     1.436   1_655 S
C155   O207    1.291   .     A
C155   O206    1.292   .     A
C156   O208    1.294   .     A
C156   C158    1.463   .     S
C156   O209    1.295   .     A
C157   C172    1.394   .     A
C157   C798    1.404   1_554 S
C157   H828    1.084   1_554 S
C158   C172    1.399   .     A
C158   C171    1.394   .     A
C159   C160    1.387   .     A
C159   H177    1.083   .     S
C160   C791    1.398   .     S
C160   H808    1.083   .     S
C161   O202    1.383   .     S
C161   C790    1.398   1_554 S
C161   C782    1.426   1_554 S
C162   H182    1.112   .     S
C162   C164    1.526   .     S
C162   H181    1.110   .     S
C162   O210    1.416   .     S
C163   C170    1.411   .     A
C164   H185    1.110   .     S
C164   H184    1.110   .     S
C164   H183    1.109   .     S
C165   H188    1.117   .     S
C165   C166    1.524   .     S
C165   O202    1.416   .     S
C165   H187    1.111   .     S
C166   H191    1.110   .     S
C166   H190    1.111   .     S
C166   H189    1.111   .     S
C167   C171    1.400   .     A
C167   C782    1.424   1_554 S
C167   C798    1.419   1_554 S
C168   C169    1.392   .     A
C168   C787    1.404   .     S
C168   C797    1.419   .     S
C169   C170    1.388   .     A
C169   H197    1.084   .     S
C170   H179    1.078   .     S
C171   H176    1.076   .     S
C172   H175    1.081   .     S
Cu173  O206    1.964   .     S
Cu173  Cu174   2.680   .     S
Cu173  N199    2.014   .     S
Cu173  O204    1.945   .     S
Cu173  O201    1.963   .     S
Cu173  O208    1.934   .     S
Cu174  N200    2.014   .     S
Cu174  O207    1.963   .     S
Cu174  O205    1.934   .     S
Cu174  O203    1.964   .     S
Cu174  O209    1.945   .     S
H178   C790    1.083   1_554 S
H198   C787    1.084   .     S
C211   C219    1.449   .     S
C211   O273    1.292   .     A
C211   O271    1.291   .     A
C212   C214    1.478   .     S
C212   C233    1.419   .     A
C212   C229    1.403   .     A
C213   C219    1.401   .     A
C213   H250    1.083   .     S
C213   C425    1.383   .     S
C214   O274    1.298   .     A
C214   O275    1.298   .     A
C215   H256    1.083   .     S
C215   C216    1.401   .     A
C216   C217    1.400   .     A
C216   C225    1.449   .     S
C217   H262    1.083   .     S
C218   H263    1.083   .     S
C218   C219    1.402   .     A
C218   C427    1.383   .     S
C220   N270    1.366   .     A
C220   H264    1.080   .     S
C220   C291    1.414   .     S
C221   N269    1.366   .     A
C221   H265    1.082   .     S
C221   C360    1.414   1_455 S
C222   C233    1.418   .     A
C222   C861    1.426   .     S
C222   C867    1.424   .     S
C223   N269    1.377   .     A
C223   O280    1.395   .     S
C223   C364    1.436   1_455 S
C224   N270    1.362   .     A
C224   H266    1.079   .     S
C224   C293    1.436   .     S
C225   O277    1.291   .     A
C225   O276    1.292   .     A
C226   O278    1.294   .     A
C226   C228    1.463   .     S
C226   O279    1.295   .     A
C227   C242    1.394   .     A
C227   C868    1.404   1_554 S
C227   H898    1.084   1_554 S
C228   C242    1.399   .     A
C228   C241    1.394   .     A
C229   C230    1.387   .     A
C229   H247    1.083   .     S
C230   C861    1.398   .     S
C230   H878    1.083   .     S
C231   O272    1.383   .     S
C231   C860    1.398   1_554 S
C231   C852    1.426   1_554 S
C232   H252    1.112   .     S
C232   C234    1.526   .     S
C232   H251    1.110   .     S
C232   O280    1.416   .     S
C233   C240    1.411   .     A
C234   H255    1.110   .     S
C234   H254    1.110   .     S
C234   H253    1.109   .     S
C235   H258    1.117   .     S
C235   C236    1.524   .     S
C235   O272    1.416   .     S
C235   H257    1.111   .     S
C236   H261    1.110   .     S
C236   H260    1.111   .     S
C236   H259    1.111   .     S
C237   C241    1.400   .     A
C237   C852    1.424   1_554 S
C237   C868    1.419   1_554 S
C238   C239    1.392   .     A
C238   C857    1.404   .     S
C238   C867    1.419   .     S
C239   C240    1.388   .     A
C239   H267    1.084   .     S
C240   H249    1.078   .     S
C241   H246    1.076   .     S
C242   H245    1.081   .     S
Cu243  O276    1.964   .     S
Cu243  Cu244   2.680   .     S
Cu243  N269    2.014   .     S
Cu243  O274    1.945   .     S
Cu243  O271    1.963   .     S
Cu243  O278    1.934   .     S
Cu244  N270    2.014   .     S
Cu244  O277    1.963   .     S
Cu244  O275    1.934   .     S
Cu244  O273    1.964   .     S
Cu244  O279    1.945   .     S
H248   C860    1.083   1_554 S
H268   C857    1.084   .     S
C281   C289    1.449   .     S
C281   O343    1.292   .     A
C281   O341    1.291   .     A
C282   C284    1.478   .     S
C282   C303    1.419   .     A
C282   C299    1.403   .     A
C283   C289    1.401   .     A
C283   H320    1.083   .     S
C283   C495    1.383   .     S
C284   O344    1.298   .     A
C284   O345    1.298   .     A
C285   H326    1.083   .     S
C285   C286    1.401   .     A
C286   C287    1.400   .     A
C286   C295    1.449   .     S
C287   H332    1.083   .     S
C288   H333    1.083   .     S
C288   C289    1.402   .     A
C288   C497    1.383   .     S
C290   N340    1.366   .     A
C290   H334    1.080   .     S
C290   C361    1.414   .     S
C291   N339    1.366   .     A
C291   H335    1.082   .     S
C292   C303    1.418   .     A
C292   C931    1.426   .     S
C292   C937    1.424   .     S
C293   N339    1.377   .     A
C293   O350    1.395   .     S
C294   N340    1.362   .     A
C294   H336    1.079   .     S
C294   C363    1.436   .     S
C295   O347    1.291   .     A
C295   O346    1.292   .     A
C296   O348    1.294   .     A
C296   C298    1.463   .     S
C296   O349    1.295   .     A
C297   C312    1.394   .     A
C297   C938    1.404   1_554 S
C297   H968    1.084   1_554 S
C298   C312    1.399   .     A
C298   C311    1.394   .     A
C299   C300    1.387   .     A
C299   H317    1.083   .     S
C300   C931    1.398   .     S
C300   H948    1.083   .     S
C301   O342    1.383   .     S
C301   C930    1.398   1_554 S
C301   C922    1.426   1_554 S
C302   H322    1.112   .     S
C302   C304    1.526   .     S
C302   H321    1.110   .     S
C302   O350    1.416   .     S
C303   C310    1.411   .     A
C304   H325    1.110   .     S
C304   H324    1.110   .     S
C304   H323    1.109   .     S
C305   H328    1.117   .     S
C305   C306    1.524   .     S
C305   O342    1.416   .     S
C305   H327    1.111   .     S
C306   H331    1.110   .     S
C306   H330    1.111   .     S
C306   H329    1.111   .     S
C307   C311    1.400   .     A
C307   C922    1.424   1_554 S
C307   C938    1.419   1_554 S
C308   C309    1.392   .     A
C308   C927    1.404   .     S
C308   C937    1.419   .     S
C309   C310    1.388   .     A
C309   H337    1.084   .     S
C310   H319    1.078   .     S
C311   H316    1.076   .     S
C312   H315    1.081   .     S
Cu313  O346    1.964   .     S
Cu313  Cu314   2.680   .     S
Cu313  N339    2.014   .     S
Cu313  O344    1.945   .     S
Cu313  O341    1.963   .     S
Cu313  O348    1.934   .     S
Cu314  N340    2.014   .     S
Cu314  O347    1.963   .     S
Cu314  O345    1.934   .     S
Cu314  O343    1.964   .     S
Cu314  O349    1.945   .     S
H318   C930    1.083   1_554 S
H338   C927    1.084   .     S
C351   C359    1.449   .     S
C351   O413    1.292   .     A
C351   O411    1.291   .     A
C352   C354    1.478   .     S
C352   C373    1.419   .     A
C352   C369    1.403   .     A
C353   C359    1.401   .     A
C353   H390    1.083   .     S
C353   C565    1.383   .     S
C354   O414    1.298   .     A
C354   O415    1.298   .     A
C355   H396    1.083   .     S
C355   C356    1.401   .     A
C356   C357    1.400   .     A
C356   C365    1.449   .     S
C357   H402    1.083   .     S
C358   H403    1.083   .     S
C358   C359    1.402   .     A
C358   C567    1.383   .     S
C360   N410    1.366   .     A
C360   H404    1.080   .     S
C360   C221    1.414   1_655 S
C361   N409    1.366   .     A
C361   H405    1.082   .     S
C362   C373    1.418   .     A
C362   C1001   1.426   .     S
C362   C1007   1.424   .     S
C363   N409    1.377   .     A
C363   O420    1.395   .     S
C364   N410    1.362   .     A
C364   H406    1.079   .     S
C364   C223    1.436   1_655 S
C365   O417    1.291   .     A
C365   O416    1.292   .     A
C366   O418    1.294   .     A
C366   C368    1.463   .     S
C366   O419    1.295   .     A
C367   C382    1.394   .     A
C367   C1008   1.404   1_554 S
C367   H1038   1.084   1_554 S
C368   C382    1.399   .     A
C368   C381    1.394   .     A
C369   C370    1.387   .     A
C369   H387    1.083   .     S
C370   C1001   1.398   .     S
C370   H1018   1.083   .     S
C371   O412    1.383   .     S
C371   C1000   1.398   1_554 S
C371   C992    1.426   1_554 S
C372   H392    1.112   .     S
C372   C374    1.526   .     S
C372   H391    1.110   .     S
C372   O420    1.416   .     S
C373   C380    1.411   .     A
C374   H395    1.110   .     S
C374   H394    1.110   .     S
C374   H393    1.109   .     S
C375   H398    1.117   .     S
C375   C376    1.524   .     S
C375   O412    1.416   .     S
C375   H397    1.111   .     S
C376   H401    1.110   .     S
C376   H400    1.111   .     S
C376   H399    1.111   .     S
C377   C381    1.400   .     A
C377   C992    1.424   1_554 S
C377   C1008   1.419   1_554 S
C378   C379    1.392   .     A
C378   C997    1.404   .     S
C378   C1007   1.419   .     S
C379   C380    1.388   .     A
C379   H407    1.084   .     S
C380   H389    1.078   .     S
C381   H386    1.076   .     S
C382   H385    1.081   .     S
Cu383  O416    1.964   .     S
Cu383  Cu384   2.680   .     S
Cu383  N409    2.014   .     S
Cu383  O414    1.945   .     S
Cu383  O411    1.963   .     S
Cu383  O418    1.934   .     S
Cu384  N410    2.014   .     S
Cu384  O417    1.963   .     S
Cu384  O415    1.934   .     S
Cu384  O413    1.964   .     S
Cu384  O419    1.945   .     S
H388   C1000   1.083   1_554 S
H408   C997    1.084   .     S
C421   C429    1.449   .     S
C421   O483    1.292   .     A
C421   O481    1.291   .     A
C422   C424    1.478   .     S
C422   C443    1.419   .     A
C422   C439    1.403   .     A
C423   C429    1.401   .     A
C423   H460    1.083   .     S
C423   C5      1.383   1_565 S
C424   O484    1.298   .     A
C424   O485    1.298   .     A
C425   H466    1.083   .     S
C425   C426    1.401   .     A
C426   C427    1.400   .     A
C426   C435    1.449   .     S
C427   H472    1.083   .     S
C428   H473    1.083   .     S
C428   C429    1.402   .     A
C428   C7      1.383   1_565 S
C430   N480    1.366   .     A
C430   H474    1.080   .     S
C430   C501    1.414   .     S
C431   N479    1.366   .     A
C431   H475    1.082   .     S
C431   C570    1.414   1_455 S
C432   C443    1.418   .     A
C432   C1071   1.426   .     S
C432   C1077   1.424   .     S
C433   N479    1.377   .     A
C433   O490    1.395   .     S
C433   C574    1.436   1_455 S
C434   N480    1.362   .     A
C434   H476    1.079   .     S
C434   C503    1.436   .     S
C435   O487    1.291   .     A
C435   O486    1.292   .     A
C436   O488    1.294   .     A
C436   C438    1.463   .     S
C436   O489    1.295   .     A
C437   C452    1.394   .     A
C437   C1078   1.404   1_554 S
C437   H1108   1.084   1_554 S
C438   C452    1.399   .     A
C438   C451    1.394   .     A
C439   C440    1.387   .     A
C439   H457    1.083   .     S
C440   C1071   1.398   .     S
C440   H1088   1.083   .     S
C441   O482    1.383   .     S
C441   C1070   1.398   1_554 S
C441   C1062   1.426   1_554 S
C442   H462    1.112   .     S
C442   C444    1.526   .     S
C442   H461    1.110   .     S
C442   O490    1.416   .     S
C443   C450    1.411   .     A
C444   H465    1.110   .     S
C444   H464    1.110   .     S
C444   H463    1.109   .     S
C445   H468    1.117   .     S
C445   C446    1.524   .     S
C445   O482    1.416   .     S
C445   H467    1.111   .     S
C446   H471    1.110   .     S
C446   H470    1.111   .     S
C446   H469    1.111   .     S
C447   C451    1.400   .     A
C447   C1062   1.424   1_554 S
C447   C1078   1.419   1_554 S
C448   C449    1.392   .     A
C448   C1067   1.404   .     S
C448   C1077   1.419   .     S
C449   C450    1.388   .     A
C449   H477    1.084   .     S
C450   H459    1.078   .     S
C451   H456    1.076   .     S
C452   H455    1.081   .     S
Cu453  O486    1.964   .     S
Cu453  Cu454   2.680   .     S
Cu453  N479    2.014   .     S
Cu453  O484    1.945   .     S
Cu453  O481    1.963   .     S
Cu453  O488    1.934   .     S
Cu454  N480    2.014   .     S
Cu454  O487    1.963   .     S
Cu454  O485    1.934   .     S
Cu454  O483    1.964   .     S
Cu454  O489    1.945   .     S
H458   C1070   1.083   1_554 S
H478   C1067   1.084   .     S
C491   C499    1.449   .     S
C491   O553    1.292   .     A
C491   O551    1.291   .     A
C492   C494    1.478   .     S
C492   C513    1.419   .     A
C492   C509    1.403   .     A
C493   C499    1.401   .     A
C493   H530    1.083   .     S
C493   C75     1.383   1_565 S
C494   O554    1.298   .     A
C494   O555    1.298   .     A
C495   H536    1.083   .     S
C495   C496    1.401   .     A
C496   C497    1.400   .     A
C496   C505    1.449   .     S
C497   H542    1.083   .     S
C498   H543    1.083   .     S
C498   C499    1.402   .     A
C498   C77     1.383   1_565 S
C500   N550    1.366   .     A
C500   H544    1.080   .     S
C500   C571    1.414   .     S
C501   N549    1.366   .     A
C501   H545    1.082   .     S
C502   C513    1.418   .     A
C502   C1141   1.426   .     S
C502   C1147   1.424   .     S
C503   N549    1.377   .     A
C503   O560    1.395   .     S
C504   N550    1.362   .     A
C504   H546    1.079   .     S
C504   C573    1.436   .     S
C505   O557    1.291   .     A
C505   O556    1.292   .     A
C506   O558    1.294   .     A
C506   C508    1.463   .     S
C506   O559    1.295   .     A
C507   C522    1.394   .     A
C507   C1148   1.404   1_554 S
C507   H1178   1.084   1_554 S
C508   C522    1.399   .     A
C508   C521    1.394   .     A
C509   C510    1.387   .     A
C509   H527    1.083   .     S
C510   C1141   1.398   .     S
C510   H1158   1.083   .     S
C511   O552    1.383   .     S
C511   C1140   1.398   1_554 S
C511   C1132   1.426   1_554 S
C512   H532    1.112   .     S
C512   C514    1.526   .     S
C512   H531    1.110   .     S
C512   O560    1.416   .     S
C513   C520    1.411   .     A
C514   H535    1.110   .     S
C514   H534    1.110   .     S
C514   H533    1.109   .     S
C515   H538    1.117   .     S
C515   C516    1.524   .     S
C515   O552    1.416   .     S
C515   H537    1.111   .     S
C516   H541    1.110   .     S
C516   H540    1.111   .     S
C516   H539    1.111   .     S
C517   C521    1.400   .     A
C517   C1132   1.424   1_554 S
C517   C1148   1.419   1_554 S
C518   C519    1.392   .     A
C518   C1137   1.404   .     S
C518   C1147   1.419   .     S
C519   C520    1.388   .     A
C519   H547    1.084   .     S
C520   H529    1.078   .     S
C521   H526    1.076   .     S
C522   H525    1.081   .     S
Cu523  O556    1.964   .     S
Cu523  Cu524   2.680   .     S
Cu523  N549    2.014   .     S
Cu523  O554    1.945   .     S
Cu523  O551    1.963   .     S
Cu523  O558    1.934   .     S
Cu524  N550    2.014   .     S
Cu524  O557    1.963   .     S
Cu524  O555    1.934   .     S
Cu524  O553    1.964   .     S
Cu524  O559    1.945   .     S
H528   C1140   1.083   1_554 S
H548   C1137   1.084   .     S
C561   C569    1.449   .     S
C561   O623    1.292   .     A
C561   O621    1.291   .     A
C562   C564    1.478   .     S
C562   C583    1.419   .     A
C562   C579    1.403   .     A
C563   C569    1.401   .     A
C563   H600    1.083   .     S
C563   C145    1.383   1_565 S
C564   O624    1.298   .     A
C564   O625    1.298   .     A
C565   H606    1.083   .     S
C565   C566    1.401   .     A
C566   C567    1.400   .     A
C566   C575    1.449   .     S
C567   H612    1.083   .     S
C568   H613    1.083   .     S
C568   C569    1.402   .     A
C568   C147    1.383   1_565 S
C570   N620    1.366   .     A
C570   H614    1.080   .     S
C570   C431    1.414   1_655 S
C571   N619    1.366   .     A
C571   H615    1.082   .     S
C572   C583    1.418   .     A
C572   C1211   1.426   .     S
C572   C1217   1.424   .     S
C573   N619    1.377   .     A
C573   O630    1.395   .     S
C574   N620    1.362   .     A
C574   H616    1.079   .     S
C574   C433    1.436   1_655 S
C575   O627    1.291   .     A
C575   O626    1.292   .     A
C576   O628    1.294   .     A
C576   C578    1.463   .     S
C576   O629    1.295   .     A
C577   C592    1.394   .     A
C577   C1218   1.404   1_554 S
C577   H1248   1.084   1_554 S
C578   C592    1.399   .     A
C578   C591    1.394   .     A
C579   C580    1.387   .     A
C579   H597    1.083   .     S
C580   C1211   1.398   .     S
C580   H1228   1.083   .     S
C581   O622    1.383   .     S
C581   C1210   1.398   1_554 S
C581   C1202   1.426   1_554 S
C582   H602    1.112   .     S
C582   C584    1.526   .     S
C582   H601    1.110   .     S
C582   O630    1.416   .     S
C583   C590    1.411   .     A
C584   H605    1.110   .     S
C584   H604    1.110   .     S
C584   H603    1.109   .     S
C585   H608    1.117   .     S
C585   C586    1.524   .     S
C585   O622    1.416   .     S
C585   H607    1.111   .     S
C586   H611    1.110   .     S
C586   H610    1.111   .     S
C586   H609    1.111   .     S
C587   C591    1.400   .     A
C587   C1202   1.424   1_554 S
C587   C1218   1.419   1_554 S
C588   C589    1.392   .     A
C588   C1207   1.404   .     S
C588   C1217   1.419   .     S
C589   C590    1.388   .     A
C589   H617    1.084   .     S
C590   H599    1.078   .     S
C591   H596    1.076   .     S
C592   H595    1.081   .     S
Cu593  O626    1.964   .     S
Cu593  Cu594   2.680   .     S
Cu593  N619    2.014   .     S
Cu593  O624    1.945   .     S
Cu593  O621    1.963   .     S
Cu593  O628    1.934   .     S
Cu594  N620    2.014   .     S
Cu594  O627    1.963   .     S
Cu594  O625    1.934   .     S
Cu594  O623    1.964   .     S
Cu594  O629    1.945   .     S
H598   C1210   1.083   1_554 S
H618   C1207   1.084   .     S
C631   C639    1.449   .     S
C631   O693    1.292   .     A
C631   O691    1.291   .     A
C632   C634    1.478   .     S
C632   C653    1.419   .     A
C632   C649    1.403   .     A
C633   C639    1.401   .     A
C633   H670    1.083   .     S
C633   C845    1.383   .     S
C634   O694    1.298   .     A
C634   O695    1.298   .     A
C635   H676    1.083   .     S
C635   C636    1.401   .     A
C635   C1053   1.383   1_545 S
C636   C637    1.400   .     A
C636   C645    1.449   .     S
C637   H682    1.083   .     S
C637   C1058   1.383   1_545 S
C638   H683    1.083   .     S
C638   C639    1.402   .     A
C638   C847    1.383   .     S
C640   N690    1.366   .     A
C640   H684    1.080   .     S
C640   C711    1.414   .     S
C641   N689    1.366   .     A
C641   H685    1.082   .     S
C641   C780    1.414   1_455 S
C642   C653    1.418   .     A
C642   C21     1.426   1_556 S
C642   C27     1.424   1_556 S
C643   N689    1.377   .     A
C643   O700    1.395   .     S
C643   C784    1.436   1_455 S
C644   N690    1.362   .     A
C644   H686    1.079   .     S
C644   C713    1.436   .     S
C645   O697    1.291   .     A
C645   O696    1.292   .     A
C646   O698    1.294   .     A
C646   C648    1.463   .     S
C646   O699    1.295   .     A
C647   C662    1.394   .     A
C648   C662    1.399   .     A
C648   C661    1.394   .     A
C649   C650    1.387   .     A
C649   H667    1.083   .     S
C650   C21     1.398   1_556 S
C650   H38     1.083   1_556 S
C651   O692    1.383   .     S
C652   H672    1.112   .     S
C652   C654    1.526   .     S
C652   H671    1.110   .     S
C652   O700    1.416   .     S
C653   C660    1.411   .     A
C654   H675    1.110   .     S
C654   H674    1.110   .     S
C654   H673    1.109   .     S
C655   H678    1.117   .     S
C655   C656    1.524   .     S
C655   O692    1.416   .     S
C655   H677    1.111   .     S
C656   H681    1.110   .     S
C656   H680    1.111   .     S
C656   H679    1.111   .     S
C657   C661    1.400   .     A
C658   C659    1.392   .     A
C658   C17     1.404   1_556 S
C658   C27     1.419   1_556 S
C659   C660    1.388   .     A
C659   H687    1.084   .     S
C660   H669    1.078   .     S
C661   H666    1.076   .     S
C662   H665    1.081   .     S
Cu663  O696    1.964   .     S
Cu663  Cu664   2.680   .     S
Cu663  N689    2.014   .     S
Cu663  O694    1.945   .     S
Cu663  O691    1.963   .     S
Cu663  O698    1.934   .     S
Cu664  N690    2.014   .     S
Cu664  O697    1.963   .     S
Cu664  O695    1.934   .     S
Cu664  O693    1.964   .     S
Cu664  O699    1.945   .     S
H688   C17     1.084   1_556 S
C701   C709    1.449   .     S
C701   O763    1.292   .     A
C701   O761    1.291   .     A
C702   C704    1.478   .     S
C702   C723    1.419   .     A
C702   C719    1.403   .     A
C703   C709    1.401   .     A
C703   H740    1.083   .     S
C703   C915    1.383   .     S
C704   O764    1.298   .     A
C704   O765    1.298   .     A
C705   H746    1.083   .     S
C705   C706    1.401   .     A
C705   C1123   1.383   1_545 S
C706   C707    1.400   .     A
C706   C715    1.449   .     S
C707   H752    1.083   .     S
C707   C1128   1.383   1_545 S
C708   H753    1.083   .     S
C708   C709    1.402   .     A
C708   C917    1.383   .     S
C710   N760    1.366   .     A
C710   H754    1.080   .     S
C710   C781    1.414   .     S
C711   N759    1.366   .     A
C711   H755    1.082   .     S
C712   C723    1.418   .     A
C712   C91     1.426   1_556 S
C712   C97     1.424   1_556 S
C713   N759    1.377   .     A
C713   O770    1.395   .     S
C714   N760    1.362   .     A
C714   H756    1.079   .     S
C714   C783    1.436   .     S
C715   O767    1.291   .     A
C715   O766    1.292   .     A
C716   O768    1.294   .     A
C716   C718    1.463   .     S
C716   O769    1.295   .     A
C717   C732    1.394   .     A
C718   C732    1.399   .     A
C718   C731    1.394   .     A
C719   C720    1.387   .     A
C719   H737    1.083   .     S
C720   C91     1.398   1_556 S
C720   H108    1.083   1_556 S
C721   O762    1.383   .     S
C722   H742    1.112   .     S
C722   C724    1.526   .     S
C722   H741    1.110   .     S
C722   O770    1.416   .     S
C723   C730    1.411   .     A
C724   H745    1.110   .     S
C724   H744    1.110   .     S
C724   H743    1.109   .     S
C725   H748    1.117   .     S
C725   C726    1.524   .     S
C725   O762    1.416   .     S
C725   H747    1.111   .     S
C726   H751    1.110   .     S
C726   H750    1.111   .     S
C726   H749    1.111   .     S
C727   C731    1.400   .     A
C728   C729    1.392   .     A
C728   C87     1.404   1_556 S
C728   C97     1.419   1_556 S
C729   C730    1.388   .     A
C729   H757    1.084   .     S
C730   H739    1.078   .     S
C731   H736    1.076   .     S
C732   H735    1.081   .     S
Cu733  O766    1.964   .     S
Cu733  Cu734   2.680   .     S
Cu733  N759    2.014   .     S
Cu733  O764    1.945   .     S
Cu733  O761    1.963   .     S
Cu733  O768    1.934   .     S
Cu734  N760    2.014   .     S
Cu734  O767    1.963   .     S
Cu734  O765    1.934   .     S
Cu734  O763    1.964   .     S
Cu734  O769    1.945   .     S
H758   C87     1.084   1_556 S
C771   C779    1.449   .     S
C771   O833    1.292   .     A
C771   O831    1.291   .     A
C772   C774    1.478   .     S
C772   C793    1.419   .     A
C772   C789    1.403   .     A
C773   C779    1.401   .     A
C773   H810    1.083   .     S
C773   C985    1.383   .     S
C774   O834    1.298   .     A
C774   O835    1.298   .     A
C775   H816    1.083   .     S
C775   C776    1.401   .     A
C775   C1193   1.383   1_545 S
C776   C777    1.400   .     A
C776   C785    1.449   .     S
C777   H822    1.083   .     S
C777   C1198   1.383   1_545 S
C778   H823    1.083   .     S
C778   C779    1.402   .     A
C778   C987    1.383   .     S
C780   N830    1.366   .     A
C780   H824    1.080   .     S
C780   C641    1.414   1_655 S
C781   N829    1.366   .     A
C781   H825    1.082   .     S
C782   C793    1.418   .     A
C782   C161    1.426   1_556 S
C782   C167    1.424   1_556 S
C783   N829    1.377   .     A
C783   O840    1.395   .     S
C784   N830    1.362   .     A
C784   H826    1.079   .     S
C784   C643    1.436   1_655 S
C785   O837    1.291   .     A
C785   O836    1.292   .     A
C786   O838    1.294   .     A
C786   C788    1.463   .     S
C786   O839    1.295   .     A
C787   C802    1.394   .     A
C788   C802    1.399   .     A
C788   C801    1.394   .     A
C789   C790    1.387   .     A
C789   H807    1.083   .     S
C790   C161    1.398   1_556 S
C790   H178    1.083   1_556 S
C791   O832    1.383   .     S
C792   H812    1.112   .     S
C792   C794    1.526   .     S
C792   H811    1.110   .     S
C792   O840    1.416   .     S
C793   C800    1.411   .     A
C794   H815    1.110   .     S
C794   H814    1.110   .     S
C794   H813    1.109   .     S
C795   H818    1.117   .     S
C795   C796    1.524   .     S
C795   O832    1.416   .     S
C795   H817    1.111   .     S
C796   H821    1.110   .     S
C796   H820    1.111   .     S
C796   H819    1.111   .     S
C797   C801    1.400   .     A
C798   C799    1.392   .     A
C798   C157    1.404   1_556 S
C798   C167    1.419   1_556 S
C799   C800    1.388   .     A
C799   H827    1.084   .     S
C800   H809    1.078   .     S
C801   H806    1.076   .     S
C802   H805    1.081   .     S
Cu803  O836    1.964   .     S
Cu803  Cu804   2.680   .     S
Cu803  N829    2.014   .     S
Cu803  O834    1.945   .     S
Cu803  O831    1.963   .     S
Cu803  O838    1.934   .     S
Cu804  N830    2.014   .     S
Cu804  O837    1.963   .     S
Cu804  O835    1.934   .     S
Cu804  O833    1.964   .     S
Cu804  O839    1.945   .     S
H828   C157    1.084   1_556 S
C841   C849    1.449   .     S
C841   O903    1.292   .     A
C841   O901    1.291   .     A
C842   C844    1.478   .     S
C842   C863    1.419   .     A
C842   C859    1.403   .     A
C843   C849    1.401   .     A
C843   H880    1.083   .     S
C843   C1055   1.383   .     S
C844   O904    1.298   .     A
C844   O905    1.298   .     A
C845   H886    1.083   .     S
C845   C846    1.401   .     A
C846   C847    1.400   .     A
C846   C855    1.449   .     S
C847   H892    1.083   .     S
C848   H893    1.083   .     S
C848   C849    1.402   .     A
C848   C1057   1.383   .     S
C850   N900    1.366   .     A
C850   H894    1.080   .     S
C850   C921    1.414   .     S
C851   N899    1.366   .     A
C851   H895    1.082   .     S
C851   C990    1.414   1_455 S
C852   C863    1.418   .     A
C852   C231    1.426   1_556 S
C852   C237    1.424   1_556 S
C853   N899    1.377   .     A
C853   O910    1.395   .     S
C853   C994    1.436   1_455 S
C854   N900    1.362   .     A
C854   H896    1.079   .     S
C854   C923    1.436   .     S
C855   O907    1.291   .     A
C855   O906    1.292   .     A
C856   O908    1.294   .     A
C856   C858    1.463   .     S
C856   O909    1.295   .     A
C857   C872    1.394   .     A
C858   C872    1.399   .     A
C858   C871    1.394   .     A
C859   C860    1.387   .     A
C859   H877    1.083   .     S
C860   C231    1.398   1_556 S
C860   H248    1.083   1_556 S
C861   O902    1.383   .     S
C862   H882    1.112   .     S
C862   C864    1.526   .     S
C862   H881    1.110   .     S
C862   O910    1.416   .     S
C863   C870    1.411   .     A
C864   H885    1.110   .     S
C864   H884    1.110   .     S
C864   H883    1.109   .     S
C865   H888    1.117   .     S
C865   C866    1.524   .     S
C865   O902    1.416   .     S
C865   H887    1.111   .     S
C866   H891    1.110   .     S
C866   H890    1.111   .     S
C866   H889    1.111   .     S
C867   C871    1.400   .     A
C868   C869    1.392   .     A
C868   C227    1.404   1_556 S
C868   C237    1.419   1_556 S
C869   C870    1.388   .     A
C869   H897    1.084   .     S
C870   H879    1.078   .     S
C871   H876    1.076   .     S
C872   H875    1.081   .     S
Cu873  O906    1.964   .     S
Cu873  Cu874   2.680   .     S
Cu873  N899    2.014   .     S
Cu873  O904    1.945   .     S
Cu873  O901    1.963   .     S
Cu873  O908    1.934   .     S
Cu874  N900    2.014   .     S
Cu874  O907    1.963   .     S
Cu874  O905    1.934   .     S
Cu874  O903    1.964   .     S
Cu874  O909    1.945   .     S
H898   C227    1.084   1_556 S
C911   C919    1.449   .     S
C911   O973    1.292   .     A
C911   O971    1.291   .     A
C912   C914    1.478   .     S
C912   C933    1.419   .     A
C912   C929    1.403   .     A
C913   C919    1.401   .     A
C913   H950    1.083   .     S
C913   C1125   1.383   .     S
C914   O974    1.298   .     A
C914   O975    1.298   .     A
C915   H956    1.083   .     S
C915   C916    1.401   .     A
C916   C917    1.400   .     A
C916   C925    1.449   .     S
C917   H962    1.083   .     S
C918   H963    1.083   .     S
C918   C919    1.402   .     A
C918   C1127   1.383   .     S
C920   N970    1.366   .     A
C920   H964    1.080   .     S
C920   C991    1.414   .     S
C921   N969    1.366   .     A
C921   H965    1.082   .     S
C922   C933    1.418   .     A
C922   C301    1.426   1_556 S
C922   C307    1.424   1_556 S
C923   N969    1.377   .     A
C923   O980    1.395   .     S
C924   N970    1.362   .     A
C924   H966    1.079   .     S
C924   C993    1.436   .     S
C925   O977    1.291   .     A
C925   O976    1.292   .     A
C926   O978    1.294   .     A
C926   C928    1.463   .     S
C926   O979    1.295   .     A
C927   C942    1.394   .     A
C928   C942    1.399   .     A
C928   C941    1.394   .     A
C929   C930    1.387   .     A
C929   H947    1.083   .     S
C930   C301    1.398   1_556 S
C930   H318    1.083   1_556 S
C931   O972    1.383   .     S
C932   H952    1.112   .     S
C932   C934    1.526   .     S
C932   H951    1.110   .     S
C932   O980    1.416   .     S
C933   C940    1.411   .     A
C934   H955    1.110   .     S
C934   H954    1.110   .     S
C934   H953    1.109   .     S
C935   H958    1.117   .     S
C935   C936    1.524   .     S
C935   O972    1.416   .     S
C935   H957    1.111   .     S
C936   H961    1.110   .     S
C936   H960    1.111   .     S
C936   H959    1.111   .     S
C937   C941    1.400   .     A
C938   C939    1.392   .     A
C938   C297    1.404   1_556 S
C938   C307    1.419   1_556 S
C939   C940    1.388   .     A
C939   H967    1.084   .     S
C940   H949    1.078   .     S
C941   H946    1.076   .     S
C942   H945    1.081   .     S
Cu943  O976    1.964   .     S
Cu943  Cu944   2.680   .     S
Cu943  N969    2.014   .     S
Cu943  O974    1.945   .     S
Cu943  O971    1.963   .     S
Cu943  O978    1.934   .     S
Cu944  N970    2.014   .     S
Cu944  O977    1.963   .     S
Cu944  O975    1.934   .     S
Cu944  O973    1.964   .     S
Cu944  O979    1.945   .     S
H968   C297    1.084   1_556 S
C981   C989    1.449   .     S
C981   O1043   1.292   .     A
C981   O1041   1.291   .     A
C982   C984    1.478   .     S
C982   C1003   1.419   .     A
C982   C999    1.403   .     A
C983   C989    1.401   .     A
C983   H1020   1.083   .     S
C983   C1195   1.383   .     S
C984   O1044   1.298   .     A
C984   O1045   1.298   .     A
C985   H1026   1.083   .     S
C985   C986    1.401   .     A
C986   C987    1.400   .     A
C986   C995    1.449   .     S
C987   H1032   1.083   .     S
C988   H1033   1.083   .     S
C988   C989    1.402   .     A
C988   C1197   1.383   .     S
C990   N1040   1.366   .     A
C990   H1034   1.080   .     S
C990   C851    1.414   1_655 S
C991   N1039   1.366   .     A
C991   H1035   1.082   .     S
C992   C1003   1.418   .     A
C992   C371    1.426   1_556 S
C992   C377    1.424   1_556 S
C993   N1039   1.377   .     A
C993   O1050   1.395   .     S
C994   N1040   1.362   .     A
C994   H1036   1.079   .     S
C994   C853    1.436   1_655 S
C995   O1047   1.291   .     A
C995   O1046   1.292   .     A
C996   O1048   1.294   .     A
C996   C998    1.463   .     S
C996   O1049   1.295   .     A
C997   C1012   1.394   .     A
C998   C1012   1.399   .     A
C998   C1011   1.394   .     A
C999   C1000   1.387   .     A
C999   H1017   1.083   .     S
C1000  C371    1.398   1_556 S
C1000  H388    1.083   1_556 S
C1001  O1042   1.383   .     S
C1002  H1022   1.112   .     S
C1002  C1004   1.526   .     S
C1002  H1021   1.110   .     S
C1002  O1050   1.416   .     S
C1003  C1010   1.411   .     A
C1004  H1025   1.110   .     S
C1004  H1024   1.110   .     S
C1004  H1023   1.109   .     S
C1005  H1028   1.117   .     S
C1005  C1006   1.524   .     S
C1005  O1042   1.416   .     S
C1005  H1027   1.111   .     S
C1006  H1031   1.110   .     S
C1006  H1030   1.111   .     S
C1006  H1029   1.111   .     S
C1007  C1011   1.400   .     A
C1008  C1009   1.392   .     A
C1008  C367    1.404   1_556 S
C1008  C377    1.419   1_556 S
C1009  C1010   1.388   .     A
C1009  H1037   1.084   .     S
C1010  H1019   1.078   .     S
C1011  H1016   1.076   .     S
C1012  H1015   1.081   .     S
Cu1013 O1046   1.964   .     S
Cu1013 Cu1014  2.680   .     S
Cu1013 N1039   2.014   .     S
Cu1013 O1044   1.945   .     S
Cu1013 O1041   1.963   .     S
Cu1013 O1048   1.934   .     S
Cu1014 N1040   2.014   .     S
Cu1014 O1047   1.963   .     S
Cu1014 O1045   1.934   .     S
Cu1014 O1043   1.964   .     S
Cu1014 O1049   1.945   .     S
H1038  C367    1.084   1_556 S
C1051  C1059   1.449   .     S
C1051  O1113   1.292   .     A
C1051  O1111   1.291   .     A
C1052  C1054   1.478   .     S
C1052  C1073   1.419   .     A
C1052  C1069   1.403   .     A
C1053  C1059   1.401   .     A
C1053  H1090   1.083   .     S
C1053  C635    1.383   1_565 S
C1054  O1114   1.298   .     A
C1054  O1115   1.298   .     A
C1055  H1096   1.083   .     S
C1055  C1056   1.401   .     A
C1056  C1057   1.400   .     A
C1056  C1065   1.449   .     S
C1057  H1102   1.083   .     S
C1058  H1103   1.083   .     S
C1058  C1059   1.402   .     A
C1058  C637    1.383   1_565 S
C1060  N1110   1.366   .     A
C1060  H1104   1.080   .     S
C1060  C1131   1.414   .     S
C1061  N1109   1.366   .     A
C1061  H1105   1.082   .     S
C1061  C1200   1.414   1_455 S
C1062  C1073   1.418   .     A
C1062  C441    1.426   1_556 S
C1062  C447    1.424   1_556 S
C1063  N1109   1.377   .     A
C1063  O1120   1.395   .     S
C1063  C1204   1.436   1_455 S
C1064  N1110   1.362   .     A
C1064  H1106   1.079   .     S
C1064  C1133   1.436   .     S
C1065  O1117   1.291   .     A
C1065  O1116   1.292   .     A
C1066  O1118   1.294   .     A
C1066  C1068   1.463   .     S
C1066  O1119   1.295   .     A
C1067  C1082   1.394   .     A
C1068  C1082   1.399   .     A
C1068  C1081   1.394   .     A
C1069  C1070   1.387   .     A
C1069  H1087   1.083   .     S
C1070  C441    1.398   1_556 S
C1070  H458    1.083   1_556 S
C1071  O1112   1.383   .     S
C1072  H1092   1.112   .     S
C1072  C1074   1.526   .     S
C1072  H1091   1.110   .     S
C1072  O1120   1.416   .     S
C1073  C1080   1.411   .     A
C1074  H1095   1.110   .     S
C1074  H1094   1.110   .     S
C1074  H1093   1.109   .     S
C1075  H1098   1.117   .     S
C1075  C1076   1.524   .     S
C1075  O1112   1.416   .     S
C1075  H1097   1.111   .     S
C1076  H1101   1.110   .     S
C1076  H1100   1.111   .     S
C1076  H1099   1.111   .     S
C1077  C1081   1.400   .     A
C1078  C1079   1.392   .     A
C1078  C437    1.404   1_556 S
C1078  C447    1.419   1_556 S
C1079  C1080   1.388   .     A
C1079  H1107   1.084   .     S
C1080  H1089   1.078   .     S
C1081  H1086   1.076   .     S
C1082  H1085   1.081   .     S
Cu1083 O1116   1.964   .     S
Cu1083 Cu1084  2.680   .     S
Cu1083 N1109   2.014   .     S
Cu1083 O1114   1.945   .     S
Cu1083 O1111   1.963   .     S
Cu1083 O1118   1.934   .     S
Cu1084 N1110   2.014   .     S
Cu1084 O1117   1.963   .     S
Cu1084 O1115   1.934   .     S
Cu1084 O1113   1.964   .     S
Cu1084 O1119   1.945   .     S
H1108  C437    1.084   1_556 S
C1121  C1129   1.449   .     S
C1121  O1183   1.292   .     A
C1121  O1181   1.291   .     A
C1122  C1124   1.478   .     S
C1122  C1143   1.419   .     A
C1122  C1139   1.403   .     A
C1123  C1129   1.401   .     A
C1123  H1160   1.083   .     S
C1123  C705    1.383   1_565 S
C1124  O1184   1.298   .     A
C1124  O1185   1.298   .     A
C1125  H1166   1.083   .     S
C1125  C1126   1.401   .     A
C1126  C1127   1.400   .     A
C1126  C1135   1.449   .     S
C1127  H1172   1.083   .     S
C1128  H1173   1.083   .     S
C1128  C1129   1.402   .     A
C1128  C707    1.383   1_565 S
C1130  N1180   1.366   .     A
C1130  H1174   1.080   .     S
C1130  C1201   1.414   .     S
C1131  N1179   1.366   .     A
C1131  H1175   1.082   .     S
C1132  C1143   1.418   .     A
C1132  C511    1.426   1_556 S
C1132  C517    1.424   1_556 S
C1133  N1179   1.377   .     A
C1133  O1190   1.395   .     S
C1134  N1180   1.362   .     A
C1134  H1176   1.079   .     S
C1134  C1203   1.436   .     S
C1135  O1187   1.291   .     A
C1135  O1186   1.292   .     A
C1136  O1188   1.294   .     A
C1136  C1138   1.463   .     S
C1136  O1189   1.295   .     A
C1137  C1152   1.394   .     A
C1138  C1152   1.399   .     A
C1138  C1151   1.394   .     A
C1139  C1140   1.387   .     A
C1139  H1157   1.083   .     S
C1140  C511    1.398   1_556 S
C1140  H528    1.083   1_556 S
C1141  O1182   1.383   .     S
C1142  H1162   1.112   .     S
C1142  C1144   1.526   .     S
C1142  H1161   1.110   .     S
C1142  O1190   1.416   .     S
C1143  C1150   1.411   .     A
C1144  H1165   1.110   .     S
C1144  H1164   1.110   .     S
C1144  H1163   1.109   .     S
C1145  H1168   1.117   .     S
C1145  C1146   1.524   .     S
C1145  O1182   1.416   .     S
C1145  H1167   1.111   .     S
C1146  H1171   1.110   .     S
C1146  H1170   1.111   .     S
C1146  H1169   1.111   .     S
C1147  C1151   1.400   .     A
C1148  C1149   1.392   .     A
C1148  C507    1.404   1_556 S
C1148  C517    1.419   1_556 S
C1149  C1150   1.388   .     A
C1149  H1177   1.084   .     S
C1150  H1159   1.078   .     S
C1151  H1156   1.076   .     S
C1152  H1155   1.081   .     S
Cu1153 O1186   1.964   .     S
Cu1153 Cu1154  2.680   .     S
Cu1153 N1179   2.014   .     S
Cu1153 O1184   1.945   .     S
Cu1153 O1181   1.963   .     S
Cu1153 O1188   1.934   .     S
Cu1154 N1180   2.014   .     S
Cu1154 O1187   1.963   .     S
Cu1154 O1185   1.934   .     S
Cu1154 O1183   1.964   .     S
Cu1154 O1189   1.945   .     S
H1178  C507    1.084   1_556 S
C1191  C1199   1.449   .     S
C1191  O1253   1.292   .     A
C1191  O1251   1.291   .     A
C1192  C1194   1.478   .     S
C1192  C1213   1.419   .     A
C1192  C1209   1.403   .     A
C1193  C1199   1.401   .     A
C1193  H1230   1.083   .     S
C1193  C775    1.383   1_565 S
C1194  O1254   1.298   .     A
C1194  O1255   1.298   .     A
C1195  H1236   1.083   .     S
C1195  C1196   1.401   .     A
C1196  C1197   1.400   .     A
C1196  C1205   1.449   .     S
C1197  H1242   1.083   .     S
C1198  H1243   1.083   .     S
C1198  C1199   1.402   .     A
C1198  C777    1.383   1_565 S
C1200  N1250   1.366   .     A
C1200  H1244   1.080   .     S
C1200  C1061   1.414   1_655 S
C1201  N1249   1.366   .     A
C1201  H1245   1.082   .     S
C1202  C1213   1.418   .     A
C1202  C581    1.426   1_556 S
C1202  C587    1.424   1_556 S
C1203  N1249   1.377   .     A
C1203  O1260   1.395   .     S
C1204  N1250   1.362   .     A
C1204  H1246   1.079   .     S
C1204  C1063   1.436   1_655 S
C1205  O1257   1.291   .     A
C1205  O1256   1.292   .     A
C1206  O1258   1.294   .     A
C1206  C1208   1.463   .     S
C1206  O1259   1.295   .     A
C1207  C1222   1.394   .     A
C1208  C1222   1.399   .     A
C1208  C1221   1.394   .     A
C1209  C1210   1.387   .     A
C1209  H1227   1.083   .     S
C1210  C581    1.398   1_556 S
C1210  H598    1.083   1_556 S
C1211  O1252   1.383   .     S
C1212  H1232   1.112   .     S
C1212  C1214   1.526   .     S
C1212  H1231   1.110   .     S
C1212  O1260   1.416   .     S
C1213  C1220   1.411   .     A
C1214  H1235   1.110   .     S
C1214  H1234   1.110   .     S
C1214  H1233   1.109   .     S
C1215  H1238   1.117   .     S
C1215  C1216   1.524   .     S
C1215  O1252   1.416   .     S
C1215  H1237   1.111   .     S
C1216  H1241   1.110   .     S
C1216  H1240   1.111   .     S
C1216  H1239   1.111   .     S
C1217  C1221   1.400   .     A
C1218  C1219   1.392   .     A
C1218  C577    1.404   1_556 S
C1218  C587    1.419   1_556 S
C1219  C1220   1.388   .     A
C1219  H1247   1.084   .     S
C1220  H1229   1.078   .     S
C1221  H1226   1.076   .     S
C1222  H1225   1.081   .     S
Cu1223 O1256   1.964   .     S
Cu1223 Cu1224  2.680   .     S
Cu1223 N1249   2.014   .     S
Cu1223 O1254   1.945   .     S
Cu1223 O1251   1.963   .     S
Cu1223 O1258   1.934   .     S
Cu1224 N1250   2.014   .     S
Cu1224 O1257   1.963   .     S
Cu1224 O1255   1.934   .     S
Cu1224 O1253   1.964   .     S
Cu1224 O1259   1.945   .     S
H1248  C577    1.084   1_556 S
