data_str_m3_o10_o16_pcu_sym.95
_audit_creation_date              2020-01-03
_audit_creation_method            'Materials Studio'
_symmetry_space_group_name_H-M    'P1'
_symmetry_Int_Tables_number       1
_symmetry_cell_setting            triclinic
loop_
_symmetry_equiv_pos_as_xyz
  x,y,z
_cell_length_a                    23.5863
_cell_length_b                    25.6872
_cell_length_c                    24.1562
_cell_angle_alpha                 92.6979
_cell_angle_beta                  101.1940
_cell_angle_gamma                 94.0458
loop_
_atom_site_label
_atom_site_type_symbol
_atom_site_fract_x
_atom_site_fract_y
_atom_site_fract_z
_atom_site_U_iso_or_equiv
_atom_site_adp_type
_atom_site_occupancy
C1     C     0.01481   0.26485   0.24871   0.00000  Uiso   1.00
C2     C     0.05302   0.16771   0.41623   0.00000  Uiso   1.00
C3     C     0.02248   0.31942   0.24799   0.00000  Uiso   1.00
C4     C     0.03529   0.16783   0.35517   0.00000  Uiso   1.00
C5     C     0.31093   0.01393   0.25250   0.00000  Uiso   1.00
C6     C     0.31856   0.06849   0.25144   0.00000  Uiso   1.00
C7     C     0.29750   0.16273   0.14481   0.00000  Uiso   1.00
C8     C     0.26972   0.09571   0.00070   0.00000  Uiso   1.00
C9     C     0.27663   0.15228   0.08475   0.00000  Uiso   1.00
C10    C     0.02463   0.19792   0.45057   0.00000  Uiso   1.00
C11    C     0.04855   0.20793   0.00755   0.00000  Uiso   1.00
C12    C     0.13214   0.16099   0.49511   0.00000  Uiso   1.00
C13    C     0.10240   0.19068   0.02969   0.00000  Uiso   1.00
C14    C     0.15722   0.10677   0.20624   0.00000  Uiso   1.00
C15    C     0.10345   0.14414   0.43996   0.00000  Uiso   1.00
C16    C     0.18951   0.14767   0.01326   0.00000  Uiso   1.00
C17    C     0.21363   0.11069   0.48086   0.00000  Uiso   1.00
C18    C     0.18097   0.08863   0.42985   0.00000  Uiso   1.00
C19    C     0.12650   0.10522   0.40945   0.00000  Uiso   1.00
C20    C     0.22396   0.17104   0.06250   0.00000  Uiso   1.00
C21    C     0.30068   0.11549   0.05350   0.00000  Uiso   1.00
H22    H     0.00844   0.10049   0.07083   0.00000  Uiso   1.00
H23    H     0.10235   0.08691   0.36980   0.00000  Uiso   1.00
H24    H     0.06476   0.00312   0.24363   0.00000  Uiso   1.00
H25    H     0.16855   0.02979   0.20807   0.00000  Uiso   1.00
H26    H     0.26865   0.33020   0.25697   0.00000  Uiso   1.00
H27    H     0.17666   0.21145   0.28819   0.00000  Uiso   1.00
H28    H     0.19791   0.05927   0.40521   0.00000  Uiso   1.00
H29    H     0.28841   0.06716   0.47665   0.00000  Uiso   1.00
H30    H     0.20945   0.20241   0.08621   0.00000  Uiso   1.00
H31    H     0.31838   0.21528   0.43299   0.00000  Uiso   1.00
H32    H     0.11906   0.19999   0.07417   0.00000  Uiso   1.00
H33    H     0.02635   0.23080   0.03420   0.00000  Uiso   1.00
N34    N     0.14493   0.15223   0.23542   0.00000  Uiso   1.00
N35    N     0.18840   0.18110   0.26457   0.00000  Uiso   1.00
O36    O     0.29769   0.24629   0.25357   0.00000  Uiso   1.00
O37    O     0.16249   0.06029   0.23390   0.00000  Uiso   1.00
O38    O     0.05742   0.23704   0.24423   0.00000  Uiso   1.00
O39    O     0.31490   0.17358   0.33380   0.00000  Uiso   1.00
O40    O     0.07463   0.16433   0.32446   0.00000  Uiso   1.00
O41    O     0.27592   0.09629   0.25576   0.00000  Uiso   1.00
O42    O     0.03565   0.08704   0.24642   0.00000  Uiso   1.00
O43    O     0.25870   0.16901   0.17554   0.00000  Uiso   1.00
O44    O     0.01843   0.15976   0.16620   0.00000  Uiso   1.00
O45    O     0.15764   0.10705   0.15576   0.00000  Uiso   1.00
Zn46   Zn    0.27119   0.17284   0.25623   0.00000  Uiso   1.00
Zn47   Zn    0.06214   0.16049   0.24376   0.00000  Uiso   1.00
C48    C     0.34814   0.26485   0.24871   0.00000  Uiso   1.00
C49    C     0.38636   0.16771   0.41623   0.00000  Uiso   1.00
C50    C     0.35581   0.31942   0.24799   0.00000  Uiso   1.00
C51    C     0.36862   0.16783   0.35517   0.00000  Uiso   1.00
C52    C     0.64426   0.01393   0.25250   0.00000  Uiso   1.00
C53    C     0.65189   0.06849   0.25144   0.00000  Uiso   1.00
C54    C     0.63083   0.16273   0.14481   0.00000  Uiso   1.00
C55    C     0.60305   0.09571   0.00070   0.00000  Uiso   1.00
C56    C     0.60996   0.15228   0.08475   0.00000  Uiso   1.00
C57    C     0.35797   0.19792   0.45057   0.00000  Uiso   1.00
C58    C     0.38188   0.20793   0.00755   0.00000  Uiso   1.00
C59    C     0.46547   0.16099   0.49511   0.00000  Uiso   1.00
C60    C     0.43574   0.19068   0.02969   0.00000  Uiso   1.00
C61    C     0.49055   0.10677   0.20624   0.00000  Uiso   1.00
C62    C     0.43678   0.14414   0.43996   0.00000  Uiso   1.00
C63    C     0.52284   0.14767   0.01326   0.00000  Uiso   1.00
C64    C     0.54696   0.11069   0.48086   0.00000  Uiso   1.00
C65    C     0.51430   0.08863   0.42985   0.00000  Uiso   1.00
C66    C     0.45984   0.10522   0.40945   0.00000  Uiso   1.00
C67    C     0.55729   0.17104   0.06250   0.00000  Uiso   1.00
C68    C     0.63401   0.11549   0.05350   0.00000  Uiso   1.00
H69    H     0.34177   0.10049   0.07083   0.00000  Uiso   1.00
H70    H     0.43569   0.08691   0.36980   0.00000  Uiso   1.00
H71    H     0.39809   0.00312   0.24363   0.00000  Uiso   1.00
H72    H     0.50189   0.02979   0.20807   0.00000  Uiso   1.00
H73    H     0.60199   0.33020   0.25697   0.00000  Uiso   1.00
H74    H     0.50999   0.21145   0.28819   0.00000  Uiso   1.00
H75    H     0.53124   0.05927   0.40521   0.00000  Uiso   1.00
H76    H     0.62174   0.06716   0.47665   0.00000  Uiso   1.00
H77    H     0.54278   0.20241   0.08621   0.00000  Uiso   1.00
H78    H     0.65171   0.21528   0.43299   0.00000  Uiso   1.00
H79    H     0.45239   0.19999   0.07417   0.00000  Uiso   1.00
H80    H     0.35968   0.23080   0.03420   0.00000  Uiso   1.00
N81    N     0.47827   0.15223   0.23542   0.00000  Uiso   1.00
N82    N     0.52173   0.18110   0.26457   0.00000  Uiso   1.00
O83    O     0.63102   0.24629   0.25357   0.00000  Uiso   1.00
O84    O     0.49582   0.06029   0.23390   0.00000  Uiso   1.00
O85    O     0.39075   0.23704   0.24423   0.00000  Uiso   1.00
O86    O     0.64823   0.17358   0.33380   0.00000  Uiso   1.00
O87    O     0.40796   0.16433   0.32446   0.00000  Uiso   1.00
O88    O     0.60925   0.09629   0.25576   0.00000  Uiso   1.00
O89    O     0.36898   0.08704   0.24642   0.00000  Uiso   1.00
O90    O     0.59204   0.16901   0.17554   0.00000  Uiso   1.00
O91    O     0.35177   0.15976   0.16620   0.00000  Uiso   1.00
O92    O     0.49097   0.10705   0.15576   0.00000  Uiso   1.00
Zn93   Zn    0.60453   0.17284   0.25623   0.00000  Uiso   1.00
Zn94   Zn    0.39547   0.16049   0.24376   0.00000  Uiso   1.00
C95    C     0.68148   0.26485   0.24871   0.00000  Uiso   1.00
C96    C     0.71969   0.16771   0.41623   0.00000  Uiso   1.00
C97    C     0.68915   0.31942   0.24799   0.00000  Uiso   1.00
C98    C     0.70195   0.16783   0.35517   0.00000  Uiso   1.00
C99    C     0.97760   0.01393   0.25250   0.00000  Uiso   1.00
C100   C     0.98522   0.06849   0.25144   0.00000  Uiso   1.00
C101   C     0.96417   0.16273   0.14481   0.00000  Uiso   1.00
C102   C     0.93639   0.09571   0.00070   0.00000  Uiso   1.00
C103   C     0.94329   0.15228   0.08475   0.00000  Uiso   1.00
C104   C     0.69130   0.19792   0.45057   0.00000  Uiso   1.00
C105   C     0.71521   0.20793   0.00755   0.00000  Uiso   1.00
C106   C     0.79880   0.16099   0.49511   0.00000  Uiso   1.00
C107   C     0.76907   0.19068   0.02969   0.00000  Uiso   1.00
C108   C     0.82389   0.10677   0.20624   0.00000  Uiso   1.00
C109   C     0.77011   0.14414   0.43996   0.00000  Uiso   1.00
C110   C     0.85617   0.14767   0.01326   0.00000  Uiso   1.00
C111   C     0.88030   0.11069   0.48086   0.00000  Uiso   1.00
C112   C     0.84764   0.08863   0.42985   0.00000  Uiso   1.00
C113   C     0.79317   0.10522   0.40945   0.00000  Uiso   1.00
C114   C     0.89062   0.17104   0.06250   0.00000  Uiso   1.00
C115   C     0.96735   0.11549   0.05350   0.00000  Uiso   1.00
H116   H     0.67511   0.10049   0.07083   0.00000  Uiso   1.00
H117   H     0.76902   0.08691   0.36980   0.00000  Uiso   1.00
H118   H     0.73142   0.00312   0.24363   0.00000  Uiso   1.00
H119   H     0.83522   0.02979   0.20807   0.00000  Uiso   1.00
H120   H     0.93532   0.33020   0.25697   0.00000  Uiso   1.00
H121   H     0.84333   0.21145   0.28819   0.00000  Uiso   1.00
H122   H     0.86457   0.05927   0.40521   0.00000  Uiso   1.00
H123   H     0.95507   0.06716   0.47665   0.00000  Uiso   1.00
H124   H     0.87612   0.20241   0.08621   0.00000  Uiso   1.00
H125   H     0.98505   0.21528   0.43299   0.00000  Uiso   1.00
H126   H     0.78572   0.19999   0.07417   0.00000  Uiso   1.00
H127   H     0.69302   0.23080   0.03420   0.00000  Uiso   1.00
N128   N     0.81160   0.15223   0.23542   0.00000  Uiso   1.00
N129   N     0.85507   0.18110   0.26457   0.00000  Uiso   1.00
O130   O     0.96435   0.24629   0.25357   0.00000  Uiso   1.00
O131   O     0.82916   0.06029   0.23390   0.00000  Uiso   1.00
O132   O     0.72408   0.23704   0.24423   0.00000  Uiso   1.00
O133   O     0.98157   0.17358   0.33380   0.00000  Uiso   1.00
O134   O     0.74130   0.16433   0.32446   0.00000  Uiso   1.00
O135   O     0.94258   0.09629   0.25576   0.00000  Uiso   1.00
O136   O     0.70231   0.08704   0.24642   0.00000  Uiso   1.00
O137   O     0.92537   0.16901   0.17554   0.00000  Uiso   1.00
O138   O     0.68510   0.15976   0.16620   0.00000  Uiso   1.00
O139   O     0.82430   0.10705   0.15576   0.00000  Uiso   1.00
Zn140  Zn    0.93786   0.17284   0.25623   0.00000  Uiso   1.00
Zn141  Zn    0.72881   0.16049   0.24376   0.00000  Uiso   1.00
C142   C     0.01481   0.59818   0.24871   0.00000  Uiso   1.00
C143   C     0.05302   0.50104   0.41623   0.00000  Uiso   1.00
C144   C     0.02248   0.65275   0.24799   0.00000  Uiso   1.00
C145   C     0.03529   0.50117   0.35517   0.00000  Uiso   1.00
C146   C     0.31093   0.34727   0.25250   0.00000  Uiso   1.00
C147   C     0.31856   0.40182   0.25144   0.00000  Uiso   1.00
C148   C     0.29750   0.49607   0.14481   0.00000  Uiso   1.00
C149   C     0.26972   0.42904   0.00070   0.00000  Uiso   1.00
C150   C     0.27663   0.48561   0.08475   0.00000  Uiso   1.00
C151   C     0.02463   0.53126   0.45057   0.00000  Uiso   1.00
C152   C     0.04855   0.54127   0.00755   0.00000  Uiso   1.00
C153   C     0.13214   0.49432   0.49511   0.00000  Uiso   1.00
C154   C     0.10240   0.52401   0.02969   0.00000  Uiso   1.00
C155   C     0.15722   0.44010   0.20624   0.00000  Uiso   1.00
C156   C     0.10345   0.47747   0.43996   0.00000  Uiso   1.00
C157   C     0.18951   0.48100   0.01326   0.00000  Uiso   1.00
C158   C     0.21363   0.44402   0.48086   0.00000  Uiso   1.00
C159   C     0.18097   0.42196   0.42985   0.00000  Uiso   1.00
C160   C     0.12650   0.43855   0.40945   0.00000  Uiso   1.00
C161   C     0.22396   0.50438   0.06250   0.00000  Uiso   1.00
C162   C     0.30068   0.44882   0.05350   0.00000  Uiso   1.00
H163   H     0.00844   0.43383   0.07083   0.00000  Uiso   1.00
H164   H     0.10235   0.42024   0.36980   0.00000  Uiso   1.00
H165   H     0.06476   0.33645   0.24363   0.00000  Uiso   1.00
H166   H     0.16855   0.36312   0.20807   0.00000  Uiso   1.00
H167   H     0.26865   0.66353   0.25697   0.00000  Uiso   1.00
H168   H     0.17666   0.54478   0.28819   0.00000  Uiso   1.00
H169   H     0.19791   0.39260   0.40521   0.00000  Uiso   1.00
H170   H     0.28841   0.40050   0.47665   0.00000  Uiso   1.00
H171   H     0.20945   0.53574   0.08621   0.00000  Uiso   1.00
H172   H     0.31838   0.54862   0.43299   0.00000  Uiso   1.00
H173   H     0.11906   0.53333   0.07417   0.00000  Uiso   1.00
H174   H     0.02635   0.56414   0.03420   0.00000  Uiso   1.00
N175   N     0.14493   0.48556   0.23542   0.00000  Uiso   1.00
N176   N     0.18840   0.51444   0.26457   0.00000  Uiso   1.00
O177   O     0.29769   0.57963   0.25357   0.00000  Uiso   1.00
O178   O     0.16249   0.39362   0.23390   0.00000  Uiso   1.00
O179   O     0.05742   0.57038   0.24423   0.00000  Uiso   1.00
O180   O     0.31490   0.50691   0.33380   0.00000  Uiso   1.00
O181   O     0.07463   0.49766   0.32446   0.00000  Uiso   1.00
O182   O     0.27592   0.42962   0.25576   0.00000  Uiso   1.00
O183   O     0.03565   0.42037   0.24642   0.00000  Uiso   1.00
O184   O     0.25870   0.50234   0.17554   0.00000  Uiso   1.00
O185   O     0.01843   0.49309   0.16620   0.00000  Uiso   1.00
O186   O     0.15764   0.44039   0.15576   0.00000  Uiso   1.00
Zn187  Zn    0.27119   0.50618   0.25623   0.00000  Uiso   1.00
Zn188  Zn    0.06214   0.49382   0.24376   0.00000  Uiso   1.00
C189   C     0.34814   0.59818   0.24871   0.00000  Uiso   1.00
C190   C     0.38636   0.50104   0.41623   0.00000  Uiso   1.00
C191   C     0.35581   0.65275   0.24799   0.00000  Uiso   1.00
C192   C     0.36862   0.50117   0.35517   0.00000  Uiso   1.00
C193   C     0.64426   0.34727   0.25250   0.00000  Uiso   1.00
C194   C     0.65189   0.40182   0.25144   0.00000  Uiso   1.00
C195   C     0.63083   0.49607   0.14481   0.00000  Uiso   1.00
C196   C     0.60305   0.42904   0.00070   0.00000  Uiso   1.00
C197   C     0.60996   0.48561   0.08475   0.00000  Uiso   1.00
C198   C     0.35797   0.53126   0.45057   0.00000  Uiso   1.00
C199   C     0.38188   0.54127   0.00755   0.00000  Uiso   1.00
C200   C     0.46547   0.49432   0.49511   0.00000  Uiso   1.00
C201   C     0.43574   0.52401   0.02969   0.00000  Uiso   1.00
C202   C     0.49055   0.44010   0.20624   0.00000  Uiso   1.00
C203   C     0.43678   0.47747   0.43996   0.00000  Uiso   1.00
C204   C     0.52284   0.48100   0.01326   0.00000  Uiso   1.00
C205   C     0.54696   0.44402   0.48086   0.00000  Uiso   1.00
C206   C     0.51430   0.42196   0.42985   0.00000  Uiso   1.00
C207   C     0.45984   0.43855   0.40945   0.00000  Uiso   1.00
C208   C     0.55729   0.50438   0.06250   0.00000  Uiso   1.00
C209   C     0.63401   0.44882   0.05350   0.00000  Uiso   1.00
H210   H     0.34177   0.43383   0.07083   0.00000  Uiso   1.00
H211   H     0.43569   0.42024   0.36980   0.00000  Uiso   1.00
H212   H     0.39809   0.33645   0.24363   0.00000  Uiso   1.00
H213   H     0.50189   0.36312   0.20807   0.00000  Uiso   1.00
H214   H     0.60199   0.66353   0.25697   0.00000  Uiso   1.00
H215   H     0.50999   0.54478   0.28819   0.00000  Uiso   1.00
H216   H     0.53124   0.39260   0.40521   0.00000  Uiso   1.00
H217   H     0.62174   0.40050   0.47665   0.00000  Uiso   1.00
H218   H     0.54278   0.53574   0.08621   0.00000  Uiso   1.00
H219   H     0.65171   0.54862   0.43299   0.00000  Uiso   1.00
H220   H     0.45239   0.53333   0.07417   0.00000  Uiso   1.00
H221   H     0.35968   0.56414   0.03420   0.00000  Uiso   1.00
N222   N     0.47827   0.48556   0.23542   0.00000  Uiso   1.00
N223   N     0.52173   0.51444   0.26457   0.00000  Uiso   1.00
O224   O     0.63102   0.57963   0.25357   0.00000  Uiso   1.00
O225   O     0.49582   0.39362   0.23390   0.00000  Uiso   1.00
O226   O     0.39075   0.57038   0.24423   0.00000  Uiso   1.00
O227   O     0.64823   0.50691   0.33380   0.00000  Uiso   1.00
O228   O     0.40796   0.49766   0.32446   0.00000  Uiso   1.00
O229   O     0.60925   0.42962   0.25576   0.00000  Uiso   1.00
O230   O     0.36898   0.42037   0.24642   0.00000  Uiso   1.00
O231   O     0.59204   0.50234   0.17554   0.00000  Uiso   1.00
O232   O     0.35177   0.49309   0.16620   0.00000  Uiso   1.00
O233   O     0.49097   0.44039   0.15576   0.00000  Uiso   1.00
Zn234  Zn    0.60453   0.50618   0.25623   0.00000  Uiso   1.00
Zn235  Zn    0.39547   0.49382   0.24376   0.00000  Uiso   1.00
C236   C     0.68148   0.59818   0.24871   0.00000  Uiso   1.00
C237   C     0.71969   0.50104   0.41623   0.00000  Uiso   1.00
C238   C     0.68915   0.65275   0.24799   0.00000  Uiso   1.00
C239   C     0.70195   0.50117   0.35517   0.00000  Uiso   1.00
C240   C     0.97760   0.34727   0.25250   0.00000  Uiso   1.00
C241   C     0.98522   0.40182   0.25144   0.00000  Uiso   1.00
C242   C     0.96417   0.49607   0.14481   0.00000  Uiso   1.00
C243   C     0.93639   0.42904   0.00070   0.00000  Uiso   1.00
C244   C     0.94329   0.48561   0.08475   0.00000  Uiso   1.00
C245   C     0.69130   0.53126   0.45057   0.00000  Uiso   1.00
C246   C     0.71521   0.54127   0.00755   0.00000  Uiso   1.00
C247   C     0.79880   0.49432   0.49511   0.00000  Uiso   1.00
C248   C     0.76907   0.52401   0.02969   0.00000  Uiso   1.00
C249   C     0.82389   0.44010   0.20624   0.00000  Uiso   1.00
C250   C     0.77011   0.47747   0.43996   0.00000  Uiso   1.00
C251   C     0.85617   0.48100   0.01326   0.00000  Uiso   1.00
C252   C     0.88030   0.44402   0.48086   0.00000  Uiso   1.00
C253   C     0.84764   0.42196   0.42985   0.00000  Uiso   1.00
C254   C     0.79317   0.43855   0.40945   0.00000  Uiso   1.00
C255   C     0.89062   0.50438   0.06250   0.00000  Uiso   1.00
C256   C     0.96735   0.44882   0.05350   0.00000  Uiso   1.00
H257   H     0.67511   0.43383   0.07083   0.00000  Uiso   1.00
H258   H     0.76902   0.42024   0.36980   0.00000  Uiso   1.00
H259   H     0.73142   0.33645   0.24363   0.00000  Uiso   1.00
H260   H     0.83522   0.36312   0.20807   0.00000  Uiso   1.00
H261   H     0.93532   0.66353   0.25697   0.00000  Uiso   1.00
H262   H     0.84333   0.54478   0.28819   0.00000  Uiso   1.00
H263   H     0.86457   0.39260   0.40521   0.00000  Uiso   1.00
H264   H     0.95507   0.40050   0.47665   0.00000  Uiso   1.00
H265   H     0.87612   0.53574   0.08621   0.00000  Uiso   1.00
H266   H     0.98505   0.54862   0.43299   0.00000  Uiso   1.00
H267   H     0.78572   0.53333   0.07417   0.00000  Uiso   1.00
H268   H     0.69302   0.56414   0.03420   0.00000  Uiso   1.00
N269   N     0.81160   0.48556   0.23542   0.00000  Uiso   1.00
N270   N     0.85507   0.51444   0.26457   0.00000  Uiso   1.00
O271   O     0.96435   0.57963   0.25357   0.00000  Uiso   1.00
O272   O     0.82916   0.39362   0.23390   0.00000  Uiso   1.00
O273   O     0.72408   0.57038   0.24423   0.00000  Uiso   1.00
O274   O     0.98157   0.50691   0.33380   0.00000  Uiso   1.00
O275   O     0.74130   0.49766   0.32446   0.00000  Uiso   1.00
O276   O     0.94258   0.42962   0.25576   0.00000  Uiso   1.00
O277   O     0.70231   0.42037   0.24642   0.00000  Uiso   1.00
O278   O     0.92537   0.50234   0.17554   0.00000  Uiso   1.00
O279   O     0.68510   0.49309   0.16620   0.00000  Uiso   1.00
O280   O     0.82430   0.44039   0.15576   0.00000  Uiso   1.00
Zn281  Zn    0.93786   0.50618   0.25623   0.00000  Uiso   1.00
Zn282  Zn    0.72881   0.49382   0.24376   0.00000  Uiso   1.00
C283   C     0.01481   0.93152   0.24871   0.00000  Uiso   1.00
C284   C     0.05302   0.83437   0.41623   0.00000  Uiso   1.00
C285   C     0.02248   0.98608   0.24799   0.00000  Uiso   1.00
C286   C     0.03529   0.83450   0.35517   0.00000  Uiso   1.00
C287   C     0.31093   0.68060   0.25250   0.00000  Uiso   1.00
C288   C     0.31856   0.73515   0.25144   0.00000  Uiso   1.00
C289   C     0.29750   0.82940   0.14481   0.00000  Uiso   1.00
C290   C     0.26972   0.76237   0.00070   0.00000  Uiso   1.00
C291   C     0.27663   0.81895   0.08475   0.00000  Uiso   1.00
C292   C     0.02463   0.86459   0.45057   0.00000  Uiso   1.00
C293   C     0.04855   0.87460   0.00755   0.00000  Uiso   1.00
C294   C     0.13214   0.82766   0.49511   0.00000  Uiso   1.00
C295   C     0.10240   0.85735   0.02969   0.00000  Uiso   1.00
C296   C     0.15722   0.77343   0.20624   0.00000  Uiso   1.00
C297   C     0.10345   0.81081   0.43996   0.00000  Uiso   1.00
C298   C     0.18951   0.81433   0.01326   0.00000  Uiso   1.00
C299   C     0.21363   0.77736   0.48086   0.00000  Uiso   1.00
C300   C     0.18097   0.75529   0.42985   0.00000  Uiso   1.00
C301   C     0.12650   0.77189   0.40945   0.00000  Uiso   1.00
C302   C     0.22396   0.83771   0.06250   0.00000  Uiso   1.00
C303   C     0.30068   0.78216   0.05350   0.00000  Uiso   1.00
H304   H     0.00844   0.76716   0.07083   0.00000  Uiso   1.00
H305   H     0.10235   0.75357   0.36980   0.00000  Uiso   1.00
H306   H     0.06476   0.66979   0.24363   0.00000  Uiso   1.00
H307   H     0.16855   0.69645   0.20807   0.00000  Uiso   1.00
H308   H     0.26865   0.99686   0.25697   0.00000  Uiso   1.00
H309   H     0.17666   0.87811   0.28819   0.00000  Uiso   1.00
H310   H     0.19791   0.72594   0.40521   0.00000  Uiso   1.00
H311   H     0.28841   0.73383   0.47665   0.00000  Uiso   1.00
H312   H     0.20945   0.86907   0.08621   0.00000  Uiso   1.00
H313   H     0.31838   0.88195   0.43299   0.00000  Uiso   1.00
H314   H     0.11906   0.86666   0.07417   0.00000  Uiso   1.00
H315   H     0.02635   0.89747   0.03420   0.00000  Uiso   1.00
N316   N     0.14493   0.81890   0.23542   0.00000  Uiso   1.00
N317   N     0.18840   0.84777   0.26457   0.00000  Uiso   1.00
O318   O     0.29769   0.91296   0.25357   0.00000  Uiso   1.00
O319   O     0.16249   0.72695   0.23390   0.00000  Uiso   1.00
O320   O     0.05742   0.90371   0.24423   0.00000  Uiso   1.00
O321   O     0.31490   0.84024   0.33380   0.00000  Uiso   1.00
O322   O     0.07463   0.83099   0.32446   0.00000  Uiso   1.00
O323   O     0.27592   0.76296   0.25576   0.00000  Uiso   1.00
O324   O     0.03565   0.75371   0.24642   0.00000  Uiso   1.00
O325   O     0.25870   0.83567   0.17554   0.00000  Uiso   1.00
O326   O     0.01843   0.82642   0.16620   0.00000  Uiso   1.00
O327   O     0.15764   0.77372   0.15576   0.00000  Uiso   1.00
Zn328  Zn    0.27119   0.83951   0.25623   0.00000  Uiso   1.00
Zn329  Zn    0.06214   0.82716   0.24376   0.00000  Uiso   1.00
C330   C     0.34814   0.93152   0.24871   0.00000  Uiso   1.00
C331   C     0.38636   0.83437   0.41623   0.00000  Uiso   1.00
C332   C     0.35581   0.98608   0.24799   0.00000  Uiso   1.00
C333   C     0.36862   0.83450   0.35517   0.00000  Uiso   1.00
C334   C     0.64426   0.68060   0.25250   0.00000  Uiso   1.00
C335   C     0.65189   0.73515   0.25144   0.00000  Uiso   1.00
C336   C     0.63083   0.82940   0.14481   0.00000  Uiso   1.00
C337   C     0.60305   0.76237   0.00070   0.00000  Uiso   1.00
C338   C     0.60996   0.81895   0.08475   0.00000  Uiso   1.00
C339   C     0.35797   0.86459   0.45057   0.00000  Uiso   1.00
C340   C     0.38188   0.87460   0.00755   0.00000  Uiso   1.00
C341   C     0.46547   0.82766   0.49511   0.00000  Uiso   1.00
C342   C     0.43574   0.85735   0.02969   0.00000  Uiso   1.00
C343   C     0.49055   0.77343   0.20624   0.00000  Uiso   1.00
C344   C     0.43678   0.81081   0.43996   0.00000  Uiso   1.00
C345   C     0.52284   0.81433   0.01326   0.00000  Uiso   1.00
C346   C     0.54696   0.77736   0.48086   0.00000  Uiso   1.00
C347   C     0.51430   0.75529   0.42985   0.00000  Uiso   1.00
C348   C     0.45984   0.77189   0.40945   0.00000  Uiso   1.00
C349   C     0.55729   0.83771   0.06250   0.00000  Uiso   1.00
C350   C     0.63401   0.78216   0.05350   0.00000  Uiso   1.00
H351   H     0.34177   0.76716   0.07083   0.00000  Uiso   1.00
H352   H     0.43569   0.75357   0.36980   0.00000  Uiso   1.00
H353   H     0.39809   0.66979   0.24363   0.00000  Uiso   1.00
H354   H     0.50189   0.69645   0.20807   0.00000  Uiso   1.00
H355   H     0.60199   0.99686   0.25697   0.00000  Uiso   1.00
H356   H     0.50999   0.87811   0.28819   0.00000  Uiso   1.00
H357   H     0.53124   0.72594   0.40521   0.00000  Uiso   1.00
H358   H     0.62174   0.73383   0.47665   0.00000  Uiso   1.00
H359   H     0.54278   0.86907   0.08621   0.00000  Uiso   1.00
H360   H     0.65171   0.88195   0.43299   0.00000  Uiso   1.00
H361   H     0.45239   0.86666   0.07417   0.00000  Uiso   1.00
H362   H     0.35968   0.89747   0.03420   0.00000  Uiso   1.00
N363   N     0.47827   0.81890   0.23542   0.00000  Uiso   1.00
N364   N     0.52173   0.84777   0.26457   0.00000  Uiso   1.00
O365   O     0.63102   0.91296   0.25357   0.00000  Uiso   1.00
O366   O     0.49582   0.72695   0.23390   0.00000  Uiso   1.00
O367   O     0.39075   0.90371   0.24423   0.00000  Uiso   1.00
O368   O     0.64823   0.84024   0.33380   0.00000  Uiso   1.00
O369   O     0.40796   0.83099   0.32446   0.00000  Uiso   1.00
O370   O     0.60925   0.76296   0.25576   0.00000  Uiso   1.00
O371   O     0.36898   0.75371   0.24642   0.00000  Uiso   1.00
O372   O     0.59204   0.83567   0.17554   0.00000  Uiso   1.00
O373   O     0.35177   0.82642   0.16620   0.00000  Uiso   1.00
O374   O     0.49097   0.77372   0.15576   0.00000  Uiso   1.00
Zn375  Zn    0.60453   0.83951   0.25623   0.00000  Uiso   1.00
Zn376  Zn    0.39547   0.82716   0.24376   0.00000  Uiso   1.00
C377   C     0.68148   0.93152   0.24871   0.00000  Uiso   1.00
C378   C     0.71969   0.83437   0.41623   0.00000  Uiso   1.00
C379   C     0.68915   0.98608   0.24799   0.00000  Uiso   1.00
C380   C     0.70195   0.83450   0.35517   0.00000  Uiso   1.00
C381   C     0.97760   0.68060   0.25250   0.00000  Uiso   1.00
C382   C     0.98522   0.73515   0.25144   0.00000  Uiso   1.00
C383   C     0.96417   0.82940   0.14481   0.00000  Uiso   1.00
C384   C     0.93639   0.76237   0.00070   0.00000  Uiso   1.00
C385   C     0.94329   0.81895   0.08475   0.00000  Uiso   1.00
C386   C     0.69130   0.86459   0.45057   0.00000  Uiso   1.00
C387   C     0.71521   0.87460   0.00755   0.00000  Uiso   1.00
C388   C     0.79880   0.82766   0.49511   0.00000  Uiso   1.00
C389   C     0.76907   0.85735   0.02969   0.00000  Uiso   1.00
C390   C     0.82389   0.77343   0.20624   0.00000  Uiso   1.00
C391   C     0.77011   0.81081   0.43996   0.00000  Uiso   1.00
C392   C     0.85617   0.81433   0.01326   0.00000  Uiso   1.00
C393   C     0.88030   0.77736   0.48086   0.00000  Uiso   1.00
C394   C     0.84764   0.75529   0.42985   0.00000  Uiso   1.00
C395   C     0.79317   0.77189   0.40945   0.00000  Uiso   1.00
C396   C     0.89062   0.83771   0.06250   0.00000  Uiso   1.00
C397   C     0.96735   0.78216   0.05350   0.00000  Uiso   1.00
H398   H     0.67511   0.76716   0.07083   0.00000  Uiso   1.00
H399   H     0.76902   0.75357   0.36980   0.00000  Uiso   1.00
H400   H     0.73142   0.66979   0.24363   0.00000  Uiso   1.00
H401   H     0.83522   0.69645   0.20807   0.00000  Uiso   1.00
H402   H     0.93532   0.99686   0.25697   0.00000  Uiso   1.00
H403   H     0.84333   0.87811   0.28819   0.00000  Uiso   1.00
H404   H     0.86457   0.72594   0.40521   0.00000  Uiso   1.00
H405   H     0.95507   0.73383   0.47665   0.00000  Uiso   1.00
H406   H     0.87612   0.86907   0.08621   0.00000  Uiso   1.00
H407   H     0.98505   0.88195   0.43299   0.00000  Uiso   1.00
H408   H     0.78572   0.86666   0.07417   0.00000  Uiso   1.00
H409   H     0.69302   0.89747   0.03420   0.00000  Uiso   1.00
N410   N     0.81160   0.81890   0.23542   0.00000  Uiso   1.00
N411   N     0.85507   0.84777   0.26457   0.00000  Uiso   1.00
O412   O     0.96435   0.91296   0.25357   0.00000  Uiso   1.00
O413   O     0.82916   0.72695   0.23390   0.00000  Uiso   1.00
O414   O     0.72408   0.90371   0.24423   0.00000  Uiso   1.00
O415   O     0.98157   0.84024   0.33380   0.00000  Uiso   1.00
O416   O     0.74130   0.83099   0.32446   0.00000  Uiso   1.00
O417   O     0.94258   0.76296   0.25576   0.00000  Uiso   1.00
O418   O     0.70231   0.75371   0.24642   0.00000  Uiso   1.00
O419   O     0.92537   0.83567   0.17554   0.00000  Uiso   1.00
O420   O     0.68510   0.82642   0.16620   0.00000  Uiso   1.00
O421   O     0.82430   0.77372   0.15576   0.00000  Uiso   1.00
Zn422  Zn    0.93786   0.83951   0.25623   0.00000  Uiso   1.00
Zn423  Zn    0.72881   0.82716   0.24376   0.00000  Uiso   1.00
C424   C     0.01481   0.26485   0.74871   0.00000  Uiso   1.00
C425   C     0.05302   0.16771   0.91623   0.00000  Uiso   1.00
C426   C     0.02248   0.31942   0.74799   0.00000  Uiso   1.00
C427   C     0.03529   0.16783   0.85517   0.00000  Uiso   1.00
C428   C     0.31093   0.01393   0.75250   0.00000  Uiso   1.00
C429   C     0.31856   0.06849   0.75144   0.00000  Uiso   1.00
C430   C     0.29750   0.16273   0.64481   0.00000  Uiso   1.00
C431   C     0.26972   0.09571   0.50070   0.00000  Uiso   1.00
C432   C     0.27663   0.15228   0.58475   0.00000  Uiso   1.00
C433   C     0.02463   0.19792   0.95057   0.00000  Uiso   1.00
C434   C     0.04855   0.20793   0.50755   0.00000  Uiso   1.00
C435   C     0.13214   0.16099   0.99511   0.00000  Uiso   1.00
C436   C     0.10240   0.19068   0.52969   0.00000  Uiso   1.00
C437   C     0.15722   0.10677   0.70624   0.00000  Uiso   1.00
C438   C     0.10345   0.14414   0.93996   0.00000  Uiso   1.00
C439   C     0.18951   0.14767   0.51326   0.00000  Uiso   1.00
C440   C     0.21363   0.11069   0.98086   0.00000  Uiso   1.00
C441   C     0.18097   0.08863   0.92985   0.00000  Uiso   1.00
C442   C     0.12650   0.10522   0.90945   0.00000  Uiso   1.00
C443   C     0.22396   0.17104   0.56250   0.00000  Uiso   1.00
C444   C     0.30068   0.11549   0.55350   0.00000  Uiso   1.00
H445   H     0.00844   0.10049   0.57083   0.00000  Uiso   1.00
H446   H     0.10235   0.08691   0.86980   0.00000  Uiso   1.00
H447   H     0.06476   0.00312   0.74363   0.00000  Uiso   1.00
H448   H     0.16855   0.02979   0.70807   0.00000  Uiso   1.00
H449   H     0.26865   0.33020   0.75697   0.00000  Uiso   1.00
H450   H     0.17666   0.21145   0.78819   0.00000  Uiso   1.00
H451   H     0.19791   0.05927   0.90521   0.00000  Uiso   1.00
H452   H     0.28841   0.06716   0.97665   0.00000  Uiso   1.00
H453   H     0.20945   0.20241   0.58621   0.00000  Uiso   1.00
H454   H     0.31838   0.21528   0.93299   0.00000  Uiso   1.00
H455   H     0.11906   0.19999   0.57417   0.00000  Uiso   1.00
H456   H     0.02635   0.23080   0.53420   0.00000  Uiso   1.00
N457   N     0.14493   0.15223   0.73542   0.00000  Uiso   1.00
N458   N     0.18840   0.18110   0.76457   0.00000  Uiso   1.00
O459   O     0.29769   0.24629   0.75357   0.00000  Uiso   1.00
O460   O     0.16249   0.06029   0.73390   0.00000  Uiso   1.00
O461   O     0.05742   0.23704   0.74423   0.00000  Uiso   1.00
O462   O     0.31490   0.17358   0.83380   0.00000  Uiso   1.00
O463   O     0.07463   0.16433   0.82446   0.00000  Uiso   1.00
O464   O     0.27592   0.09629   0.75576   0.00000  Uiso   1.00
O465   O     0.03565   0.08704   0.74642   0.00000  Uiso   1.00
O466   O     0.25870   0.16901   0.67554   0.00000  Uiso   1.00
O467   O     0.01843   0.15976   0.66620   0.00000  Uiso   1.00
O468   O     0.15764   0.10705   0.65576   0.00000  Uiso   1.00
Zn469  Zn    0.27119   0.17284   0.75623   0.00000  Uiso   1.00
Zn470  Zn    0.06214   0.16049   0.74376   0.00000  Uiso   1.00
C471   C     0.34814   0.26485   0.74871   0.00000  Uiso   1.00
C472   C     0.38636   0.16771   0.91623   0.00000  Uiso   1.00
C473   C     0.35581   0.31942   0.74799   0.00000  Uiso   1.00
C474   C     0.36862   0.16783   0.85517   0.00000  Uiso   1.00
C475   C     0.64426   0.01393   0.75250   0.00000  Uiso   1.00
C476   C     0.65189   0.06849   0.75144   0.00000  Uiso   1.00
C477   C     0.63083   0.16273   0.64481   0.00000  Uiso   1.00
C478   C     0.60305   0.09571   0.50070   0.00000  Uiso   1.00
C479   C     0.60996   0.15228   0.58475   0.00000  Uiso   1.00
C480   C     0.35797   0.19792   0.95057   0.00000  Uiso   1.00
C481   C     0.38188   0.20793   0.50755   0.00000  Uiso   1.00
C482   C     0.46547   0.16099   0.99511   0.00000  Uiso   1.00
C483   C     0.43574   0.19068   0.52969   0.00000  Uiso   1.00
C484   C     0.49055   0.10677   0.70624   0.00000  Uiso   1.00
C485   C     0.43678   0.14414   0.93996   0.00000  Uiso   1.00
C486   C     0.52284   0.14767   0.51326   0.00000  Uiso   1.00
C487   C     0.54696   0.11069   0.98086   0.00000  Uiso   1.00
C488   C     0.51430   0.08863   0.92985   0.00000  Uiso   1.00
C489   C     0.45984   0.10522   0.90945   0.00000  Uiso   1.00
C490   C     0.55729   0.17104   0.56250   0.00000  Uiso   1.00
C491   C     0.63401   0.11549   0.55350   0.00000  Uiso   1.00
H492   H     0.34177   0.10049   0.57083   0.00000  Uiso   1.00
H493   H     0.43569   0.08691   0.86980   0.00000  Uiso   1.00
H494   H     0.39809   0.00312   0.74363   0.00000  Uiso   1.00
H495   H     0.50189   0.02979   0.70807   0.00000  Uiso   1.00
H496   H     0.60199   0.33020   0.75697   0.00000  Uiso   1.00
H497   H     0.50999   0.21145   0.78819   0.00000  Uiso   1.00
H498   H     0.53124   0.05927   0.90521   0.00000  Uiso   1.00
H499   H     0.62174   0.06716   0.97665   0.00000  Uiso   1.00
H500   H     0.54278   0.20241   0.58621   0.00000  Uiso   1.00
H501   H     0.65171   0.21528   0.93299   0.00000  Uiso   1.00
H502   H     0.45239   0.19999   0.57417   0.00000  Uiso   1.00
H503   H     0.35968   0.23080   0.53420   0.00000  Uiso   1.00
N504   N     0.47827   0.15223   0.73542   0.00000  Uiso   1.00
N505   N     0.52173   0.18110   0.76457   0.00000  Uiso   1.00
O506   O     0.63102   0.24629   0.75357   0.00000  Uiso   1.00
O507   O     0.49582   0.06029   0.73390   0.00000  Uiso   1.00
O508   O     0.39075   0.23704   0.74423   0.00000  Uiso   1.00
O509   O     0.64823   0.17358   0.83380   0.00000  Uiso   1.00
O510   O     0.40796   0.16433   0.82446   0.00000  Uiso   1.00
O511   O     0.60925   0.09629   0.75576   0.00000  Uiso   1.00
O512   O     0.36898   0.08704   0.74642   0.00000  Uiso   1.00
O513   O     0.59204   0.16901   0.67554   0.00000  Uiso   1.00
O514   O     0.35177   0.15976   0.66620   0.00000  Uiso   1.00
O515   O     0.49097   0.10705   0.65576   0.00000  Uiso   1.00
Zn516  Zn    0.60453   0.17284   0.75623   0.00000  Uiso   1.00
Zn517  Zn    0.39547   0.16049   0.74376   0.00000  Uiso   1.00
C518   C     0.68148   0.26485   0.74871   0.00000  Uiso   1.00
C519   C     0.71969   0.16771   0.91623   0.00000  Uiso   1.00
C520   C     0.68915   0.31942   0.74799   0.00000  Uiso   1.00
C521   C     0.70195   0.16783   0.85517   0.00000  Uiso   1.00
C522   C     0.97760   0.01393   0.75250   0.00000  Uiso   1.00
C523   C     0.98522   0.06849   0.75144   0.00000  Uiso   1.00
C524   C     0.96417   0.16273   0.64481   0.00000  Uiso   1.00
C525   C     0.93639   0.09571   0.50070   0.00000  Uiso   1.00
C526   C     0.94329   0.15228   0.58475   0.00000  Uiso   1.00
C527   C     0.69130   0.19792   0.95057   0.00000  Uiso   1.00
C528   C     0.71521   0.20793   0.50755   0.00000  Uiso   1.00
C529   C     0.79880   0.16099   0.99511   0.00000  Uiso   1.00
C530   C     0.76907   0.19068   0.52969   0.00000  Uiso   1.00
C531   C     0.82389   0.10677   0.70624   0.00000  Uiso   1.00
C532   C     0.77011   0.14414   0.93996   0.00000  Uiso   1.00
C533   C     0.85617   0.14767   0.51326   0.00000  Uiso   1.00
C534   C     0.88030   0.11069   0.98086   0.00000  Uiso   1.00
C535   C     0.84764   0.08863   0.92985   0.00000  Uiso   1.00
C536   C     0.79317   0.10522   0.90945   0.00000  Uiso   1.00
C537   C     0.89062   0.17104   0.56250   0.00000  Uiso   1.00
C538   C     0.96735   0.11549   0.55350   0.00000  Uiso   1.00
H539   H     0.67511   0.10049   0.57083   0.00000  Uiso   1.00
H540   H     0.76902   0.08691   0.86980   0.00000  Uiso   1.00
H541   H     0.73142   0.00312   0.74363   0.00000  Uiso   1.00
H542   H     0.83522   0.02979   0.70807   0.00000  Uiso   1.00
H543   H     0.93532   0.33020   0.75697   0.00000  Uiso   1.00
H544   H     0.84333   0.21145   0.78819   0.00000  Uiso   1.00
H545   H     0.86457   0.05927   0.90521   0.00000  Uiso   1.00
H546   H     0.95507   0.06716   0.97665   0.00000  Uiso   1.00
H547   H     0.87612   0.20241   0.58621   0.00000  Uiso   1.00
H548   H     0.98505   0.21528   0.93299   0.00000  Uiso   1.00
H549   H     0.78572   0.19999   0.57417   0.00000  Uiso   1.00
H550   H     0.69302   0.23080   0.53420   0.00000  Uiso   1.00
N551   N     0.81160   0.15223   0.73542   0.00000  Uiso   1.00
N552   N     0.85507   0.18110   0.76457   0.00000  Uiso   1.00
O553   O     0.96435   0.24629   0.75357   0.00000  Uiso   1.00
O554   O     0.82916   0.06029   0.73390   0.00000  Uiso   1.00
O555   O     0.72408   0.23704   0.74423   0.00000  Uiso   1.00
O556   O     0.98157   0.17358   0.83380   0.00000  Uiso   1.00
O557   O     0.74130   0.16433   0.82446   0.00000  Uiso   1.00
O558   O     0.94258   0.09629   0.75576   0.00000  Uiso   1.00
O559   O     0.70231   0.08704   0.74642   0.00000  Uiso   1.00
O560   O     0.92537   0.16901   0.67554   0.00000  Uiso   1.00
O561   O     0.68510   0.15976   0.66620   0.00000  Uiso   1.00
O562   O     0.82430   0.10705   0.65576   0.00000  Uiso   1.00
Zn563  Zn    0.93786   0.17284   0.75623   0.00000  Uiso   1.00
Zn564  Zn    0.72881   0.16049   0.74376   0.00000  Uiso   1.00
C565   C     0.01481   0.59818   0.74871   0.00000  Uiso   1.00
C566   C     0.05302   0.50104   0.91623   0.00000  Uiso   1.00
C567   C     0.02248   0.65275   0.74799   0.00000  Uiso   1.00
C568   C     0.03529   0.50117   0.85517   0.00000  Uiso   1.00
C569   C     0.31093   0.34727   0.75250   0.00000  Uiso   1.00
C570   C     0.31856   0.40182   0.75144   0.00000  Uiso   1.00
C571   C     0.29750   0.49607   0.64481   0.00000  Uiso   1.00
C572   C     0.26972   0.42904   0.50070   0.00000  Uiso   1.00
C573   C     0.27663   0.48561   0.58475   0.00000  Uiso   1.00
C574   C     0.02463   0.53126   0.95057   0.00000  Uiso   1.00
C575   C     0.04855   0.54127   0.50755   0.00000  Uiso   1.00
C576   C     0.13214   0.49432   0.99511   0.00000  Uiso   1.00
C577   C     0.10240   0.52401   0.52969   0.00000  Uiso   1.00
C578   C     0.15722   0.44010   0.70624   0.00000  Uiso   1.00
C579   C     0.10345   0.47747   0.93996   0.00000  Uiso   1.00
C580   C     0.18951   0.48100   0.51326   0.00000  Uiso   1.00
C581   C     0.21363   0.44402   0.98086   0.00000  Uiso   1.00
C582   C     0.18097   0.42196   0.92985   0.00000  Uiso   1.00
C583   C     0.12650   0.43855   0.90945   0.00000  Uiso   1.00
C584   C     0.22396   0.50438   0.56250   0.00000  Uiso   1.00
C585   C     0.30068   0.44882   0.55350   0.00000  Uiso   1.00
H586   H     0.00844   0.43383   0.57083   0.00000  Uiso   1.00
H587   H     0.10235   0.42024   0.86980   0.00000  Uiso   1.00
H588   H     0.06476   0.33645   0.74363   0.00000  Uiso   1.00
H589   H     0.16855   0.36312   0.70807   0.00000  Uiso   1.00
H590   H     0.26865   0.66353   0.75697   0.00000  Uiso   1.00
H591   H     0.17666   0.54478   0.78819   0.00000  Uiso   1.00
H592   H     0.19791   0.39260   0.90521   0.00000  Uiso   1.00
H593   H     0.28841   0.40050   0.97665   0.00000  Uiso   1.00
H594   H     0.20945   0.53574   0.58621   0.00000  Uiso   1.00
H595   H     0.31838   0.54862   0.93299   0.00000  Uiso   1.00
H596   H     0.11906   0.53333   0.57417   0.00000  Uiso   1.00
H597   H     0.02635   0.56414   0.53420   0.00000  Uiso   1.00
N598   N     0.14493   0.48556   0.73542   0.00000  Uiso   1.00
N599   N     0.18840   0.51444   0.76457   0.00000  Uiso   1.00
O600   O     0.29769   0.57963   0.75357   0.00000  Uiso   1.00
O601   O     0.16249   0.39362   0.73390   0.00000  Uiso   1.00
O602   O     0.05742   0.57038   0.74423   0.00000  Uiso   1.00
O603   O     0.31490   0.50691   0.83380   0.00000  Uiso   1.00
O604   O     0.07463   0.49766   0.82446   0.00000  Uiso   1.00
O605   O     0.27592   0.42962   0.75576   0.00000  Uiso   1.00
O606   O     0.03565   0.42037   0.74642   0.00000  Uiso   1.00
O607   O     0.25870   0.50234   0.67554   0.00000  Uiso   1.00
O608   O     0.01843   0.49309   0.66620   0.00000  Uiso   1.00
O609   O     0.15764   0.44039   0.65576   0.00000  Uiso   1.00
Zn610  Zn    0.27119   0.50618   0.75623   0.00000  Uiso   1.00
Zn611  Zn    0.06214   0.49382   0.74376   0.00000  Uiso   1.00
C612   C     0.34814   0.59818   0.74871   0.00000  Uiso   1.00
C613   C     0.38636   0.50104   0.91623   0.00000  Uiso   1.00
C614   C     0.35581   0.65275   0.74799   0.00000  Uiso   1.00
C615   C     0.36862   0.50117   0.85517   0.00000  Uiso   1.00
C616   C     0.64426   0.34727   0.75250   0.00000  Uiso   1.00
C617   C     0.65189   0.40182   0.75144   0.00000  Uiso   1.00
C618   C     0.63083   0.49607   0.64481   0.00000  Uiso   1.00
C619   C     0.60305   0.42904   0.50070   0.00000  Uiso   1.00
C620   C     0.60996   0.48561   0.58475   0.00000  Uiso   1.00
C621   C     0.35797   0.53126   0.95057   0.00000  Uiso   1.00
C622   C     0.38188   0.54127   0.50755   0.00000  Uiso   1.00
C623   C     0.46547   0.49432   0.99511   0.00000  Uiso   1.00
C624   C     0.43574   0.52401   0.52969   0.00000  Uiso   1.00
C625   C     0.49055   0.44010   0.70624   0.00000  Uiso   1.00
C626   C     0.43678   0.47747   0.93996   0.00000  Uiso   1.00
C627   C     0.52284   0.48100   0.51326   0.00000  Uiso   1.00
C628   C     0.54696   0.44402   0.98086   0.00000  Uiso   1.00
C629   C     0.51430   0.42196   0.92985   0.00000  Uiso   1.00
C630   C     0.45984   0.43855   0.90945   0.00000  Uiso   1.00
C631   C     0.55729   0.50438   0.56250   0.00000  Uiso   1.00
C632   C     0.63401   0.44882   0.55350   0.00000  Uiso   1.00
H633   H     0.34177   0.43383   0.57083   0.00000  Uiso   1.00
H634   H     0.43569   0.42024   0.86980   0.00000  Uiso   1.00
H635   H     0.39809   0.33645   0.74363   0.00000  Uiso   1.00
H636   H     0.50189   0.36312   0.70807   0.00000  Uiso   1.00
H637   H     0.60199   0.66353   0.75697   0.00000  Uiso   1.00
H638   H     0.50999   0.54478   0.78819   0.00000  Uiso   1.00
H639   H     0.53124   0.39260   0.90521   0.00000  Uiso   1.00
H640   H     0.62174   0.40050   0.97665   0.00000  Uiso   1.00
H641   H     0.54278   0.53574   0.58621   0.00000  Uiso   1.00
H642   H     0.65171   0.54862   0.93299   0.00000  Uiso   1.00
H643   H     0.45239   0.53333   0.57417   0.00000  Uiso   1.00
H644   H     0.35968   0.56414   0.53420   0.00000  Uiso   1.00
N645   N     0.47827   0.48556   0.73542   0.00000  Uiso   1.00
N646   N     0.52173   0.51444   0.76457   0.00000  Uiso   1.00
O647   O     0.63102   0.57963   0.75357   0.00000  Uiso   1.00
O648   O     0.49582   0.39362   0.73390   0.00000  Uiso   1.00
O649   O     0.39075   0.57038   0.74423   0.00000  Uiso   1.00
O650   O     0.64823   0.50691   0.83380   0.00000  Uiso   1.00
O651   O     0.40796   0.49766   0.82446   0.00000  Uiso   1.00
O652   O     0.60925   0.42962   0.75576   0.00000  Uiso   1.00
O653   O     0.36898   0.42037   0.74642   0.00000  Uiso   1.00
O654   O     0.59204   0.50234   0.67554   0.00000  Uiso   1.00
O655   O     0.35177   0.49309   0.66620   0.00000  Uiso   1.00
O656   O     0.49097   0.44039   0.65576   0.00000  Uiso   1.00
Zn657  Zn    0.60453   0.50618   0.75623   0.00000  Uiso   1.00
Zn658  Zn    0.39547   0.49382   0.74376   0.00000  Uiso   1.00
C659   C     0.68148   0.59818   0.74871   0.00000  Uiso   1.00
C660   C     0.71969   0.50104   0.91623   0.00000  Uiso   1.00
C661   C     0.68915   0.65275   0.74799   0.00000  Uiso   1.00
C662   C     0.70195   0.50117   0.85517   0.00000  Uiso   1.00
C663   C     0.97760   0.34727   0.75250   0.00000  Uiso   1.00
C664   C     0.98522   0.40182   0.75144   0.00000  Uiso   1.00
C665   C     0.96417   0.49607   0.64481   0.00000  Uiso   1.00
C666   C     0.93639   0.42904   0.50070   0.00000  Uiso   1.00
C667   C     0.94329   0.48561   0.58475   0.00000  Uiso   1.00
C668   C     0.69130   0.53126   0.95057   0.00000  Uiso   1.00
C669   C     0.71521   0.54127   0.50755   0.00000  Uiso   1.00
C670   C     0.79880   0.49432   0.99511   0.00000  Uiso   1.00
C671   C     0.76907   0.52401   0.52969   0.00000  Uiso   1.00
C672   C     0.82389   0.44010   0.70624   0.00000  Uiso   1.00
C673   C     0.77011   0.47747   0.93996   0.00000  Uiso   1.00
C674   C     0.85617   0.48100   0.51326   0.00000  Uiso   1.00
C675   C     0.88030   0.44402   0.98086   0.00000  Uiso   1.00
C676   C     0.84764   0.42196   0.92985   0.00000  Uiso   1.00
C677   C     0.79317   0.43855   0.90945   0.00000  Uiso   1.00
C678   C     0.89062   0.50438   0.56250   0.00000  Uiso   1.00
C679   C     0.96735   0.44882   0.55350   0.00000  Uiso   1.00
H680   H     0.67511   0.43383   0.57083   0.00000  Uiso   1.00
H681   H     0.76902   0.42024   0.86980   0.00000  Uiso   1.00
H682   H     0.73142   0.33645   0.74363   0.00000  Uiso   1.00
H683   H     0.83522   0.36312   0.70807   0.00000  Uiso   1.00
H684   H     0.93532   0.66353   0.75697   0.00000  Uiso   1.00
H685   H     0.84333   0.54478   0.78819   0.00000  Uiso   1.00
H686   H     0.86457   0.39260   0.90521   0.00000  Uiso   1.00
H687   H     0.95507   0.40050   0.97665   0.00000  Uiso   1.00
H688   H     0.87612   0.53574   0.58621   0.00000  Uiso   1.00
H689   H     0.98505   0.54862   0.93299   0.00000  Uiso   1.00
H690   H     0.78572   0.53333   0.57417   0.00000  Uiso   1.00
H691   H     0.69302   0.56414   0.53420   0.00000  Uiso   1.00
N692   N     0.81160   0.48556   0.73542   0.00000  Uiso   1.00
N693   N     0.85507   0.51444   0.76457   0.00000  Uiso   1.00
O694   O     0.96435   0.57963   0.75357   0.00000  Uiso   1.00
O695   O     0.82916   0.39362   0.73390   0.00000  Uiso   1.00
O696   O     0.72408   0.57038   0.74423   0.00000  Uiso   1.00
O697   O     0.98157   0.50691   0.83380   0.00000  Uiso   1.00
O698   O     0.74130   0.49766   0.82446   0.00000  Uiso   1.00
O699   O     0.94258   0.42962   0.75576   0.00000  Uiso   1.00
O700   O     0.70231   0.42037   0.74642   0.00000  Uiso   1.00
O701   O     0.92537   0.50234   0.67554   0.00000  Uiso   1.00
O702   O     0.68510   0.49309   0.66620   0.00000  Uiso   1.00
O703   O     0.82430   0.44039   0.65576   0.00000  Uiso   1.00
Zn704  Zn    0.93786   0.50618   0.75623   0.00000  Uiso   1.00
Zn705  Zn    0.72881   0.49382   0.74376   0.00000  Uiso   1.00
C706   C     0.01481   0.93152   0.74871   0.00000  Uiso   1.00
C707   C     0.05302   0.83437   0.91623   0.00000  Uiso   1.00
C708   C     0.02248   0.98608   0.74799   0.00000  Uiso   1.00
C709   C     0.03529   0.83450   0.85517   0.00000  Uiso   1.00
C710   C     0.31093   0.68060   0.75250   0.00000  Uiso   1.00
C711   C     0.31856   0.73515   0.75144   0.00000  Uiso   1.00
C712   C     0.29750   0.82940   0.64481   0.00000  Uiso   1.00
C713   C     0.26972   0.76237   0.50070   0.00000  Uiso   1.00
C714   C     0.27663   0.81895   0.58475   0.00000  Uiso   1.00
C715   C     0.02463   0.86459   0.95057   0.00000  Uiso   1.00
C716   C     0.04855   0.87460   0.50755   0.00000  Uiso   1.00
C717   C     0.13214   0.82766   0.99511   0.00000  Uiso   1.00
C718   C     0.10240   0.85735   0.52969   0.00000  Uiso   1.00
C719   C     0.15722   0.77343   0.70624   0.00000  Uiso   1.00
C720   C     0.10345   0.81081   0.93996   0.00000  Uiso   1.00
C721   C     0.18951   0.81433   0.51326   0.00000  Uiso   1.00
C722   C     0.21363   0.77736   0.98086   0.00000  Uiso   1.00
C723   C     0.18097   0.75529   0.92985   0.00000  Uiso   1.00
C724   C     0.12650   0.77189   0.90945   0.00000  Uiso   1.00
C725   C     0.22396   0.83771   0.56250   0.00000  Uiso   1.00
C726   C     0.30068   0.78216   0.55350   0.00000  Uiso   1.00
H727   H     0.00844   0.76716   0.57083   0.00000  Uiso   1.00
H728   H     0.10235   0.75357   0.86980   0.00000  Uiso   1.00
H729   H     0.06476   0.66979   0.74363   0.00000  Uiso   1.00
H730   H     0.16855   0.69645   0.70807   0.00000  Uiso   1.00
H731   H     0.26865   0.99686   0.75697   0.00000  Uiso   1.00
H732   H     0.17666   0.87811   0.78819   0.00000  Uiso   1.00
H733   H     0.19791   0.72594   0.90521   0.00000  Uiso   1.00
H734   H     0.28841   0.73383   0.97665   0.00000  Uiso   1.00
H735   H     0.20945   0.86907   0.58621   0.00000  Uiso   1.00
H736   H     0.31838   0.88195   0.93299   0.00000  Uiso   1.00
H737   H     0.11906   0.86666   0.57417   0.00000  Uiso   1.00
H738   H     0.02635   0.89747   0.53420   0.00000  Uiso   1.00
N739   N     0.14493   0.81890   0.73542   0.00000  Uiso   1.00
N740   N     0.18840   0.84777   0.76457   0.00000  Uiso   1.00
O741   O     0.29769   0.91296   0.75357   0.00000  Uiso   1.00
O742   O     0.16249   0.72695   0.73390   0.00000  Uiso   1.00
O743   O     0.05742   0.90371   0.74423   0.00000  Uiso   1.00
O744   O     0.31490   0.84024   0.83380   0.00000  Uiso   1.00
O745   O     0.07463   0.83099   0.82446   0.00000  Uiso   1.00
O746   O     0.27592   0.76296   0.75576   0.00000  Uiso   1.00
O747   O     0.03565   0.75371   0.74642   0.00000  Uiso   1.00
O748   O     0.25870   0.83567   0.67554   0.00000  Uiso   1.00
O749   O     0.01843   0.82642   0.66620   0.00000  Uiso   1.00
O750   O     0.15764   0.77372   0.65576   0.00000  Uiso   1.00
Zn751  Zn    0.27119   0.83951   0.75623   0.00000  Uiso   1.00
Zn752  Zn    0.06214   0.82716   0.74376   0.00000  Uiso   1.00
C753   C     0.34814   0.93152   0.74871   0.00000  Uiso   1.00
C754   C     0.38636   0.83437   0.91623   0.00000  Uiso   1.00
C755   C     0.35581   0.98608   0.74799   0.00000  Uiso   1.00
C756   C     0.36862   0.83450   0.85517   0.00000  Uiso   1.00
C757   C     0.64426   0.68060   0.75250   0.00000  Uiso   1.00
C758   C     0.65189   0.73515   0.75144   0.00000  Uiso   1.00
C759   C     0.63083   0.82940   0.64481   0.00000  Uiso   1.00
C760   C     0.60305   0.76237   0.50070   0.00000  Uiso   1.00
C761   C     0.60996   0.81895   0.58475   0.00000  Uiso   1.00
C762   C     0.35797   0.86459   0.95057   0.00000  Uiso   1.00
C763   C     0.38188   0.87460   0.50755   0.00000  Uiso   1.00
C764   C     0.46547   0.82766   0.99511   0.00000  Uiso   1.00
C765   C     0.43574   0.85735   0.52969   0.00000  Uiso   1.00
C766   C     0.49055   0.77343   0.70624   0.00000  Uiso   1.00
C767   C     0.43678   0.81081   0.93996   0.00000  Uiso   1.00
C768   C     0.52284   0.81433   0.51326   0.00000  Uiso   1.00
C769   C     0.54696   0.77736   0.98086   0.00000  Uiso   1.00
C770   C     0.51430   0.75529   0.92985   0.00000  Uiso   1.00
C771   C     0.45984   0.77189   0.90945   0.00000  Uiso   1.00
C772   C     0.55729   0.83771   0.56250   0.00000  Uiso   1.00
C773   C     0.63401   0.78216   0.55350   0.00000  Uiso   1.00
H774   H     0.34177   0.76716   0.57083   0.00000  Uiso   1.00
H775   H     0.43569   0.75357   0.86980   0.00000  Uiso   1.00
H776   H     0.39809   0.66979   0.74363   0.00000  Uiso   1.00
H777   H     0.50189   0.69645   0.70807   0.00000  Uiso   1.00
H778   H     0.60199   0.99686   0.75697   0.00000  Uiso   1.00
H779   H     0.50999   0.87811   0.78819   0.00000  Uiso   1.00
H780   H     0.53124   0.72594   0.90521   0.00000  Uiso   1.00
H781   H     0.62174   0.73383   0.97665   0.00000  Uiso   1.00
H782   H     0.54278   0.86907   0.58621   0.00000  Uiso   1.00
H783   H     0.65171   0.88195   0.93299   0.00000  Uiso   1.00
H784   H     0.45239   0.86666   0.57417   0.00000  Uiso   1.00
H785   H     0.35968   0.89747   0.53420   0.00000  Uiso   1.00
N786   N     0.47827   0.81890   0.73542   0.00000  Uiso   1.00
N787   N     0.52173   0.84777   0.76457   0.00000  Uiso   1.00
O788   O     0.63102   0.91296   0.75357   0.00000  Uiso   1.00
O789   O     0.49582   0.72695   0.73390   0.00000  Uiso   1.00
O790   O     0.39075   0.90371   0.74423   0.00000  Uiso   1.00
O791   O     0.64823   0.84024   0.83380   0.00000  Uiso   1.00
O792   O     0.40796   0.83099   0.82446   0.00000  Uiso   1.00
O793   O     0.60925   0.76296   0.75576   0.00000  Uiso   1.00
O794   O     0.36898   0.75371   0.74642   0.00000  Uiso   1.00
O795   O     0.59204   0.83567   0.67554   0.00000  Uiso   1.00
O796   O     0.35177   0.82642   0.66620   0.00000  Uiso   1.00
O797   O     0.49097   0.77372   0.65576   0.00000  Uiso   1.00
Zn798  Zn    0.60453   0.83951   0.75623   0.00000  Uiso   1.00
Zn799  Zn    0.39547   0.82716   0.74376   0.00000  Uiso   1.00
C800   C     0.68148   0.93152   0.74871   0.00000  Uiso   1.00
C801   C     0.71969   0.83437   0.91623   0.00000  Uiso   1.00
C802   C     0.68915   0.98608   0.74799   0.00000  Uiso   1.00
C803   C     0.70195   0.83450   0.85517   0.00000  Uiso   1.00
C804   C     0.97760   0.68060   0.75250   0.00000  Uiso   1.00
C805   C     0.98522   0.73515   0.75144   0.00000  Uiso   1.00
C806   C     0.96417   0.82940   0.64481   0.00000  Uiso   1.00
C807   C     0.93639   0.76237   0.50070   0.00000  Uiso   1.00
C808   C     0.94329   0.81895   0.58475   0.00000  Uiso   1.00
C809   C     0.69130   0.86459   0.95057   0.00000  Uiso   1.00
C810   C     0.71521   0.87460   0.50755   0.00000  Uiso   1.00
C811   C     0.79880   0.82766   0.99511   0.00000  Uiso   1.00
C812   C     0.76907   0.85735   0.52969   0.00000  Uiso   1.00
C813   C     0.82389   0.77343   0.70624   0.00000  Uiso   1.00
C814   C     0.77011   0.81081   0.93996   0.00000  Uiso   1.00
C815   C     0.85617   0.81433   0.51326   0.00000  Uiso   1.00
C816   C     0.88030   0.77736   0.98086   0.00000  Uiso   1.00
C817   C     0.84764   0.75529   0.92985   0.00000  Uiso   1.00
C818   C     0.79317   0.77189   0.90945   0.00000  Uiso   1.00
C819   C     0.89062   0.83771   0.56250   0.00000  Uiso   1.00
C820   C     0.96735   0.78216   0.55350   0.00000  Uiso   1.00
H821   H     0.67511   0.76716   0.57083   0.00000  Uiso   1.00
H822   H     0.76902   0.75357   0.86980   0.00000  Uiso   1.00
H823   H     0.73142   0.66979   0.74363   0.00000  Uiso   1.00
H824   H     0.83522   0.69645   0.70807   0.00000  Uiso   1.00
H825   H     0.93532   0.99686   0.75697   0.00000  Uiso   1.00
H826   H     0.84333   0.87811   0.78819   0.00000  Uiso   1.00
H827   H     0.86457   0.72594   0.90521   0.00000  Uiso   1.00
H828   H     0.95507   0.73383   0.97665   0.00000  Uiso   1.00
H829   H     0.87612   0.86907   0.58621   0.00000  Uiso   1.00
H830   H     0.98505   0.88195   0.93299   0.00000  Uiso   1.00
H831   H     0.78572   0.86666   0.57417   0.00000  Uiso   1.00
H832   H     0.69302   0.89747   0.53420   0.00000  Uiso   1.00
N833   N     0.81160   0.81890   0.73542   0.00000  Uiso   1.00
N834   N     0.85507   0.84777   0.76457   0.00000  Uiso   1.00
O835   O     0.96435   0.91296   0.75357   0.00000  Uiso   1.00
O836   O     0.82916   0.72695   0.73390   0.00000  Uiso   1.00
O837   O     0.72408   0.90371   0.74423   0.00000  Uiso   1.00
O838   O     0.98157   0.84024   0.83380   0.00000  Uiso   1.00
O839   O     0.74130   0.83099   0.82446   0.00000  Uiso   1.00
O840   O     0.94258   0.76296   0.75576   0.00000  Uiso   1.00
O841   O     0.70231   0.75371   0.74642   0.00000  Uiso   1.00
O842   O     0.92537   0.83567   0.67554   0.00000  Uiso   1.00
O843   O     0.68510   0.82642   0.66620   0.00000  Uiso   1.00
O844   O     0.82430   0.77372   0.65576   0.00000  Uiso   1.00
Zn845  Zn    0.93786   0.83951   0.75623   0.00000  Uiso   1.00
Zn846  Zn    0.72881   0.82716   0.74376   0.00000  Uiso   1.00
loop_
_geom_bond_atom_site_label_1
_geom_bond_atom_site_label_2
_geom_bond_distance
_geom_bond_site_symmetry_2
_ccdc_geom_bond_type
C1     O38     1.291   .     A
C1     C3      1.402   .     S
C1     O130    1.279   1_455 S
C2     C4      1.453   .     S
C2     C15     1.407   .     A
C2     C10     1.403   .     A
C3     C240    1.337   1_455 S
C3     H165    1.086   .     S
C4     O40     1.301   .     A
C4     O133    1.294   1_455 S
C5     C6      1.402   .     S
C5     C332    1.337   1_545 S
C5     H308    1.088   1_545 S
C6     O41     1.291   .     A
C6     O89     1.280   .     S
C7     O43     1.299   .     A
C7     C9      1.445   .     S
C7     O91     1.293   .     S
C8     C21     1.394   .     A
C8     C440    1.404   1_554 S
C8     H452    1.084   1_554 S
C9     C21     1.400   .     A
C9     C20     1.384   .     A
C10    C434    1.387   .     S
C10    H125    1.083   1_455 S
C11    C13     1.391   .     A
C11    H33     1.083   .     S
C11    C433    1.387   1_554 S
C12    C15     1.405   .     A
C12    C436    1.419   .     S
C12    C439    1.411   .     S
C13    H32     1.079   .     S
C13    C435    1.419   1_554 S
C14    N34     1.412   .     S
C14    O45     1.222   .     D
C14    O37     1.397   .     S
C15    C19     1.415   .     A
C16    C20     1.387   .     A
C16    C435    1.411   1_554 S
C16    C440    1.420   1_554 S
C17    C18     1.392   .     A
C17    C431    1.404   .     S
C17    C439    1.420   .     S
C18    H28     1.084   .     S
C18    C19     1.388   .     A
C19    H23     1.082   .     S
C20    H30     1.080   .     S
C21    H69     1.083   .     S
H22    C115    1.083   1_455 S
H24    C285    1.086   1_545 S
H25    O37     1.014   .     S
H26    C146    1.088   .     S
H27    N35     1.029   .     S
H29    C431    1.084   .     S
H31    C57     1.083   .     S
N34    N35     1.288   .     D
N34    Zn47    2.026   .     S
N35    Zn46    2.026   .     S
O36    Zn46    1.953   .     S
O36    C48     1.279   .     S
O38    Zn47    1.977   .     S
O39    Zn46    1.954   .     S
O39    C51     1.294   .     S
O40    Zn47    1.911   .     S
O41    Zn46    1.977   .     S
O42    Zn47    1.953   .     S
O42    C100    1.280   1_455 S
O43    Zn46    1.911   .     S
O44    Zn47    1.954   .     S
O44    C101    1.293   1_455 S
C48    O85     1.291   .     A
C48    C50     1.402   .     S
C49    C51     1.453   .     S
C49    C62     1.407   .     A
C49    C57     1.403   .     A
C50    C146    1.337   .     S
C50    H212    1.086   .     S
C51    O87     1.301   .     A
C52    C53     1.402   .     S
C52    C379    1.337   1_545 S
C52    H355    1.088   1_545 S
C53    O88     1.291   .     A
C53    O136    1.280   .     S
C54    O90     1.299   .     A
C54    C56     1.445   .     S
C54    O138    1.293   .     S
C55    C68     1.394   .     A
C55    C487    1.404   1_554 S
C55    H499    1.084   1_554 S
C56    C68     1.400   .     A
C56    C67     1.384   .     A
C57    C481    1.387   .     S
C58    C60     1.391   .     A
C58    H80     1.083   .     S
C58    C480    1.387   1_554 S
C59    C62     1.405   .     A
C59    C483    1.419   .     S
C59    C486    1.411   .     S
C60    H79     1.079   .     S
C60    C482    1.419   1_554 S
C61    N81     1.412   .     S
C61    O92     1.222   .     D
C61    O84     1.397   .     S
C62    C66     1.415   .     A
C63    C67     1.387   .     A
C63    C482    1.411   1_554 S
C63    C487    1.420   1_554 S
C64    C65     1.392   .     A
C64    C478    1.404   .     S
C64    C486    1.420   .     S
C65    H75     1.084   .     S
C65    C66     1.388   .     A
C66    H70     1.082   .     S
C67    H77     1.080   .     S
C68    H116    1.083   .     S
H71    C332    1.086   1_545 S
H72    O84     1.014   .     S
H73    C193    1.088   .     S
H74    N82     1.029   .     S
H76    C478    1.084   .     S
H78    C104    1.083   .     S
N81    N82     1.288   .     D
N81    Zn94    2.026   .     S
N82    Zn93    2.026   .     S
O83    Zn93    1.953   .     S
O83    C95     1.279   .     S
O85    Zn94    1.977   .     S
O86    Zn93    1.954   .     S
O86    C98     1.294   .     S
O87    Zn94    1.911   .     S
O88    Zn93    1.977   .     S
O89    Zn94    1.953   .     S
O90    Zn93    1.911   .     S
O91    Zn94    1.954   .     S
C95    O132    1.291   .     A
C95    C97     1.402   .     S
C96    C98     1.453   .     S
C96    C109    1.407   .     A
C96    C104    1.403   .     A
C97    C193    1.337   .     S
C97    H259    1.086   .     S
C98    O134    1.301   .     A
C99    C100    1.402   .     S
C99    C285    1.337   1_645 S
C99    H402    1.088   1_545 S
C100   O135    1.291   .     A
C100   O42     1.280   1_655 S
C101   O137    1.299   .     A
C101   C103    1.445   .     S
C101   O44     1.293   1_655 S
C102   C115    1.394   .     A
C102   C534    1.404   1_554 S
C102   H546    1.084   1_554 S
C103   C115    1.400   .     A
C103   C114    1.384   .     A
C104   C528    1.387   .     S
C105   C107    1.391   .     A
C105   H127    1.083   .     S
C105   C527    1.387   1_554 S
C106   C109    1.405   .     A
C106   C530    1.419   .     S
C106   C533    1.411   .     S
C107   H126    1.079   .     S
C107   C529    1.419   1_554 S
C108   N128    1.412   .     S
C108   O139    1.222   .     D
C108   O131    1.397   .     S
C109   C113    1.415   .     A
C110   C114    1.387   .     A
C110   C529    1.411   1_554 S
C110   C534    1.420   1_554 S
C111   C112    1.392   .     A
C111   C525    1.404   .     S
C111   C533    1.420   .     S
C112   H122    1.084   .     S
C112   C113    1.388   .     A
C113   H117    1.082   .     S
C114   H124    1.080   .     S
C115   H22     1.083   1_655 S
H118   C379    1.086   1_545 S
H119   O131    1.014   .     S
H120   C240    1.088   .     S
H121   N129    1.029   .     S
H123   C525    1.084   .     S
H125   C10     1.083   1_655 S
N128   N129    1.288   .     D
N128   Zn141   2.026   .     S
N129   Zn140   2.026   .     S
O130   Zn140   1.953   .     S
O130   C1      1.279   1_655 S
O132   Zn141   1.977   .     S
O133   Zn140   1.954   .     S
O133   C4      1.294   1_655 S
O134   Zn141   1.911   .     S
O135   Zn140   1.977   .     S
O136   Zn141   1.953   .     S
O137   Zn140   1.911   .     S
O138   Zn141   1.954   .     S
C142   O179    1.291   .     A
C142   C144    1.402   .     S
C142   O271    1.279   1_455 S
C143   C145    1.453   .     S
C143   C156    1.407   .     A
C143   C151    1.403   .     A
C144   C381    1.337   1_455 S
C144   H306    1.086   .     S
C145   O181    1.301   .     A
C145   O274    1.294   1_455 S
C146   C147    1.402   .     S
C147   O182    1.291   .     A
C147   O230    1.280   .     S
C148   O184    1.299   .     A
C148   C150    1.445   .     S
C148   O232    1.293   .     S
C149   C162    1.394   .     A
C149   C581    1.404   1_554 S
C149   H593    1.084   1_554 S
C150   C162    1.400   .     A
C150   C161    1.384   .     A
C151   C575    1.387   .     S
C151   H266    1.083   1_455 S
C152   C154    1.391   .     A
C152   H174    1.083   .     S
C152   C574    1.387   1_554 S
C153   C156    1.405   .     A
C153   C577    1.419   .     S
C153   C580    1.411   .     S
C154   H173    1.079   .     S
C154   C576    1.419   1_554 S
C155   N175    1.412   .     S
C155   O186    1.222   .     D
C155   O178    1.397   .     S
C156   C160    1.415   .     A
C157   C161    1.387   .     A
C157   C576    1.411   1_554 S
C157   C581    1.420   1_554 S
C158   C159    1.392   .     A
C158   C572    1.404   .     S
C158   C580    1.420   .     S
C159   H169    1.084   .     S
C159   C160    1.388   .     A
C160   H164    1.082   .     S
C161   H171    1.080   .     S
C162   H210    1.083   .     S
H163   C256    1.083   1_455 S
H166   O178    1.014   .     S
H167   C287    1.088   .     S
H168   N176    1.029   .     S
H170   C572    1.084   .     S
H172   C198    1.083   .     S
N175   N176    1.288   .     D
N175   Zn188   2.026   .     S
N176   Zn187   2.026   .     S
O177   Zn187   1.953   .     S
O177   C189    1.279   .     S
O179   Zn188   1.977   .     S
O180   Zn187   1.954   .     S
O180   C192    1.294   .     S
O181   Zn188   1.911   .     S
O182   Zn187   1.977   .     S
O183   Zn188   1.953   .     S
O183   C241    1.280   1_455 S
O184   Zn187   1.911   .     S
O185   Zn188   1.954   .     S
O185   C242    1.293   1_455 S
C189   O226    1.291   .     A
C189   C191    1.402   .     S
C190   C192    1.453   .     S
C190   C203    1.407   .     A
C190   C198    1.403   .     A
C191   C287    1.337   .     S
C191   H353    1.086   .     S
C192   O228    1.301   .     A
C193   C194    1.402   .     S
C194   O229    1.291   .     A
C194   O277    1.280   .     S
C195   O231    1.299   .     A
C195   C197    1.445   .     S
C195   O279    1.293   .     S
C196   C209    1.394   .     A
C196   C628    1.404   1_554 S
C196   H640    1.084   1_554 S
C197   C209    1.400   .     A
C197   C208    1.384   .     A
C198   C622    1.387   .     S
C199   C201    1.391   .     A
C199   H221    1.083   .     S
C199   C621    1.387   1_554 S
C200   C203    1.405   .     A
C200   C624    1.419   .     S
C200   C627    1.411   .     S
C201   H220    1.079   .     S
C201   C623    1.419   1_554 S
C202   N222    1.412   .     S
C202   O233    1.222   .     D
C202   O225    1.397   .     S
C203   C207    1.415   .     A
C204   C208    1.387   .     A
C204   C623    1.411   1_554 S
C204   C628    1.420   1_554 S
C205   C206    1.392   .     A
C205   C619    1.404   .     S
C205   C627    1.420   .     S
C206   H216    1.084   .     S
C206   C207    1.388   .     A
C207   H211    1.082   .     S
C208   H218    1.080   .     S
C209   H257    1.083   .     S
H213   O225    1.014   .     S
H214   C334    1.088   .     S
H215   N223    1.029   .     S
H217   C619    1.084   .     S
H219   C245    1.083   .     S
N222   N223    1.288   .     D
N222   Zn235   2.026   .     S
N223   Zn234   2.026   .     S
O224   Zn234   1.953   .     S
O224   C236    1.279   .     S
O226   Zn235   1.977   .     S
O227   Zn234   1.954   .     S
O227   C239    1.294   .     S
O228   Zn235   1.911   .     S
O229   Zn234   1.977   .     S
O230   Zn235   1.953   .     S
O231   Zn234   1.911   .     S
O232   Zn235   1.954   .     S
C236   O273    1.291   .     A
C236   C238    1.402   .     S
C237   C239    1.453   .     S
C237   C250    1.407   .     A
C237   C245    1.403   .     A
C238   C334    1.337   .     S
C238   H400    1.086   .     S
C239   O275    1.301   .     A
C240   C241    1.402   .     S
C240   C3      1.337   1_655 S
C241   O276    1.291   .     A
C241   O183    1.280   1_655 S
C242   O278    1.299   .     A
C242   C244    1.445   .     S
C242   O185    1.293   1_655 S
C243   C256    1.394   .     A
C243   C675    1.404   1_554 S
C243   H687    1.084   1_554 S
C244   C256    1.400   .     A
C244   C255    1.384   .     A
C245   C669    1.387   .     S
C246   C248    1.391   .     A
C246   H268    1.083   .     S
C246   C668    1.387   1_554 S
C247   C250    1.405   .     A
C247   C671    1.419   .     S
C247   C674    1.411   .     S
C248   H267    1.079   .     S
C248   C670    1.419   1_554 S
C249   N269    1.412   .     S
C249   O280    1.222   .     D
C249   O272    1.397   .     S
C250   C254    1.415   .     A
C251   C255    1.387   .     A
C251   C670    1.411   1_554 S
C251   C675    1.420   1_554 S
C252   C253    1.392   .     A
C252   C666    1.404   .     S
C252   C674    1.420   .     S
C253   H263    1.084   .     S
C253   C254    1.388   .     A
C254   H258    1.082   .     S
C255   H265    1.080   .     S
C256   H163    1.083   1_655 S
H260   O272    1.014   .     S
H261   C381    1.088   .     S
H262   N270    1.029   .     S
H264   C666    1.084   .     S
H266   C151    1.083   1_655 S
N269   N270    1.288   .     D
N269   Zn282   2.026   .     S
N270   Zn281   2.026   .     S
O271   Zn281   1.953   .     S
O271   C142    1.279   1_655 S
O273   Zn282   1.977   .     S
O274   Zn281   1.954   .     S
O274   C145    1.294   1_655 S
O275   Zn282   1.911   .     S
O276   Zn281   1.977   .     S
O277   Zn282   1.953   .     S
O278   Zn281   1.911   .     S
O279   Zn282   1.954   .     S
C283   O320    1.291   .     A
C283   C285    1.402   .     S
C283   O412    1.279   1_455 S
C284   C286    1.453   .     S
C284   C297    1.407   .     A
C284   C292    1.403   .     A
C285   C99     1.337   1_465 S
C285   H24     1.086   1_565 S
C286   O322    1.301   .     A
C286   O415    1.294   1_455 S
C287   C288    1.402   .     S
C288   O323    1.291   .     A
C288   O371    1.280   .     S
C289   O325    1.299   .     A
C289   C291    1.445   .     S
C289   O373    1.293   .     S
C290   C303    1.394   .     A
C290   C722    1.404   1_554 S
C290   H734    1.084   1_554 S
C291   C303    1.400   .     A
C291   C302    1.384   .     A
C292   C716    1.387   .     S
C292   H407    1.083   1_455 S
C293   C295    1.391   .     A
C293   H315    1.083   .     S
C293   C715    1.387   1_554 S
C294   C297    1.405   .     A
C294   C718    1.419   .     S
C294   C721    1.411   .     S
C295   H314    1.079   .     S
C295   C717    1.419   1_554 S
C296   N316    1.412   .     S
C296   O327    1.222   .     D
C296   O319    1.397   .     S
C297   C301    1.415   .     A
C298   C302    1.387   .     A
C298   C717    1.411   1_554 S
C298   C722    1.420   1_554 S
C299   C300    1.392   .     A
C299   C713    1.404   .     S
C299   C721    1.420   .     S
C300   H310    1.084   .     S
C300   C301    1.388   .     A
C301   H305    1.082   .     S
C302   H312    1.080   .     S
C303   H351    1.083   .     S
H304   C397    1.083   1_455 S
H307   O319    1.014   .     S
H308   C5      1.088   1_565 S
H309   N317    1.029   .     S
H311   C713    1.084   .     S
H313   C339    1.083   .     S
N316   N317    1.288   .     D
N316   Zn329   2.026   .     S
N317   Zn328   2.026   .     S
O318   Zn328   1.953   .     S
O318   C330    1.279   .     S
O320   Zn329   1.977   .     S
O321   Zn328   1.954   .     S
O321   C333    1.294   .     S
O322   Zn329   1.911   .     S
O323   Zn328   1.977   .     S
O324   Zn329   1.953   .     S
O324   C382    1.280   1_455 S
O325   Zn328   1.911   .     S
O326   Zn329   1.954   .     S
O326   C383    1.293   1_455 S
C330   O367    1.291   .     A
C330   C332    1.402   .     S
C331   C333    1.453   .     S
C331   C344    1.407   .     A
C331   C339    1.403   .     A
C332   C5      1.337   1_565 S
C332   H71     1.086   1_565 S
C333   O369    1.301   .     A
C334   C335    1.402   .     S
C335   O370    1.291   .     A
C335   O418    1.280   .     S
C336   O372    1.299   .     A
C336   C338    1.445   .     S
C336   O420    1.293   .     S
C337   C350    1.394   .     A
C337   C769    1.404   1_554 S
C337   H781    1.084   1_554 S
C338   C350    1.400   .     A
C338   C349    1.384   .     A
C339   C763    1.387   .     S
C340   C342    1.391   .     A
C340   H362    1.083   .     S
C340   C762    1.387   1_554 S
C341   C344    1.405   .     A
C341   C765    1.419   .     S
C341   C768    1.411   .     S
C342   H361    1.079   .     S
C342   C764    1.419   1_554 S
C343   N363    1.412   .     S
C343   O374    1.222   .     D
C343   O366    1.397   .     S
C344   C348    1.415   .     A
C345   C349    1.387   .     A
C345   C764    1.411   1_554 S
C345   C769    1.420   1_554 S
C346   C347    1.392   .     A
C346   C760    1.404   .     S
C346   C768    1.420   .     S
C347   H357    1.084   .     S
C347   C348    1.388   .     A
C348   H352    1.082   .     S
C349   H359    1.080   .     S
C350   H398    1.083   .     S
H354   O366    1.014   .     S
H355   C52     1.088   1_565 S
H356   N364    1.029   .     S
H358   C760    1.084   .     S
H360   C386    1.083   .     S
N363   N364    1.288   .     D
N363   Zn376   2.026   .     S
N364   Zn375   2.026   .     S
O365   Zn375   1.953   .     S
O365   C377    1.279   .     S
O367   Zn376   1.977   .     S
O368   Zn375   1.954   .     S
O368   C380    1.294   .     S
O369   Zn376   1.911   .     S
O370   Zn375   1.977   .     S
O371   Zn376   1.953   .     S
O372   Zn375   1.911   .     S
O373   Zn376   1.954   .     S
C377   O414    1.291   .     A
C377   C379    1.402   .     S
C378   C380    1.453   .     S
C378   C391    1.407   .     A
C378   C386    1.403   .     A
C379   C52     1.337   1_565 S
C379   H118    1.086   1_565 S
C380   O416    1.301   .     A
C381   C382    1.402   .     S
C381   C144    1.337   1_655 S
C382   O417    1.291   .     A
C382   O324    1.280   1_655 S
C383   O419    1.299   .     A
C383   C385    1.445   .     S
C383   O326    1.293   1_655 S
C384   C397    1.394   .     A
C384   C816    1.404   1_554 S
C384   H828    1.084   1_554 S
C385   C397    1.400   .     A
C385   C396    1.384   .     A
C386   C810    1.387   .     S
C387   C389    1.391   .     A
C387   H409    1.083   .     S
C387   C809    1.387   1_554 S
C388   C391    1.405   .     A
C388   C812    1.419   .     S
C388   C815    1.411   .     S
C389   H408    1.079   .     S
C389   C811    1.419   1_554 S
C390   N410    1.412   .     S
C390   O421    1.222   .     D
C390   O413    1.397   .     S
C391   C395    1.415   .     A
C392   C396    1.387   .     A
C392   C811    1.411   1_554 S
C392   C816    1.420   1_554 S
C393   C394    1.392   .     A
C393   C807    1.404   .     S
C393   C815    1.420   .     S
C394   H404    1.084   .     S
C394   C395    1.388   .     A
C395   H399    1.082   .     S
C396   H406    1.080   .     S
C397   H304    1.083   1_655 S
H401   O413    1.014   .     S
H402   C99     1.088   1_565 S
H403   N411    1.029   .     S
H405   C807    1.084   .     S
H407   C292    1.083   1_655 S
N410   N411    1.288   .     D
N410   Zn423   2.026   .     S
N411   Zn422   2.026   .     S
O412   Zn422   1.953   .     S
O412   C283    1.279   1_655 S
O414   Zn423   1.977   .     S
O415   Zn422   1.954   .     S
O415   C286    1.294   1_655 S
O416   Zn423   1.911   .     S
O417   Zn422   1.977   .     S
O418   Zn423   1.953   .     S
O419   Zn422   1.911   .     S
O420   Zn423   1.954   .     S
C424   O461    1.291   .     A
C424   C426    1.402   .     S
C424   O553    1.279   1_455 S
C425   C427    1.453   .     S
C425   C438    1.407   .     A
C425   C433    1.403   .     A
C426   C663    1.337   1_455 S
C426   H588    1.086   .     S
C427   O463    1.301   .     A
C427   O556    1.294   1_455 S
C428   C429    1.402   .     S
C428   C755    1.337   1_545 S
C428   H731    1.088   1_545 S
C429   O464    1.291   .     A
C429   O512    1.280   .     S
C430   O466    1.299   .     A
C430   C432    1.445   .     S
C430   O514    1.293   .     S
C431   C444    1.394   .     A
C432   C444    1.400   .     A
C432   C443    1.384   .     A
C433   C11     1.387   1_556 S
C433   H548    1.083   1_455 S
C434   C436    1.391   .     A
C434   H456    1.083   .     S
C435   C438    1.405   .     A
C435   C13     1.419   1_556 S
C435   C16     1.411   1_556 S
C436   H455    1.079   .     S
C437   N457    1.412   .     S
C437   O468    1.222   .     D
C437   O460    1.397   .     S
C438   C442    1.415   .     A
C439   C443    1.387   .     A
C440   C441    1.392   .     A
C440   C8      1.404   1_556 S
C440   C16     1.420   1_556 S
C441   H451    1.084   .     S
C441   C442    1.388   .     A
C442   H446    1.082   .     S
C443   H453    1.080   .     S
C444   H492    1.083   .     S
H445   C538    1.083   1_455 S
H447   C708    1.086   1_545 S
H448   O460    1.014   .     S
H449   C569    1.088   .     S
H450   N458    1.029   .     S
H452   C8      1.084   1_556 S
H454   C480    1.083   .     S
N457   N458    1.288   .     D
N457   Zn470   2.026   .     S
N458   Zn469   2.026   .     S
O459   Zn469   1.953   .     S
O459   C471    1.279   .     S
O461   Zn470   1.977   .     S
O462   Zn469   1.954   .     S
O462   C474    1.294   .     S
O463   Zn470   1.911   .     S
O464   Zn469   1.977   .     S
O465   Zn470   1.953   .     S
O465   C523    1.280   1_455 S
O466   Zn469   1.911   .     S
O467   Zn470   1.954   .     S
O467   C524    1.293   1_455 S
C471   O508    1.291   .     A
C471   C473    1.402   .     S
C472   C474    1.453   .     S
C472   C485    1.407   .     A
C472   C480    1.403   .     A
C473   C569    1.337   .     S
C473   H635    1.086   .     S
C474   O510    1.301   .     A
C475   C476    1.402   .     S
C475   C802    1.337   1_545 S
C475   H778    1.088   1_545 S
C476   O511    1.291   .     A
C476   O559    1.280   .     S
C477   O513    1.299   .     A
C477   C479    1.445   .     S
C477   O561    1.293   .     S
C478   C491    1.394   .     A
C479   C491    1.400   .     A
C479   C490    1.384   .     A
C480   C58     1.387   1_556 S
C481   C483    1.391   .     A
C481   H503    1.083   .     S
C482   C485    1.405   .     A
C482   C60     1.419   1_556 S
C482   C63     1.411   1_556 S
C483   H502    1.079   .     S
C484   N504    1.412   .     S
C484   O515    1.222   .     D
C484   O507    1.397   .     S
C485   C489    1.415   .     A
C486   C490    1.387   .     A
C487   C488    1.392   .     A
C487   C55     1.404   1_556 S
C487   C63     1.420   1_556 S
C488   H498    1.084   .     S
C488   C489    1.388   .     A
C489   H493    1.082   .     S
C490   H500    1.080   .     S
C491   H539    1.083   .     S
H494   C755    1.086   1_545 S
H495   O507    1.014   .     S
H496   C616    1.088   .     S
H497   N505    1.029   .     S
H499   C55     1.084   1_556 S
H501   C527    1.083   .     S
N504   N505    1.288   .     D
N504   Zn517   2.026   .     S
N505   Zn516   2.026   .     S
O506   Zn516   1.953   .     S
O506   C518    1.279   .     S
O508   Zn517   1.977   .     S
O509   Zn516   1.954   .     S
O509   C521    1.294   .     S
O510   Zn517   1.911   .     S
O511   Zn516   1.977   .     S
O512   Zn517   1.953   .     S
O513   Zn516   1.911   .     S
O514   Zn517   1.954   .     S
C518   O555    1.291   .     A
C518   C520    1.402   .     S
C519   C521    1.453   .     S
C519   C532    1.407   .     A
C519   C527    1.403   .     A
C520   C616    1.337   .     S
C520   H682    1.086   .     S
C521   O557    1.301   .     A
C522   C523    1.402   .     S
C522   C708    1.337   1_645 S
C522   H825    1.088   1_545 S
C523   O558    1.291   .     A
C523   O465    1.280   1_655 S
C524   O560    1.299   .     A
C524   C526    1.445   .     S
C524   O467    1.293   1_655 S
C525   C538    1.394   .     A
C526   C538    1.400   .     A
C526   C537    1.384   .     A
C527   C105    1.387   1_556 S
C528   C530    1.391   .     A
C528   H550    1.083   .     S
C529   C532    1.405   .     A
C529   C107    1.419   1_556 S
C529   C110    1.411   1_556 S
C530   H549    1.079   .     S
C531   N551    1.412   .     S
C531   O562    1.222   .     D
C531   O554    1.397   .     S
C532   C536    1.415   .     A
C533   C537    1.387   .     A
C534   C535    1.392   .     A
C534   C102    1.404   1_556 S
C534   C110    1.420   1_556 S
C535   H545    1.084   .     S
C535   C536    1.388   .     A
C536   H540    1.082   .     S
C537   H547    1.080   .     S
C538   H445    1.083   1_655 S
H541   C802    1.086   1_545 S
H542   O554    1.014   .     S
H543   C663    1.088   .     S
H544   N552    1.029   .     S
H546   C102    1.084   1_556 S
H548   C433    1.083   1_655 S
N551   N552    1.288   .     D
N551   Zn564   2.026   .     S
N552   Zn563   2.026   .     S
O553   Zn563   1.953   .     S
O553   C424    1.279   1_655 S
O555   Zn564   1.977   .     S
O556   Zn563   1.954   .     S
O556   C427    1.294   1_655 S
O557   Zn564   1.911   .     S
O558   Zn563   1.977   .     S
O559   Zn564   1.953   .     S
O560   Zn563   1.911   .     S
O561   Zn564   1.954   .     S
C565   O602    1.291   .     A
C565   C567    1.402   .     S
C565   O694    1.279   1_455 S
C566   C568    1.453   .     S
C566   C579    1.407   .     A
C566   C574    1.403   .     A
C567   C804    1.337   1_455 S
C567   H729    1.086   .     S
C568   O604    1.301   .     A
C568   O697    1.294   1_455 S
C569   C570    1.402   .     S
C570   O605    1.291   .     A
C570   O653    1.280   .     S
C571   O607    1.299   .     A
C571   C573    1.445   .     S
C571   O655    1.293   .     S
C572   C585    1.394   .     A
C573   C585    1.400   .     A
C573   C584    1.384   .     A
C574   C152    1.387   1_556 S
C574   H689    1.083   1_455 S
C575   C577    1.391   .     A
C575   H597    1.083   .     S
C576   C579    1.405   .     A
C576   C154    1.419   1_556 S
C576   C157    1.411   1_556 S
C577   H596    1.079   .     S
C578   N598    1.412   .     S
C578   O609    1.222   .     D
C578   O601    1.397   .     S
C579   C583    1.415   .     A
C580   C584    1.387   .     A
C581   C582    1.392   .     A
C581   C149    1.404   1_556 S
C581   C157    1.420   1_556 S
C582   H592    1.084   .     S
C582   C583    1.388   .     A
C583   H587    1.082   .     S
C584   H594    1.080   .     S
C585   H633    1.083   .     S
H586   C679    1.083   1_455 S
H589   O601    1.014   .     S
H590   C710    1.088   .     S
H591   N599    1.029   .     S
H593   C149    1.084   1_556 S
H595   C621    1.083   .     S
N598   N599    1.288   .     D
N598   Zn611   2.026   .     S
N599   Zn610   2.026   .     S
O600   Zn610   1.953   .     S
O600   C612    1.279   .     S
O602   Zn611   1.977   .     S
O603   Zn610   1.954   .     S
O603   C615    1.294   .     S
O604   Zn611   1.911   .     S
O605   Zn610   1.977   .     S
O606   Zn611   1.953   .     S
O606   C664    1.280   1_455 S
O607   Zn610   1.911   .     S
O608   Zn611   1.954   .     S
O608   C665    1.293   1_455 S
C612   O649    1.291   .     A
C612   C614    1.402   .     S
C613   C615    1.453   .     S
C613   C626    1.407   .     A
C613   C621    1.403   .     A
C614   C710    1.337   .     S
C614   H776    1.086   .     S
C615   O651    1.301   .     A
C616   C617    1.402   .     S
C617   O652    1.291   .     A
C617   O700    1.280   .     S
C618   O654    1.299   .     A
C618   C620    1.445   .     S
C618   O702    1.293   .     S
C619   C632    1.394   .     A
C620   C632    1.400   .     A
C620   C631    1.384   .     A
C621   C199    1.387   1_556 S
C622   C624    1.391   .     A
C622   H644    1.083   .     S
C623   C626    1.405   .     A
C623   C201    1.419   1_556 S
C623   C204    1.411   1_556 S
C624   H643    1.079   .     S
C625   N645    1.412   .     S
C625   O656    1.222   .     D
C625   O648    1.397   .     S
C626   C630    1.415   .     A
C627   C631    1.387   .     A
C628   C629    1.392   .     A
C628   C196    1.404   1_556 S
C628   C204    1.420   1_556 S
C629   H639    1.084   .     S
C629   C630    1.388   .     A
C630   H634    1.082   .     S
C631   H641    1.080   .     S
C632   H680    1.083   .     S
H636   O648    1.014   .     S
H637   C757    1.088   .     S
H638   N646    1.029   .     S
H640   C196    1.084   1_556 S
H642   C668    1.083   .     S
N645   N646    1.288   .     D
N645   Zn658   2.026   .     S
N646   Zn657   2.026   .     S
O647   Zn657   1.953   .     S
O647   C659    1.279   .     S
O649   Zn658   1.977   .     S
O650   Zn657   1.954   .     S
O650   C662    1.294   .     S
O651   Zn658   1.911   .     S
O652   Zn657   1.977   .     S
O653   Zn658   1.953   .     S
O654   Zn657   1.911   .     S
O655   Zn658   1.954   .     S
C659   O696    1.291   .     A
C659   C661    1.402   .     S
C660   C662    1.453   .     S
C660   C673    1.407   .     A
C660   C668    1.403   .     A
C661   C757    1.337   .     S
C661   H823    1.086   .     S
C662   O698    1.301   .     A
C663   C664    1.402   .     S
C663   C426    1.337   1_655 S
C664   O699    1.291   .     A
C664   O606    1.280   1_655 S
C665   O701    1.299   .     A
C665   C667    1.445   .     S
C665   O608    1.293   1_655 S
C666   C679    1.394   .     A
C667   C679    1.400   .     A
C667   C678    1.384   .     A
C668   C246    1.387   1_556 S
C669   C671    1.391   .     A
C669   H691    1.083   .     S
C670   C673    1.405   .     A
C670   C248    1.419   1_556 S
C670   C251    1.411   1_556 S
C671   H690    1.079   .     S
C672   N692    1.412   .     S
C672   O703    1.222   .     D
C672   O695    1.397   .     S
C673   C677    1.415   .     A
C674   C678    1.387   .     A
C675   C676    1.392   .     A
C675   C243    1.404   1_556 S
C675   C251    1.420   1_556 S
C676   H686    1.084   .     S
C676   C677    1.388   .     A
C677   H681    1.082   .     S
C678   H688    1.080   .     S
C679   H586    1.083   1_655 S
H683   O695    1.014   .     S
H684   C804    1.088   .     S
H685   N693    1.029   .     S
H687   C243    1.084   1_556 S
H689   C574    1.083   1_655 S
N692   N693    1.288   .     D
N692   Zn705   2.026   .     S
N693   Zn704   2.026   .     S
O694   Zn704   1.953   .     S
O694   C565    1.279   1_655 S
O696   Zn705   1.977   .     S
O697   Zn704   1.954   .     S
O697   C568    1.294   1_655 S
O698   Zn705   1.911   .     S
O699   Zn704   1.977   .     S
O700   Zn705   1.953   .     S
O701   Zn704   1.911   .     S
O702   Zn705   1.954   .     S
C706   O743    1.291   .     A
C706   C708    1.402   .     S
C706   O835    1.279   1_455 S
C707   C709    1.453   .     S
C707   C720    1.407   .     A
C707   C715    1.403   .     A
C708   C522    1.337   1_465 S
C708   H447    1.086   1_565 S
C709   O745    1.301   .     A
C709   O838    1.294   1_455 S
C710   C711    1.402   .     S
C711   O746    1.291   .     A
C711   O794    1.280   .     S
C712   O748    1.299   .     A
C712   C714    1.445   .     S
C712   O796    1.293   .     S
C713   C726    1.394   .     A
C714   C726    1.400   .     A
C714   C725    1.384   .     A
C715   C293    1.387   1_556 S
C715   H830    1.083   1_455 S
C716   C718    1.391   .     A
C716   H738    1.083   .     S
C717   C720    1.405   .     A
C717   C295    1.419   1_556 S
C717   C298    1.411   1_556 S
C718   H737    1.079   .     S
C719   N739    1.412   .     S
C719   O750    1.222   .     D
C719   O742    1.397   .     S
C720   C724    1.415   .     A
C721   C725    1.387   .     A
C722   C723    1.392   .     A
C722   C290    1.404   1_556 S
C722   C298    1.420   1_556 S
C723   H733    1.084   .     S
C723   C724    1.388   .     A
C724   H728    1.082   .     S
C725   H735    1.080   .     S
C726   H774    1.083   .     S
H727   C820    1.083   1_455 S
H730   O742    1.014   .     S
H731   C428    1.088   1_565 S
H732   N740    1.029   .     S
H734   C290    1.084   1_556 S
H736   C762    1.083   .     S
N739   N740    1.288   .     D
N739   Zn752   2.026   .     S
N740   Zn751   2.026   .     S
O741   Zn751   1.953   .     S
O741   C753    1.279   .     S
O743   Zn752   1.977   .     S
O744   Zn751   1.954   .     S
O744   C756    1.294   .     S
O745   Zn752   1.911   .     S
O746   Zn751   1.977   .     S
O747   Zn752   1.953   .     S
O747   C805    1.280   1_455 S
O748   Zn751   1.911   .     S
O749   Zn752   1.954   .     S
O749   C806    1.293   1_455 S
C753   O790    1.291   .     A
C753   C755    1.402   .     S
C754   C756    1.453   .     S
C754   C767    1.407   .     A
C754   C762    1.403   .     A
C755   C428    1.337   1_565 S
C755   H494    1.086   1_565 S
C756   O792    1.301   .     A
C757   C758    1.402   .     S
C758   O793    1.291   .     A
C758   O841    1.280   .     S
C759   O795    1.299   .     A
C759   C761    1.445   .     S
C759   O843    1.293   .     S
C760   C773    1.394   .     A
C761   C773    1.400   .     A
C761   C772    1.384   .     A
C762   C340    1.387   1_556 S
C763   C765    1.391   .     A
C763   H785    1.083   .     S
C764   C767    1.405   .     A
C764   C342    1.419   1_556 S
C764   C345    1.411   1_556 S
C765   H784    1.079   .     S
C766   N786    1.412   .     S
C766   O797    1.222   .     D
C766   O789    1.397   .     S
C767   C771    1.415   .     A
C768   C772    1.387   .     A
C769   C770    1.392   .     A
C769   C337    1.404   1_556 S
C769   C345    1.420   1_556 S
C770   H780    1.084   .     S
C770   C771    1.388   .     A
C771   H775    1.082   .     S
C772   H782    1.080   .     S
C773   H821    1.083   .     S
H777   O789    1.014   .     S
H778   C475    1.088   1_565 S
H779   N787    1.029   .     S
H781   C337    1.084   1_556 S
H783   C809    1.083   .     S
N786   N787    1.288   .     D
N786   Zn799   2.026   .     S
N787   Zn798   2.026   .     S
O788   Zn798   1.953   .     S
O788   C800    1.279   .     S
O790   Zn799   1.977   .     S
O791   Zn798   1.954   .     S
O791   C803    1.294   .     S
O792   Zn799   1.911   .     S
O793   Zn798   1.977   .     S
O794   Zn799   1.953   .     S
O795   Zn798   1.911   .     S
O796   Zn799   1.954   .     S
C800   O837    1.291   .     A
C800   C802    1.402   .     S
C801   C803    1.453   .     S
C801   C814    1.407   .     A
C801   C809    1.403   .     A
C802   C475    1.337   1_565 S
C802   H541    1.086   1_565 S
C803   O839    1.301   .     A
C804   C805    1.402   .     S
C804   C567    1.337   1_655 S
C805   O840    1.291   .     A
C805   O747    1.280   1_655 S
C806   O842    1.299   .     A
C806   C808    1.445   .     S
C806   O749    1.293   1_655 S
C807   C820    1.394   .     A
C808   C820    1.400   .     A
C808   C819    1.384   .     A
C809   C387    1.387   1_556 S
C810   C812    1.391   .     A
C810   H832    1.083   .     S
C811   C814    1.405   .     A
C811   C389    1.419   1_556 S
C811   C392    1.411   1_556 S
C812   H831    1.079   .     S
C813   N833    1.412   .     S
C813   O844    1.222   .     D
C813   O836    1.397   .     S
C814   C818    1.415   .     A
C815   C819    1.387   .     A
C816   C817    1.392   .     A
C816   C384    1.404   1_556 S
C816   C392    1.420   1_556 S
C817   H827    1.084   .     S
C817   C818    1.388   .     A
C818   H822    1.082   .     S
C819   H829    1.080   .     S
C820   H727    1.083   1_655 S
H824   O836    1.014   .     S
H825   C522    1.088   1_565 S
H826   N834    1.029   .     S
H828   C384    1.084   1_556 S
H830   C715    1.083   1_655 S
N833   N834    1.288   .     D
N833   Zn846   2.026   .     S
N834   Zn845   2.026   .     S
O835   Zn845   1.953   .     S
O835   C706    1.279   1_655 S
O837   Zn846   1.977   .     S
O838   Zn845   1.954   .     S
O838   C709    1.294   1_655 S
O839   Zn846   1.911   .     S
O840   Zn845   1.977   .     S
O841   Zn846   1.953   .     S
O842   Zn845   1.911   .     S
O843   Zn846   1.954   .     S
