data_str_m2_o1_o10_pcu_sym.102
_audit_creation_date              2020-01-03
_audit_creation_method            'Materials Studio'
_symmetry_space_group_name_H-M    'P1'
_symmetry_Int_Tables_number       1
_symmetry_cell_setting            triclinic
loop_
_symmetry_equiv_pos_as_xyz
  x,y,z
_cell_length_a                    26.4103
_cell_length_b                    32.4900
_cell_length_c                    28.6407
_cell_angle_alpha                 90.3845
_cell_angle_beta                  98.0309
_cell_angle_gamma                 90.8498
loop_
_atom_site_label
_atom_site_type_symbol
_atom_site_fract_x
_atom_site_fract_y
_atom_site_fract_z
_atom_site_U_iso_or_equiv
_atom_site_adp_type
_atom_site_occupancy
C1     C     0.16660   0.08739   0.16656   0.00000  Uiso   1.00
C2     C     0.16673   0.24595   0.16678   0.00000  Uiso   1.00
C3     C     0.06809   0.16638   0.15478   0.00000  Uiso   1.00
C4     C     0.26524   0.16695   0.17855   0.00000  Uiso   1.00
C5     C     0.01341   0.16129   0.14902   0.00000  Uiso   1.00
C6     C     0.31993   0.17204   0.18431   0.00000  Uiso   1.00
C7     C     0.16909   0.02104   0.12455   0.00000  Uiso   1.00
C8     C     0.16424   0.31229   0.20878   0.00000  Uiso   1.00
C9     C     0.16917   0.31180   0.12468   0.00000  Uiso   1.00
C10    C     0.16416   0.02154   0.20866   0.00000  Uiso   1.00
C11    C     0.16674   0.29058   0.16680   0.00000  Uiso   1.00
C12    C     0.16659   0.04275   0.16654   0.00000  Uiso   1.00
C13    C     0.13496   0.14054   0.01993   0.00000  Uiso   1.00
C14    C     0.19837   0.19280   0.31341   0.00000  Uiso   1.00
C15    C     0.13510   0.14072   0.30390   0.00000  Uiso   1.00
C16    C     0.19824   0.19261   0.02944   0.00000  Uiso   1.00
Cu17   Cu    0.16667   0.16667   0.21355   0.00000  Uiso   1.00
Cu18   Cu    0.16667   0.16666   0.11978   0.00000  Uiso   1.00
H19    H     0.17112   0.03685   0.09167   0.00000  Uiso   1.00
H20    H     0.16221   0.29648   0.24166   0.00000  Uiso   1.00
H21    H     0.17123   0.29560   0.09183   0.00000  Uiso   1.00
H22    H     0.16211   0.03774   0.24150   0.00000  Uiso   1.00
H23    H     0.10989   0.11996   0.28149   0.00000  Uiso   1.00
H24    H     0.22344   0.21337   0.05184   0.00000  Uiso   1.00
N25    N     0.16668   0.16668   0.28403   0.00000  Uiso   1.00
N26    N     0.16665   0.16666   0.04931   0.00000  Uiso   1.00
O27    O     0.16666   0.10655   0.20625   0.00000  Uiso   1.00
O28    O     0.16667   0.22678   0.12709   0.00000  Uiso   1.00
O29    O     0.16666   0.10654   0.12706   0.00000  Uiso   1.00
O30    O     0.16667   0.22679   0.20628   0.00000  Uiso   1.00
O31    O     0.09161   0.16667   0.19712   0.00000  Uiso   1.00
O32    O     0.24172   0.16666   0.13621   0.00000  Uiso   1.00
O33    O     0.09161   0.16666   0.11793   0.00000  Uiso   1.00
O34    O     0.24172   0.16667   0.21540   0.00000  Uiso   1.00
Cl35   Cl    0.32001   0.13471   0.09667   0.00000  Uiso   1.00
Cl36   Cl    0.01332   0.19862   0.23666   0.00000  Uiso   1.00
Cl37   Cl    0.09311   0.10552   0.04182   0.00000  Uiso   1.00
Cl38   Cl    0.24022   0.22782   0.29151   0.00000  Uiso   1.00
C39    C     0.49994   0.08739   0.16656   0.00000  Uiso   1.00
C40    C     0.50006   0.24595   0.16678   0.00000  Uiso   1.00
C41    C     0.40142   0.16638   0.15478   0.00000  Uiso   1.00
C42    C     0.59858   0.16695   0.17855   0.00000  Uiso   1.00
C43    C     0.34674   0.16129   0.14902   0.00000  Uiso   1.00
C44    C     0.65326   0.17204   0.18431   0.00000  Uiso   1.00
C45    C     0.50243   0.02104   0.12455   0.00000  Uiso   1.00
C46    C     0.49757   0.31229   0.20878   0.00000  Uiso   1.00
C47    C     0.50251   0.31180   0.12468   0.00000  Uiso   1.00
C48    C     0.49749   0.02154   0.20866   0.00000  Uiso   1.00
C49    C     0.50008   0.29058   0.16680   0.00000  Uiso   1.00
C50    C     0.49992   0.04275   0.16654   0.00000  Uiso   1.00
C51    C     0.46829   0.14054   0.01993   0.00000  Uiso   1.00
C52    C     0.53171   0.19280   0.31341   0.00000  Uiso   1.00
C53    C     0.46843   0.14072   0.30390   0.00000  Uiso   1.00
C54    C     0.53157   0.19261   0.02944   0.00000  Uiso   1.00
Cu55   Cu    0.50000   0.16667   0.21355   0.00000  Uiso   1.00
Cu56   Cu    0.50000   0.16666   0.11978   0.00000  Uiso   1.00
H57    H     0.50445   0.03685   0.09167   0.00000  Uiso   1.00
H58    H     0.49555   0.29648   0.24166   0.00000  Uiso   1.00
H59    H     0.50456   0.29560   0.09183   0.00000  Uiso   1.00
H60    H     0.49544   0.03774   0.24150   0.00000  Uiso   1.00
H61    H     0.44322   0.11996   0.28149   0.00000  Uiso   1.00
H62    H     0.55677   0.21337   0.05184   0.00000  Uiso   1.00
N63    N     0.50001   0.16668   0.28403   0.00000  Uiso   1.00
N64    N     0.49999   0.16666   0.04931   0.00000  Uiso   1.00
O65    O     0.50000   0.10655   0.20625   0.00000  Uiso   1.00
O66    O     0.50000   0.22678   0.12709   0.00000  Uiso   1.00
O67    O     0.50000   0.10654   0.12706   0.00000  Uiso   1.00
O68    O     0.50000   0.22679   0.20628   0.00000  Uiso   1.00
O69    O     0.42495   0.16667   0.19712   0.00000  Uiso   1.00
O70    O     0.57505   0.16666   0.13621   0.00000  Uiso   1.00
O71    O     0.42494   0.16666   0.11793   0.00000  Uiso   1.00
O72    O     0.57506   0.16667   0.21540   0.00000  Uiso   1.00
Cl73   Cl    0.65334   0.13471   0.09667   0.00000  Uiso   1.00
Cl74   Cl    0.34666   0.19862   0.23666   0.00000  Uiso   1.00
Cl75   Cl    0.42644   0.10552   0.04182   0.00000  Uiso   1.00
Cl76   Cl    0.57356   0.22782   0.29151   0.00000  Uiso   1.00
C77    C     0.83327   0.08739   0.16656   0.00000  Uiso   1.00
C78    C     0.83340   0.24595   0.16678   0.00000  Uiso   1.00
C79    C     0.73476   0.16638   0.15478   0.00000  Uiso   1.00
C80    C     0.93191   0.16695   0.17855   0.00000  Uiso   1.00
C81    C     0.68007   0.16129   0.14902   0.00000  Uiso   1.00
C82    C     0.98659   0.17204   0.18431   0.00000  Uiso   1.00
C83    C     0.83576   0.02104   0.12455   0.00000  Uiso   1.00
C84    C     0.83090   0.31229   0.20878   0.00000  Uiso   1.00
C85    C     0.83584   0.31180   0.12468   0.00000  Uiso   1.00
C86    C     0.83083   0.02154   0.20866   0.00000  Uiso   1.00
C87    C     0.83341   0.29058   0.16680   0.00000  Uiso   1.00
C88    C     0.83326   0.04275   0.16654   0.00000  Uiso   1.00
C89    C     0.80163   0.14054   0.01993   0.00000  Uiso   1.00
C90    C     0.86504   0.19280   0.31341   0.00000  Uiso   1.00
C91    C     0.80176   0.14072   0.30390   0.00000  Uiso   1.00
C92    C     0.86490   0.19261   0.02944   0.00000  Uiso   1.00
Cu93   Cu    0.83333   0.16667   0.21355   0.00000  Uiso   1.00
Cu94   Cu    0.83333   0.16666   0.11978   0.00000  Uiso   1.00
H95    H     0.83779   0.03685   0.09167   0.00000  Uiso   1.00
H96    H     0.82888   0.29648   0.24166   0.00000  Uiso   1.00
H97    H     0.83789   0.29560   0.09183   0.00000  Uiso   1.00
H98    H     0.82877   0.03774   0.24150   0.00000  Uiso   1.00
H99    H     0.77656   0.11996   0.28149   0.00000  Uiso   1.00
H100   H     0.89011   0.21337   0.05184   0.00000  Uiso   1.00
N101   N     0.83335   0.16668   0.28403   0.00000  Uiso   1.00
N102   N     0.83332   0.16666   0.04931   0.00000  Uiso   1.00
O103   O     0.83333   0.10655   0.20625   0.00000  Uiso   1.00
O104   O     0.83334   0.22678   0.12709   0.00000  Uiso   1.00
O105   O     0.83333   0.10654   0.12706   0.00000  Uiso   1.00
O106   O     0.83334   0.22679   0.20628   0.00000  Uiso   1.00
O107   O     0.75828   0.16667   0.19712   0.00000  Uiso   1.00
O108   O     0.90839   0.16666   0.13621   0.00000  Uiso   1.00
O109   O     0.75828   0.16666   0.11793   0.00000  Uiso   1.00
O110   O     0.90839   0.16667   0.21540   0.00000  Uiso   1.00
Cl111  Cl    0.98668   0.13471   0.09667   0.00000  Uiso   1.00
Cl112  Cl    0.67999   0.19862   0.23666   0.00000  Uiso   1.00
Cl113  Cl    0.75978   0.10552   0.04182   0.00000  Uiso   1.00
Cl114  Cl    0.90689   0.22782   0.29151   0.00000  Uiso   1.00
C115   C     0.16660   0.42072   0.16656   0.00000  Uiso   1.00
C116   C     0.16673   0.57928   0.16678   0.00000  Uiso   1.00
C117   C     0.06809   0.49971   0.15478   0.00000  Uiso   1.00
C118   C     0.26524   0.50029   0.17855   0.00000  Uiso   1.00
C119   C     0.01341   0.49463   0.14902   0.00000  Uiso   1.00
C120   C     0.31993   0.50537   0.18431   0.00000  Uiso   1.00
C121   C     0.16909   0.35438   0.12455   0.00000  Uiso   1.00
C122   C     0.16424   0.64562   0.20878   0.00000  Uiso   1.00
C123   C     0.16917   0.64513   0.12468   0.00000  Uiso   1.00
C124   C     0.16416   0.35487   0.20866   0.00000  Uiso   1.00
C125   C     0.16674   0.62391   0.16680   0.00000  Uiso   1.00
C126   C     0.16659   0.37609   0.16654   0.00000  Uiso   1.00
C127   C     0.13496   0.47387   0.01993   0.00000  Uiso   1.00
C128   C     0.19837   0.52613   0.31341   0.00000  Uiso   1.00
C129   C     0.13510   0.47405   0.30390   0.00000  Uiso   1.00
C130   C     0.19824   0.52595   0.02944   0.00000  Uiso   1.00
Cu131  Cu    0.16667   0.50001   0.21355   0.00000  Uiso   1.00
Cu132  Cu    0.16667   0.49999   0.11978   0.00000  Uiso   1.00
H133   H     0.17112   0.37019   0.09167   0.00000  Uiso   1.00
H134   H     0.16221   0.62981   0.24166   0.00000  Uiso   1.00
H135   H     0.17123   0.62893   0.09183   0.00000  Uiso   1.00
H136   H     0.16211   0.37107   0.24150   0.00000  Uiso   1.00
H137   H     0.10989   0.45330   0.28149   0.00000  Uiso   1.00
H138   H     0.22344   0.54670   0.05184   0.00000  Uiso   1.00
N139   N     0.16668   0.50001   0.28403   0.00000  Uiso   1.00
N140   N     0.16665   0.49999   0.04931   0.00000  Uiso   1.00
O141   O     0.16666   0.43989   0.20625   0.00000  Uiso   1.00
O142   O     0.16667   0.56011   0.12709   0.00000  Uiso   1.00
O143   O     0.16666   0.43988   0.12706   0.00000  Uiso   1.00
O144   O     0.16667   0.56012   0.20628   0.00000  Uiso   1.00
O145   O     0.09161   0.50000   0.19712   0.00000  Uiso   1.00
O146   O     0.24172   0.50000   0.13621   0.00000  Uiso   1.00
O147   O     0.09161   0.49999   0.11793   0.00000  Uiso   1.00
O148   O     0.24172   0.50001   0.21540   0.00000  Uiso   1.00
Cl149  Cl    0.32001   0.46804   0.09667   0.00000  Uiso   1.00
Cl150  Cl    0.01332   0.53196   0.23666   0.00000  Uiso   1.00
Cl151  Cl    0.09311   0.43885   0.04182   0.00000  Uiso   1.00
Cl152  Cl    0.24022   0.56115   0.29151   0.00000  Uiso   1.00
C153   C     0.49994   0.42072   0.16656   0.00000  Uiso   1.00
C154   C     0.50006   0.57928   0.16678   0.00000  Uiso   1.00
C155   C     0.40142   0.49971   0.15478   0.00000  Uiso   1.00
C156   C     0.59858   0.50029   0.17855   0.00000  Uiso   1.00
C157   C     0.34674   0.49463   0.14902   0.00000  Uiso   1.00
C158   C     0.65326   0.50537   0.18431   0.00000  Uiso   1.00
C159   C     0.50243   0.35438   0.12455   0.00000  Uiso   1.00
C160   C     0.49757   0.64562   0.20878   0.00000  Uiso   1.00
C161   C     0.50251   0.64513   0.12468   0.00000  Uiso   1.00
C162   C     0.49749   0.35487   0.20866   0.00000  Uiso   1.00
C163   C     0.50008   0.62391   0.16680   0.00000  Uiso   1.00
C164   C     0.49992   0.37609   0.16654   0.00000  Uiso   1.00
C165   C     0.46829   0.47387   0.01993   0.00000  Uiso   1.00
C166   C     0.53171   0.52613   0.31341   0.00000  Uiso   1.00
C167   C     0.46843   0.47405   0.30390   0.00000  Uiso   1.00
C168   C     0.53157   0.52595   0.02944   0.00000  Uiso   1.00
Cu169  Cu    0.50000   0.50001   0.21355   0.00000  Uiso   1.00
Cu170  Cu    0.50000   0.49999   0.11978   0.00000  Uiso   1.00
H171   H     0.50445   0.37019   0.09167   0.00000  Uiso   1.00
H172   H     0.49555   0.62981   0.24166   0.00000  Uiso   1.00
H173   H     0.50456   0.62893   0.09183   0.00000  Uiso   1.00
H174   H     0.49544   0.37107   0.24150   0.00000  Uiso   1.00
H175   H     0.44322   0.45330   0.28149   0.00000  Uiso   1.00
H176   H     0.55677   0.54670   0.05184   0.00000  Uiso   1.00
N177   N     0.50001   0.50001   0.28403   0.00000  Uiso   1.00
N178   N     0.49999   0.49999   0.04931   0.00000  Uiso   1.00
O179   O     0.50000   0.43989   0.20625   0.00000  Uiso   1.00
O180   O     0.50000   0.56011   0.12709   0.00000  Uiso   1.00
O181   O     0.50000   0.43988   0.12706   0.00000  Uiso   1.00
O182   O     0.50000   0.56012   0.20628   0.00000  Uiso   1.00
O183   O     0.42495   0.50000   0.19712   0.00000  Uiso   1.00
O184   O     0.57505   0.50000   0.13621   0.00000  Uiso   1.00
O185   O     0.42494   0.49999   0.11793   0.00000  Uiso   1.00
O186   O     0.57506   0.50001   0.21540   0.00000  Uiso   1.00
Cl187  Cl    0.65334   0.46804   0.09667   0.00000  Uiso   1.00
Cl188  Cl    0.34666   0.53196   0.23666   0.00000  Uiso   1.00
Cl189  Cl    0.42644   0.43885   0.04182   0.00000  Uiso   1.00
Cl190  Cl    0.57356   0.56115   0.29151   0.00000  Uiso   1.00
C191   C     0.83327   0.42072   0.16656   0.00000  Uiso   1.00
C192   C     0.83340   0.57928   0.16678   0.00000  Uiso   1.00
C193   C     0.73476   0.49971   0.15478   0.00000  Uiso   1.00
C194   C     0.93191   0.50029   0.17855   0.00000  Uiso   1.00
C195   C     0.68007   0.49463   0.14902   0.00000  Uiso   1.00
C196   C     0.98659   0.50537   0.18431   0.00000  Uiso   1.00
C197   C     0.83576   0.35438   0.12455   0.00000  Uiso   1.00
C198   C     0.83090   0.64562   0.20878   0.00000  Uiso   1.00
C199   C     0.83584   0.64513   0.12468   0.00000  Uiso   1.00
C200   C     0.83083   0.35487   0.20866   0.00000  Uiso   1.00
C201   C     0.83341   0.62391   0.16680   0.00000  Uiso   1.00
C202   C     0.83326   0.37609   0.16654   0.00000  Uiso   1.00
C203   C     0.80163   0.47387   0.01993   0.00000  Uiso   1.00
C204   C     0.86504   0.52613   0.31341   0.00000  Uiso   1.00
C205   C     0.80176   0.47405   0.30390   0.00000  Uiso   1.00
C206   C     0.86490   0.52595   0.02944   0.00000  Uiso   1.00
Cu207  Cu    0.83333   0.50001   0.21355   0.00000  Uiso   1.00
Cu208  Cu    0.83333   0.49999   0.11978   0.00000  Uiso   1.00
H209   H     0.83779   0.37019   0.09167   0.00000  Uiso   1.00
H210   H     0.82888   0.62981   0.24166   0.00000  Uiso   1.00
H211   H     0.83789   0.62893   0.09183   0.00000  Uiso   1.00
H212   H     0.82877   0.37107   0.24150   0.00000  Uiso   1.00
H213   H     0.77656   0.45330   0.28149   0.00000  Uiso   1.00
H214   H     0.89011   0.54670   0.05184   0.00000  Uiso   1.00
N215   N     0.83335   0.50001   0.28403   0.00000  Uiso   1.00
N216   N     0.83332   0.49999   0.04931   0.00000  Uiso   1.00
O217   O     0.83333   0.43989   0.20625   0.00000  Uiso   1.00
O218   O     0.83334   0.56011   0.12709   0.00000  Uiso   1.00
O219   O     0.83333   0.43988   0.12706   0.00000  Uiso   1.00
O220   O     0.83334   0.56012   0.20628   0.00000  Uiso   1.00
O221   O     0.75828   0.50000   0.19712   0.00000  Uiso   1.00
O222   O     0.90839   0.50000   0.13621   0.00000  Uiso   1.00
O223   O     0.75828   0.49999   0.11793   0.00000  Uiso   1.00
O224   O     0.90839   0.50001   0.21540   0.00000  Uiso   1.00
Cl225  Cl    0.98668   0.46804   0.09667   0.00000  Uiso   1.00
Cl226  Cl    0.67999   0.53196   0.23666   0.00000  Uiso   1.00
Cl227  Cl    0.75978   0.43885   0.04182   0.00000  Uiso   1.00
Cl228  Cl    0.90689   0.56115   0.29151   0.00000  Uiso   1.00
C229   C     0.16660   0.75405   0.16656   0.00000  Uiso   1.00
C230   C     0.16673   0.91261   0.16678   0.00000  Uiso   1.00
C231   C     0.06809   0.83305   0.15478   0.00000  Uiso   1.00
C232   C     0.26524   0.83362   0.17855   0.00000  Uiso   1.00
C233   C     0.01341   0.82796   0.14902   0.00000  Uiso   1.00
C234   C     0.31993   0.83871   0.18431   0.00000  Uiso   1.00
C235   C     0.16909   0.68771   0.12455   0.00000  Uiso   1.00
C236   C     0.16424   0.97896   0.20878   0.00000  Uiso   1.00
C237   C     0.16917   0.97846   0.12468   0.00000  Uiso   1.00
C238   C     0.16416   0.68820   0.20866   0.00000  Uiso   1.00
C239   C     0.16674   0.95725   0.16680   0.00000  Uiso   1.00
C240   C     0.16659   0.70942   0.16654   0.00000  Uiso   1.00
C241   C     0.13496   0.80720   0.01993   0.00000  Uiso   1.00
C242   C     0.19837   0.85946   0.31341   0.00000  Uiso   1.00
C243   C     0.13510   0.80739   0.30390   0.00000  Uiso   1.00
C244   C     0.19824   0.85928   0.02944   0.00000  Uiso   1.00
Cu245  Cu    0.16667   0.83334   0.21355   0.00000  Uiso   1.00
Cu246  Cu    0.16667   0.83333   0.11978   0.00000  Uiso   1.00
H247   H     0.17112   0.70352   0.09167   0.00000  Uiso   1.00
H248   H     0.16221   0.96315   0.24166   0.00000  Uiso   1.00
H249   H     0.17123   0.96226   0.09183   0.00000  Uiso   1.00
H250   H     0.16211   0.70440   0.24150   0.00000  Uiso   1.00
H251   H     0.10989   0.78663   0.28149   0.00000  Uiso   1.00
H252   H     0.22344   0.88004   0.05184   0.00000  Uiso   1.00
N253   N     0.16668   0.83334   0.28403   0.00000  Uiso   1.00
N254   N     0.16665   0.83332   0.04931   0.00000  Uiso   1.00
O255   O     0.16666   0.77322   0.20625   0.00000  Uiso   1.00
O256   O     0.16667   0.89345   0.12709   0.00000  Uiso   1.00
O257   O     0.16666   0.77321   0.12706   0.00000  Uiso   1.00
O258   O     0.16667   0.89346   0.20628   0.00000  Uiso   1.00
O259   O     0.09161   0.83334   0.19712   0.00000  Uiso   1.00
O260   O     0.24172   0.83333   0.13621   0.00000  Uiso   1.00
O261   O     0.09161   0.83333   0.11793   0.00000  Uiso   1.00
O262   O     0.24172   0.83334   0.21540   0.00000  Uiso   1.00
Cl263  Cl    0.32001   0.80138   0.09667   0.00000  Uiso   1.00
Cl264  Cl    0.01332   0.86529   0.23666   0.00000  Uiso   1.00
Cl265  Cl    0.09311   0.77218   0.04182   0.00000  Uiso   1.00
Cl266  Cl    0.24022   0.89448   0.29151   0.00000  Uiso   1.00
C267   C     0.49994   0.75405   0.16656   0.00000  Uiso   1.00
C268   C     0.50006   0.91261   0.16678   0.00000  Uiso   1.00
C269   C     0.40142   0.83305   0.15478   0.00000  Uiso   1.00
C270   C     0.59858   0.83362   0.17855   0.00000  Uiso   1.00
C271   C     0.34674   0.82796   0.14902   0.00000  Uiso   1.00
C272   C     0.65326   0.83871   0.18431   0.00000  Uiso   1.00
C273   C     0.50243   0.68771   0.12455   0.00000  Uiso   1.00
C274   C     0.49757   0.97896   0.20878   0.00000  Uiso   1.00
C275   C     0.50251   0.97846   0.12468   0.00000  Uiso   1.00
C276   C     0.49749   0.68820   0.20866   0.00000  Uiso   1.00
C277   C     0.50008   0.95725   0.16680   0.00000  Uiso   1.00
C278   C     0.49992   0.70942   0.16654   0.00000  Uiso   1.00
C279   C     0.46829   0.80720   0.01993   0.00000  Uiso   1.00
C280   C     0.53171   0.85946   0.31341   0.00000  Uiso   1.00
C281   C     0.46843   0.80739   0.30390   0.00000  Uiso   1.00
C282   C     0.53157   0.85928   0.02944   0.00000  Uiso   1.00
Cu283  Cu    0.50000   0.83334   0.21355   0.00000  Uiso   1.00
Cu284  Cu    0.50000   0.83333   0.11978   0.00000  Uiso   1.00
H285   H     0.50445   0.70352   0.09167   0.00000  Uiso   1.00
H286   H     0.49555   0.96315   0.24166   0.00000  Uiso   1.00
H287   H     0.50456   0.96226   0.09183   0.00000  Uiso   1.00
H288   H     0.49544   0.70440   0.24150   0.00000  Uiso   1.00
H289   H     0.44322   0.78663   0.28149   0.00000  Uiso   1.00
H290   H     0.55677   0.88004   0.05184   0.00000  Uiso   1.00
N291   N     0.50001   0.83334   0.28403   0.00000  Uiso   1.00
N292   N     0.49999   0.83332   0.04931   0.00000  Uiso   1.00
O293   O     0.50000   0.77322   0.20625   0.00000  Uiso   1.00
O294   O     0.50000   0.89345   0.12709   0.00000  Uiso   1.00
O295   O     0.50000   0.77321   0.12706   0.00000  Uiso   1.00
O296   O     0.50000   0.89346   0.20628   0.00000  Uiso   1.00
O297   O     0.42495   0.83334   0.19712   0.00000  Uiso   1.00
O298   O     0.57505   0.83333   0.13621   0.00000  Uiso   1.00
O299   O     0.42494   0.83333   0.11793   0.00000  Uiso   1.00
O300   O     0.57506   0.83334   0.21540   0.00000  Uiso   1.00
Cl301  Cl    0.65334   0.80138   0.09667   0.00000  Uiso   1.00
Cl302  Cl    0.34666   0.86529   0.23666   0.00000  Uiso   1.00
Cl303  Cl    0.42644   0.77218   0.04182   0.00000  Uiso   1.00
Cl304  Cl    0.57356   0.89448   0.29151   0.00000  Uiso   1.00
C305   C     0.83327   0.75405   0.16656   0.00000  Uiso   1.00
C306   C     0.83340   0.91261   0.16678   0.00000  Uiso   1.00
C307   C     0.73476   0.83305   0.15478   0.00000  Uiso   1.00
C308   C     0.93191   0.83362   0.17855   0.00000  Uiso   1.00
C309   C     0.68007   0.82796   0.14902   0.00000  Uiso   1.00
C310   C     0.98659   0.83871   0.18431   0.00000  Uiso   1.00
C311   C     0.83576   0.68771   0.12455   0.00000  Uiso   1.00
C312   C     0.83090   0.97896   0.20878   0.00000  Uiso   1.00
C313   C     0.83584   0.97846   0.12468   0.00000  Uiso   1.00
C314   C     0.83083   0.68820   0.20866   0.00000  Uiso   1.00
C315   C     0.83341   0.95725   0.16680   0.00000  Uiso   1.00
C316   C     0.83326   0.70942   0.16654   0.00000  Uiso   1.00
C317   C     0.80163   0.80720   0.01993   0.00000  Uiso   1.00
C318   C     0.86504   0.85946   0.31341   0.00000  Uiso   1.00
C319   C     0.80176   0.80739   0.30390   0.00000  Uiso   1.00
C320   C     0.86490   0.85928   0.02944   0.00000  Uiso   1.00
Cu321  Cu    0.83333   0.83334   0.21355   0.00000  Uiso   1.00
Cu322  Cu    0.83333   0.83333   0.11978   0.00000  Uiso   1.00
H323   H     0.83779   0.70352   0.09167   0.00000  Uiso   1.00
H324   H     0.82888   0.96315   0.24166   0.00000  Uiso   1.00
H325   H     0.83789   0.96226   0.09183   0.00000  Uiso   1.00
H326   H     0.82877   0.70440   0.24150   0.00000  Uiso   1.00
H327   H     0.77656   0.78663   0.28149   0.00000  Uiso   1.00
H328   H     0.89011   0.88004   0.05184   0.00000  Uiso   1.00
N329   N     0.83335   0.83334   0.28403   0.00000  Uiso   1.00
N330   N     0.83332   0.83332   0.04931   0.00000  Uiso   1.00
O331   O     0.83333   0.77322   0.20625   0.00000  Uiso   1.00
O332   O     0.83334   0.89345   0.12709   0.00000  Uiso   1.00
O333   O     0.83333   0.77321   0.12706   0.00000  Uiso   1.00
O334   O     0.83334   0.89346   0.20628   0.00000  Uiso   1.00
O335   O     0.75828   0.83334   0.19712   0.00000  Uiso   1.00
O336   O     0.90839   0.83333   0.13621   0.00000  Uiso   1.00
O337   O     0.75828   0.83333   0.11793   0.00000  Uiso   1.00
O338   O     0.90839   0.83334   0.21540   0.00000  Uiso   1.00
Cl339  Cl    0.98668   0.80138   0.09667   0.00000  Uiso   1.00
Cl340  Cl    0.67999   0.86529   0.23666   0.00000  Uiso   1.00
Cl341  Cl    0.75978   0.77218   0.04182   0.00000  Uiso   1.00
Cl342  Cl    0.90689   0.89448   0.29151   0.00000  Uiso   1.00
C343   C     0.16660   0.08739   0.49989   0.00000  Uiso   1.00
C344   C     0.16673   0.24595   0.50011   0.00000  Uiso   1.00
C345   C     0.06809   0.16638   0.48812   0.00000  Uiso   1.00
C346   C     0.26524   0.16695   0.51188   0.00000  Uiso   1.00
C347   C     0.01341   0.16129   0.48235   0.00000  Uiso   1.00
C348   C     0.31993   0.17204   0.51765   0.00000  Uiso   1.00
C349   C     0.16909   0.02104   0.45788   0.00000  Uiso   1.00
C350   C     0.16424   0.31229   0.54211   0.00000  Uiso   1.00
C351   C     0.16917   0.31180   0.45801   0.00000  Uiso   1.00
C352   C     0.16416   0.02154   0.54199   0.00000  Uiso   1.00
C353   C     0.16674   0.29058   0.50013   0.00000  Uiso   1.00
C354   C     0.16659   0.04275   0.49987   0.00000  Uiso   1.00
C355   C     0.13496   0.14054   0.35326   0.00000  Uiso   1.00
C356   C     0.19837   0.19280   0.64674   0.00000  Uiso   1.00
C357   C     0.13510   0.14072   0.63723   0.00000  Uiso   1.00
C358   C     0.19824   0.19261   0.36277   0.00000  Uiso   1.00
Cu359  Cu    0.16667   0.16667   0.54689   0.00000  Uiso   1.00
Cu360  Cu    0.16667   0.16666   0.45311   0.00000  Uiso   1.00
H361   H     0.17112   0.03685   0.42501   0.00000  Uiso   1.00
H362   H     0.16221   0.29648   0.57499   0.00000  Uiso   1.00
H363   H     0.17123   0.29560   0.42516   0.00000  Uiso   1.00
H364   H     0.16211   0.03774   0.57484   0.00000  Uiso   1.00
H365   H     0.10989   0.11996   0.61482   0.00000  Uiso   1.00
H366   H     0.22344   0.21337   0.38518   0.00000  Uiso   1.00
N367   N     0.16668   0.16668   0.61736   0.00000  Uiso   1.00
N368   N     0.16665   0.16666   0.38264   0.00000  Uiso   1.00
O369   O     0.16666   0.10655   0.53958   0.00000  Uiso   1.00
O370   O     0.16667   0.22678   0.46042   0.00000  Uiso   1.00
O371   O     0.16666   0.10654   0.46039   0.00000  Uiso   1.00
O372   O     0.16667   0.22679   0.53961   0.00000  Uiso   1.00
O373   O     0.09161   0.16667   0.53046   0.00000  Uiso   1.00
O374   O     0.24172   0.16666   0.46954   0.00000  Uiso   1.00
O375   O     0.09161   0.16666   0.45127   0.00000  Uiso   1.00
O376   O     0.24172   0.16667   0.54873   0.00000  Uiso   1.00
Cl377  Cl    0.32001   0.13471   0.43000   0.00000  Uiso   1.00
Cl378  Cl    0.01332   0.19862   0.57000   0.00000  Uiso   1.00
Cl379  Cl    0.09311   0.10552   0.37515   0.00000  Uiso   1.00
Cl380  Cl    0.24022   0.22782   0.62485   0.00000  Uiso   1.00
C381   C     0.49994   0.08739   0.49989   0.00000  Uiso   1.00
C382   C     0.50006   0.24595   0.50011   0.00000  Uiso   1.00
C383   C     0.40142   0.16638   0.48812   0.00000  Uiso   1.00
C384   C     0.59858   0.16695   0.51188   0.00000  Uiso   1.00
C385   C     0.34674   0.16129   0.48235   0.00000  Uiso   1.00
C386   C     0.65326   0.17204   0.51765   0.00000  Uiso   1.00
C387   C     0.50243   0.02104   0.45788   0.00000  Uiso   1.00
C388   C     0.49757   0.31229   0.54211   0.00000  Uiso   1.00
C389   C     0.50251   0.31180   0.45801   0.00000  Uiso   1.00
C390   C     0.49749   0.02154   0.54199   0.00000  Uiso   1.00
C391   C     0.50008   0.29058   0.50013   0.00000  Uiso   1.00
C392   C     0.49992   0.04275   0.49987   0.00000  Uiso   1.00
C393   C     0.46829   0.14054   0.35326   0.00000  Uiso   1.00
C394   C     0.53171   0.19280   0.64674   0.00000  Uiso   1.00
C395   C     0.46843   0.14072   0.63723   0.00000  Uiso   1.00
C396   C     0.53157   0.19261   0.36277   0.00000  Uiso   1.00
Cu397  Cu    0.50000   0.16667   0.54689   0.00000  Uiso   1.00
Cu398  Cu    0.50000   0.16666   0.45311   0.00000  Uiso   1.00
H399   H     0.50445   0.03685   0.42501   0.00000  Uiso   1.00
H400   H     0.49555   0.29648   0.57499   0.00000  Uiso   1.00
H401   H     0.50456   0.29560   0.42516   0.00000  Uiso   1.00
H402   H     0.49544   0.03774   0.57484   0.00000  Uiso   1.00
H403   H     0.44322   0.11996   0.61482   0.00000  Uiso   1.00
H404   H     0.55677   0.21337   0.38518   0.00000  Uiso   1.00
N405   N     0.50001   0.16668   0.61736   0.00000  Uiso   1.00
N406   N     0.49999   0.16666   0.38264   0.00000  Uiso   1.00
O407   O     0.50000   0.10655   0.53958   0.00000  Uiso   1.00
O408   O     0.50000   0.22678   0.46042   0.00000  Uiso   1.00
O409   O     0.50000   0.10654   0.46039   0.00000  Uiso   1.00
O410   O     0.50000   0.22679   0.53961   0.00000  Uiso   1.00
O411   O     0.42495   0.16667   0.53046   0.00000  Uiso   1.00
O412   O     0.57505   0.16666   0.46954   0.00000  Uiso   1.00
O413   O     0.42494   0.16666   0.45127   0.00000  Uiso   1.00
O414   O     0.57506   0.16667   0.54873   0.00000  Uiso   1.00
Cl415  Cl    0.65334   0.13471   0.43000   0.00000  Uiso   1.00
Cl416  Cl    0.34666   0.19862   0.57000   0.00000  Uiso   1.00
Cl417  Cl    0.42644   0.10552   0.37515   0.00000  Uiso   1.00
Cl418  Cl    0.57356   0.22782   0.62485   0.00000  Uiso   1.00
C419   C     0.83327   0.08739   0.49989   0.00000  Uiso   1.00
C420   C     0.83340   0.24595   0.50011   0.00000  Uiso   1.00
C421   C     0.73476   0.16638   0.48812   0.00000  Uiso   1.00
C422   C     0.93191   0.16695   0.51188   0.00000  Uiso   1.00
C423   C     0.68007   0.16129   0.48235   0.00000  Uiso   1.00
C424   C     0.98659   0.17204   0.51765   0.00000  Uiso   1.00
C425   C     0.83576   0.02104   0.45788   0.00000  Uiso   1.00
C426   C     0.83090   0.31229   0.54211   0.00000  Uiso   1.00
C427   C     0.83584   0.31180   0.45801   0.00000  Uiso   1.00
C428   C     0.83083   0.02154   0.54199   0.00000  Uiso   1.00
C429   C     0.83341   0.29058   0.50013   0.00000  Uiso   1.00
C430   C     0.83326   0.04275   0.49987   0.00000  Uiso   1.00
C431   C     0.80163   0.14054   0.35326   0.00000  Uiso   1.00
C432   C     0.86504   0.19280   0.64674   0.00000  Uiso   1.00
C433   C     0.80176   0.14072   0.63723   0.00000  Uiso   1.00
C434   C     0.86490   0.19261   0.36277   0.00000  Uiso   1.00
Cu435  Cu    0.83333   0.16667   0.54689   0.00000  Uiso   1.00
Cu436  Cu    0.83333   0.16666   0.45311   0.00000  Uiso   1.00
H437   H     0.83779   0.03685   0.42501   0.00000  Uiso   1.00
H438   H     0.82888   0.29648   0.57499   0.00000  Uiso   1.00
H439   H     0.83789   0.29560   0.42516   0.00000  Uiso   1.00
H440   H     0.82877   0.03774   0.57484   0.00000  Uiso   1.00
H441   H     0.77656   0.11996   0.61482   0.00000  Uiso   1.00
H442   H     0.89011   0.21337   0.38518   0.00000  Uiso   1.00
N443   N     0.83335   0.16668   0.61736   0.00000  Uiso   1.00
N444   N     0.83332   0.16666   0.38264   0.00000  Uiso   1.00
O445   O     0.83333   0.10655   0.53958   0.00000  Uiso   1.00
O446   O     0.83334   0.22678   0.46042   0.00000  Uiso   1.00
O447   O     0.83333   0.10654   0.46039   0.00000  Uiso   1.00
O448   O     0.83334   0.22679   0.53961   0.00000  Uiso   1.00
O449   O     0.75828   0.16667   0.53046   0.00000  Uiso   1.00
O450   O     0.90839   0.16666   0.46954   0.00000  Uiso   1.00
O451   O     0.75828   0.16666   0.45127   0.00000  Uiso   1.00
O452   O     0.90839   0.16667   0.54873   0.00000  Uiso   1.00
Cl453  Cl    0.98668   0.13471   0.43000   0.00000  Uiso   1.00
Cl454  Cl    0.67999   0.19862   0.57000   0.00000  Uiso   1.00
Cl455  Cl    0.75978   0.10552   0.37515   0.00000  Uiso   1.00
Cl456  Cl    0.90689   0.22782   0.62485   0.00000  Uiso   1.00
C457   C     0.16660   0.42072   0.49989   0.00000  Uiso   1.00
C458   C     0.16673   0.57928   0.50011   0.00000  Uiso   1.00
C459   C     0.06809   0.49971   0.48812   0.00000  Uiso   1.00
C460   C     0.26524   0.50029   0.51188   0.00000  Uiso   1.00
C461   C     0.01341   0.49463   0.48235   0.00000  Uiso   1.00
C462   C     0.31993   0.50537   0.51765   0.00000  Uiso   1.00
C463   C     0.16909   0.35438   0.45788   0.00000  Uiso   1.00
C464   C     0.16424   0.64562   0.54211   0.00000  Uiso   1.00
C465   C     0.16917   0.64513   0.45801   0.00000  Uiso   1.00
C466   C     0.16416   0.35487   0.54199   0.00000  Uiso   1.00
C467   C     0.16674   0.62391   0.50013   0.00000  Uiso   1.00
C468   C     0.16659   0.37609   0.49987   0.00000  Uiso   1.00
C469   C     0.13496   0.47387   0.35326   0.00000  Uiso   1.00
C470   C     0.19837   0.52613   0.64674   0.00000  Uiso   1.00
C471   C     0.13510   0.47405   0.63723   0.00000  Uiso   1.00
C472   C     0.19824   0.52595   0.36277   0.00000  Uiso   1.00
Cu473  Cu    0.16667   0.50001   0.54689   0.00000  Uiso   1.00
Cu474  Cu    0.16667   0.49999   0.45311   0.00000  Uiso   1.00
H475   H     0.17112   0.37019   0.42501   0.00000  Uiso   1.00
H476   H     0.16221   0.62981   0.57499   0.00000  Uiso   1.00
H477   H     0.17123   0.62893   0.42516   0.00000  Uiso   1.00
H478   H     0.16211   0.37107   0.57484   0.00000  Uiso   1.00
H479   H     0.10989   0.45330   0.61482   0.00000  Uiso   1.00
H480   H     0.22344   0.54670   0.38518   0.00000  Uiso   1.00
N481   N     0.16668   0.50001   0.61736   0.00000  Uiso   1.00
N482   N     0.16665   0.49999   0.38264   0.00000  Uiso   1.00
O483   O     0.16666   0.43989   0.53958   0.00000  Uiso   1.00
O484   O     0.16667   0.56011   0.46042   0.00000  Uiso   1.00
O485   O     0.16666   0.43988   0.46039   0.00000  Uiso   1.00
O486   O     0.16667   0.56012   0.53961   0.00000  Uiso   1.00
O487   O     0.09161   0.50000   0.53046   0.00000  Uiso   1.00
O488   O     0.24172   0.50000   0.46954   0.00000  Uiso   1.00
O489   O     0.09161   0.49999   0.45127   0.00000  Uiso   1.00
O490   O     0.24172   0.50001   0.54873   0.00000  Uiso   1.00
Cl491  Cl    0.32001   0.46804   0.43000   0.00000  Uiso   1.00
Cl492  Cl    0.01332   0.53196   0.57000   0.00000  Uiso   1.00
Cl493  Cl    0.09311   0.43885   0.37515   0.00000  Uiso   1.00
Cl494  Cl    0.24022   0.56115   0.62485   0.00000  Uiso   1.00
C495   C     0.49994   0.42072   0.49989   0.00000  Uiso   1.00
C496   C     0.50006   0.57928   0.50011   0.00000  Uiso   1.00
C497   C     0.40142   0.49971   0.48812   0.00000  Uiso   1.00
C498   C     0.59858   0.50029   0.51188   0.00000  Uiso   1.00
C499   C     0.34674   0.49463   0.48235   0.00000  Uiso   1.00
C500   C     0.65326   0.50537   0.51765   0.00000  Uiso   1.00
C501   C     0.50243   0.35438   0.45788   0.00000  Uiso   1.00
C502   C     0.49757   0.64562   0.54211   0.00000  Uiso   1.00
C503   C     0.50251   0.64513   0.45801   0.00000  Uiso   1.00
C504   C     0.49749   0.35487   0.54199   0.00000  Uiso   1.00
C505   C     0.50008   0.62391   0.50013   0.00000  Uiso   1.00
C506   C     0.49992   0.37609   0.49987   0.00000  Uiso   1.00
C507   C     0.46829   0.47387   0.35326   0.00000  Uiso   1.00
C508   C     0.53171   0.52613   0.64674   0.00000  Uiso   1.00
C509   C     0.46843   0.47405   0.63723   0.00000  Uiso   1.00
C510   C     0.53157   0.52595   0.36277   0.00000  Uiso   1.00
Cu511  Cu    0.50000   0.50001   0.54689   0.00000  Uiso   1.00
Cu512  Cu    0.50000   0.49999   0.45311   0.00000  Uiso   1.00
H513   H     0.50445   0.37019   0.42501   0.00000  Uiso   1.00
H514   H     0.49555   0.62981   0.57499   0.00000  Uiso   1.00
H515   H     0.50456   0.62893   0.42516   0.00000  Uiso   1.00
H516   H     0.49544   0.37107   0.57484   0.00000  Uiso   1.00
H517   H     0.44322   0.45330   0.61482   0.00000  Uiso   1.00
H518   H     0.55677   0.54670   0.38518   0.00000  Uiso   1.00
N519   N     0.50001   0.50001   0.61736   0.00000  Uiso   1.00
N520   N     0.49999   0.49999   0.38264   0.00000  Uiso   1.00
O521   O     0.50000   0.43989   0.53958   0.00000  Uiso   1.00
O522   O     0.50000   0.56011   0.46042   0.00000  Uiso   1.00
O523   O     0.50000   0.43988   0.46039   0.00000  Uiso   1.00
O524   O     0.50000   0.56012   0.53961   0.00000  Uiso   1.00
O525   O     0.42495   0.50000   0.53046   0.00000  Uiso   1.00
O526   O     0.57505   0.50000   0.46954   0.00000  Uiso   1.00
O527   O     0.42494   0.49999   0.45127   0.00000  Uiso   1.00
O528   O     0.57506   0.50001   0.54873   0.00000  Uiso   1.00
Cl529  Cl    0.65334   0.46804   0.43000   0.00000  Uiso   1.00
Cl530  Cl    0.34666   0.53196   0.57000   0.00000  Uiso   1.00
Cl531  Cl    0.42644   0.43885   0.37515   0.00000  Uiso   1.00
Cl532  Cl    0.57356   0.56115   0.62485   0.00000  Uiso   1.00
C533   C     0.83327   0.42072   0.49989   0.00000  Uiso   1.00
C534   C     0.83340   0.57928   0.50011   0.00000  Uiso   1.00
C535   C     0.73476   0.49971   0.48812   0.00000  Uiso   1.00
C536   C     0.93191   0.50029   0.51188   0.00000  Uiso   1.00
C537   C     0.68007   0.49463   0.48235   0.00000  Uiso   1.00
C538   C     0.98659   0.50537   0.51765   0.00000  Uiso   1.00
C539   C     0.83576   0.35438   0.45788   0.00000  Uiso   1.00
C540   C     0.83090   0.64562   0.54211   0.00000  Uiso   1.00
C541   C     0.83584   0.64513   0.45801   0.00000  Uiso   1.00
C542   C     0.83083   0.35487   0.54199   0.00000  Uiso   1.00
C543   C     0.83341   0.62391   0.50013   0.00000  Uiso   1.00
C544   C     0.83326   0.37609   0.49987   0.00000  Uiso   1.00
C545   C     0.80163   0.47387   0.35326   0.00000  Uiso   1.00
C546   C     0.86504   0.52613   0.64674   0.00000  Uiso   1.00
C547   C     0.80176   0.47405   0.63723   0.00000  Uiso   1.00
C548   C     0.86490   0.52595   0.36277   0.00000  Uiso   1.00
Cu549  Cu    0.83333   0.50001   0.54689   0.00000  Uiso   1.00
Cu550  Cu    0.83333   0.49999   0.45311   0.00000  Uiso   1.00
H551   H     0.83779   0.37019   0.42501   0.00000  Uiso   1.00
H552   H     0.82888   0.62981   0.57499   0.00000  Uiso   1.00
H553   H     0.83789   0.62893   0.42516   0.00000  Uiso   1.00
H554   H     0.82877   0.37107   0.57484   0.00000  Uiso   1.00
H555   H     0.77656   0.45330   0.61482   0.00000  Uiso   1.00
H556   H     0.89011   0.54670   0.38518   0.00000  Uiso   1.00
N557   N     0.83335   0.50001   0.61736   0.00000  Uiso   1.00
N558   N     0.83332   0.49999   0.38264   0.00000  Uiso   1.00
O559   O     0.83333   0.43989   0.53958   0.00000  Uiso   1.00
O560   O     0.83334   0.56011   0.46042   0.00000  Uiso   1.00
O561   O     0.83333   0.43988   0.46039   0.00000  Uiso   1.00
O562   O     0.83334   0.56012   0.53961   0.00000  Uiso   1.00
O563   O     0.75828   0.50000   0.53046   0.00000  Uiso   1.00
O564   O     0.90839   0.50000   0.46954   0.00000  Uiso   1.00
O565   O     0.75828   0.49999   0.45127   0.00000  Uiso   1.00
O566   O     0.90839   0.50001   0.54873   0.00000  Uiso   1.00
Cl567  Cl    0.98668   0.46804   0.43000   0.00000  Uiso   1.00
Cl568  Cl    0.67999   0.53196   0.57000   0.00000  Uiso   1.00
Cl569  Cl    0.75978   0.43885   0.37515   0.00000  Uiso   1.00
Cl570  Cl    0.90689   0.56115   0.62485   0.00000  Uiso   1.00
C571   C     0.16660   0.75405   0.49989   0.00000  Uiso   1.00
C572   C     0.16673   0.91261   0.50011   0.00000  Uiso   1.00
C573   C     0.06809   0.83305   0.48812   0.00000  Uiso   1.00
C574   C     0.26524   0.83362   0.51188   0.00000  Uiso   1.00
C575   C     0.01341   0.82796   0.48235   0.00000  Uiso   1.00
C576   C     0.31993   0.83871   0.51765   0.00000  Uiso   1.00
C577   C     0.16909   0.68771   0.45788   0.00000  Uiso   1.00
C578   C     0.16424   0.97896   0.54211   0.00000  Uiso   1.00
C579   C     0.16917   0.97846   0.45801   0.00000  Uiso   1.00
C580   C     0.16416   0.68820   0.54199   0.00000  Uiso   1.00
C581   C     0.16674   0.95725   0.50013   0.00000  Uiso   1.00
C582   C     0.16659   0.70942   0.49987   0.00000  Uiso   1.00
C583   C     0.13496   0.80720   0.35326   0.00000  Uiso   1.00
C584   C     0.19837   0.85946   0.64674   0.00000  Uiso   1.00
C585   C     0.13510   0.80739   0.63723   0.00000  Uiso   1.00
C586   C     0.19824   0.85928   0.36277   0.00000  Uiso   1.00
Cu587  Cu    0.16667   0.83334   0.54689   0.00000  Uiso   1.00
Cu588  Cu    0.16667   0.83333   0.45311   0.00000  Uiso   1.00
H589   H     0.17112   0.70352   0.42501   0.00000  Uiso   1.00
H590   H     0.16221   0.96315   0.57499   0.00000  Uiso   1.00
H591   H     0.17123   0.96226   0.42516   0.00000  Uiso   1.00
H592   H     0.16211   0.70440   0.57484   0.00000  Uiso   1.00
H593   H     0.10989   0.78663   0.61482   0.00000  Uiso   1.00
H594   H     0.22344   0.88004   0.38518   0.00000  Uiso   1.00
N595   N     0.16668   0.83334   0.61736   0.00000  Uiso   1.00
N596   N     0.16665   0.83332   0.38264   0.00000  Uiso   1.00
O597   O     0.16666   0.77322   0.53958   0.00000  Uiso   1.00
O598   O     0.16667   0.89345   0.46042   0.00000  Uiso   1.00
O599   O     0.16666   0.77321   0.46039   0.00000  Uiso   1.00
O600   O     0.16667   0.89346   0.53961   0.00000  Uiso   1.00
O601   O     0.09161   0.83334   0.53046   0.00000  Uiso   1.00
O602   O     0.24172   0.83333   0.46954   0.00000  Uiso   1.00
O603   O     0.09161   0.83333   0.45127   0.00000  Uiso   1.00
O604   O     0.24172   0.83334   0.54873   0.00000  Uiso   1.00
Cl605  Cl    0.32001   0.80138   0.43000   0.00000  Uiso   1.00
Cl606  Cl    0.01332   0.86529   0.57000   0.00000  Uiso   1.00
Cl607  Cl    0.09311   0.77218   0.37515   0.00000  Uiso   1.00
Cl608  Cl    0.24022   0.89448   0.62485   0.00000  Uiso   1.00
C609   C     0.49994   0.75405   0.49989   0.00000  Uiso   1.00
C610   C     0.50006   0.91261   0.50011   0.00000  Uiso   1.00
C611   C     0.40142   0.83305   0.48812   0.00000  Uiso   1.00
C612   C     0.59858   0.83362   0.51188   0.00000  Uiso   1.00
C613   C     0.34674   0.82796   0.48235   0.00000  Uiso   1.00
C614   C     0.65326   0.83871   0.51765   0.00000  Uiso   1.00
C615   C     0.50243   0.68771   0.45788   0.00000  Uiso   1.00
C616   C     0.49757   0.97896   0.54211   0.00000  Uiso   1.00
C617   C     0.50251   0.97846   0.45801   0.00000  Uiso   1.00
C618   C     0.49749   0.68820   0.54199   0.00000  Uiso   1.00
C619   C     0.50008   0.95725   0.50013   0.00000  Uiso   1.00
C620   C     0.49992   0.70942   0.49987   0.00000  Uiso   1.00
C621   C     0.46829   0.80720   0.35326   0.00000  Uiso   1.00
C622   C     0.53171   0.85946   0.64674   0.00000  Uiso   1.00
C623   C     0.46843   0.80739   0.63723   0.00000  Uiso   1.00
C624   C     0.53157   0.85928   0.36277   0.00000  Uiso   1.00
Cu625  Cu    0.50000   0.83334   0.54689   0.00000  Uiso   1.00
Cu626  Cu    0.50000   0.83333   0.45311   0.00000  Uiso   1.00
H627   H     0.50445   0.70352   0.42501   0.00000  Uiso   1.00
H628   H     0.49555   0.96315   0.57499   0.00000  Uiso   1.00
H629   H     0.50456   0.96226   0.42516   0.00000  Uiso   1.00
H630   H     0.49544   0.70440   0.57484   0.00000  Uiso   1.00
H631   H     0.44322   0.78663   0.61482   0.00000  Uiso   1.00
H632   H     0.55677   0.88004   0.38518   0.00000  Uiso   1.00
N633   N     0.50001   0.83334   0.61736   0.00000  Uiso   1.00
N634   N     0.49999   0.83332   0.38264   0.00000  Uiso   1.00
O635   O     0.50000   0.77322   0.53958   0.00000  Uiso   1.00
O636   O     0.50000   0.89345   0.46042   0.00000  Uiso   1.00
O637   O     0.50000   0.77321   0.46039   0.00000  Uiso   1.00
O638   O     0.50000   0.89346   0.53961   0.00000  Uiso   1.00
O639   O     0.42495   0.83334   0.53046   0.00000  Uiso   1.00
O640   O     0.57505   0.83333   0.46954   0.00000  Uiso   1.00
O641   O     0.42494   0.83333   0.45127   0.00000  Uiso   1.00
O642   O     0.57506   0.83334   0.54873   0.00000  Uiso   1.00
Cl643  Cl    0.65334   0.80138   0.43000   0.00000  Uiso   1.00
Cl644  Cl    0.34666   0.86529   0.57000   0.00000  Uiso   1.00
Cl645  Cl    0.42644   0.77218   0.37515   0.00000  Uiso   1.00
Cl646  Cl    0.57356   0.89448   0.62485   0.00000  Uiso   1.00
C647   C     0.83327   0.75405   0.49989   0.00000  Uiso   1.00
C648   C     0.83340   0.91261   0.50011   0.00000  Uiso   1.00
C649   C     0.73476   0.83305   0.48812   0.00000  Uiso   1.00
C650   C     0.93191   0.83362   0.51188   0.00000  Uiso   1.00
C651   C     0.68007   0.82796   0.48235   0.00000  Uiso   1.00
C652   C     0.98659   0.83871   0.51765   0.00000  Uiso   1.00
C653   C     0.83576   0.68771   0.45788   0.00000  Uiso   1.00
C654   C     0.83090   0.97896   0.54211   0.00000  Uiso   1.00
C655   C     0.83584   0.97846   0.45801   0.00000  Uiso   1.00
C656   C     0.83083   0.68820   0.54199   0.00000  Uiso   1.00
C657   C     0.83341   0.95725   0.50013   0.00000  Uiso   1.00
C658   C     0.83326   0.70942   0.49987   0.00000  Uiso   1.00
C659   C     0.80163   0.80720   0.35326   0.00000  Uiso   1.00
C660   C     0.86504   0.85946   0.64674   0.00000  Uiso   1.00
C661   C     0.80176   0.80739   0.63723   0.00000  Uiso   1.00
C662   C     0.86490   0.85928   0.36277   0.00000  Uiso   1.00
Cu663  Cu    0.83333   0.83334   0.54689   0.00000  Uiso   1.00
Cu664  Cu    0.83333   0.83333   0.45311   0.00000  Uiso   1.00
H665   H     0.83779   0.70352   0.42501   0.00000  Uiso   1.00
H666   H     0.82888   0.96315   0.57499   0.00000  Uiso   1.00
H667   H     0.83789   0.96226   0.42516   0.00000  Uiso   1.00
H668   H     0.82877   0.70440   0.57484   0.00000  Uiso   1.00
H669   H     0.77656   0.78663   0.61482   0.00000  Uiso   1.00
H670   H     0.89011   0.88004   0.38518   0.00000  Uiso   1.00
N671   N     0.83335   0.83334   0.61736   0.00000  Uiso   1.00
N672   N     0.83332   0.83332   0.38264   0.00000  Uiso   1.00
O673   O     0.83333   0.77322   0.53958   0.00000  Uiso   1.00
O674   O     0.83334   0.89345   0.46042   0.00000  Uiso   1.00
O675   O     0.83333   0.77321   0.46039   0.00000  Uiso   1.00
O676   O     0.83334   0.89346   0.53961   0.00000  Uiso   1.00
O677   O     0.75828   0.83334   0.53046   0.00000  Uiso   1.00
O678   O     0.90839   0.83333   0.46954   0.00000  Uiso   1.00
O679   O     0.75828   0.83333   0.45127   0.00000  Uiso   1.00
O680   O     0.90839   0.83334   0.54873   0.00000  Uiso   1.00
Cl681  Cl    0.98668   0.80138   0.43000   0.00000  Uiso   1.00
Cl682  Cl    0.67999   0.86529   0.57000   0.00000  Uiso   1.00
Cl683  Cl    0.75978   0.77218   0.37515   0.00000  Uiso   1.00
Cl684  Cl    0.90689   0.89448   0.62485   0.00000  Uiso   1.00
C685   C     0.16660   0.08739   0.83322   0.00000  Uiso   1.00
C686   C     0.16673   0.24595   0.83344   0.00000  Uiso   1.00
C687   C     0.06809   0.16638   0.82145   0.00000  Uiso   1.00
C688   C     0.26524   0.16695   0.84522   0.00000  Uiso   1.00
C689   C     0.01341   0.16129   0.81569   0.00000  Uiso   1.00
C690   C     0.31993   0.17204   0.85098   0.00000  Uiso   1.00
C691   C     0.16909   0.02104   0.79122   0.00000  Uiso   1.00
C692   C     0.16424   0.31229   0.87545   0.00000  Uiso   1.00
C693   C     0.16917   0.31180   0.79134   0.00000  Uiso   1.00
C694   C     0.16416   0.02154   0.87532   0.00000  Uiso   1.00
C695   C     0.16674   0.29058   0.83346   0.00000  Uiso   1.00
C696   C     0.16659   0.04275   0.83320   0.00000  Uiso   1.00
C697   C     0.13496   0.14054   0.68659   0.00000  Uiso   1.00
C698   C     0.19837   0.19280   0.98007   0.00000  Uiso   1.00
C699   C     0.13510   0.14072   0.97056   0.00000  Uiso   1.00
C700   C     0.19824   0.19261   0.69610   0.00000  Uiso   1.00
Cu701  Cu    0.16667   0.16667   0.88022   0.00000  Uiso   1.00
Cu702  Cu    0.16667   0.16666   0.78645   0.00000  Uiso   1.00
H703   H     0.17112   0.03685   0.75834   0.00000  Uiso   1.00
H704   H     0.16221   0.29648   0.90833   0.00000  Uiso   1.00
H705   H     0.17123   0.29560   0.75850   0.00000  Uiso   1.00
H706   H     0.16211   0.03774   0.90817   0.00000  Uiso   1.00
H707   H     0.10989   0.11996   0.94816   0.00000  Uiso   1.00
H708   H     0.22344   0.21337   0.71851   0.00000  Uiso   1.00
N709   N     0.16668   0.16668   0.95069   0.00000  Uiso   1.00
N710   N     0.16665   0.16666   0.71597   0.00000  Uiso   1.00
O711   O     0.16666   0.10655   0.87291   0.00000  Uiso   1.00
O712   O     0.16667   0.22678   0.79375   0.00000  Uiso   1.00
O713   O     0.16666   0.10654   0.79372   0.00000  Uiso   1.00
O714   O     0.16667   0.22679   0.87294   0.00000  Uiso   1.00
O715   O     0.09161   0.16667   0.86379   0.00000  Uiso   1.00
O716   O     0.24172   0.16666   0.80288   0.00000  Uiso   1.00
O717   O     0.09161   0.16666   0.78460   0.00000  Uiso   1.00
O718   O     0.24172   0.16667   0.88207   0.00000  Uiso   1.00
Cl719  Cl    0.32001   0.13471   0.76334   0.00000  Uiso   1.00
Cl720  Cl    0.01332   0.19862   0.90333   0.00000  Uiso   1.00
Cl721  Cl    0.09311   0.10552   0.70849   0.00000  Uiso   1.00
Cl722  Cl    0.24022   0.22782   0.95818   0.00000  Uiso   1.00
C723   C     0.49994   0.08739   0.83322   0.00000  Uiso   1.00
C724   C     0.50006   0.24595   0.83344   0.00000  Uiso   1.00
C725   C     0.40142   0.16638   0.82145   0.00000  Uiso   1.00
C726   C     0.59858   0.16695   0.84522   0.00000  Uiso   1.00
C727   C     0.34674   0.16129   0.81569   0.00000  Uiso   1.00
C728   C     0.65326   0.17204   0.85098   0.00000  Uiso   1.00
C729   C     0.50243   0.02104   0.79122   0.00000  Uiso   1.00
C730   C     0.49757   0.31229   0.87545   0.00000  Uiso   1.00
C731   C     0.50251   0.31180   0.79134   0.00000  Uiso   1.00
C732   C     0.49749   0.02154   0.87532   0.00000  Uiso   1.00
C733   C     0.50008   0.29058   0.83346   0.00000  Uiso   1.00
C734   C     0.49992   0.04275   0.83320   0.00000  Uiso   1.00
C735   C     0.46829   0.14054   0.68659   0.00000  Uiso   1.00
C736   C     0.53171   0.19280   0.98007   0.00000  Uiso   1.00
C737   C     0.46843   0.14072   0.97056   0.00000  Uiso   1.00
C738   C     0.53157   0.19261   0.69610   0.00000  Uiso   1.00
Cu739  Cu    0.50000   0.16667   0.88022   0.00000  Uiso   1.00
Cu740  Cu    0.50000   0.16666   0.78645   0.00000  Uiso   1.00
H741   H     0.50445   0.03685   0.75834   0.00000  Uiso   1.00
H742   H     0.49555   0.29648   0.90833   0.00000  Uiso   1.00
H743   H     0.50456   0.29560   0.75850   0.00000  Uiso   1.00
H744   H     0.49544   0.03774   0.90817   0.00000  Uiso   1.00
H745   H     0.44322   0.11996   0.94816   0.00000  Uiso   1.00
H746   H     0.55677   0.21337   0.71851   0.00000  Uiso   1.00
N747   N     0.50001   0.16668   0.95069   0.00000  Uiso   1.00
N748   N     0.49999   0.16666   0.71597   0.00000  Uiso   1.00
O749   O     0.50000   0.10655   0.87291   0.00000  Uiso   1.00
O750   O     0.50000   0.22678   0.79375   0.00000  Uiso   1.00
O751   O     0.50000   0.10654   0.79372   0.00000  Uiso   1.00
O752   O     0.50000   0.22679   0.87294   0.00000  Uiso   1.00
O753   O     0.42495   0.16667   0.86379   0.00000  Uiso   1.00
O754   O     0.57505   0.16666   0.80288   0.00000  Uiso   1.00
O755   O     0.42494   0.16666   0.78460   0.00000  Uiso   1.00
O756   O     0.57506   0.16667   0.88207   0.00000  Uiso   1.00
Cl757  Cl    0.65334   0.13471   0.76334   0.00000  Uiso   1.00
Cl758  Cl    0.34666   0.19862   0.90333   0.00000  Uiso   1.00
Cl759  Cl    0.42644   0.10552   0.70849   0.00000  Uiso   1.00
Cl760  Cl    0.57356   0.22782   0.95818   0.00000  Uiso   1.00
C761   C     0.83327   0.08739   0.83322   0.00000  Uiso   1.00
C762   C     0.83340   0.24595   0.83344   0.00000  Uiso   1.00
C763   C     0.73476   0.16638   0.82145   0.00000  Uiso   1.00
C764   C     0.93191   0.16695   0.84522   0.00000  Uiso   1.00
C765   C     0.68007   0.16129   0.81569   0.00000  Uiso   1.00
C766   C     0.98659   0.17204   0.85098   0.00000  Uiso   1.00
C767   C     0.83576   0.02104   0.79122   0.00000  Uiso   1.00
C768   C     0.83090   0.31229   0.87545   0.00000  Uiso   1.00
C769   C     0.83584   0.31180   0.79134   0.00000  Uiso   1.00
C770   C     0.83083   0.02154   0.87532   0.00000  Uiso   1.00
C771   C     0.83341   0.29058   0.83346   0.00000  Uiso   1.00
C772   C     0.83326   0.04275   0.83320   0.00000  Uiso   1.00
C773   C     0.80163   0.14054   0.68659   0.00000  Uiso   1.00
C774   C     0.86504   0.19280   0.98007   0.00000  Uiso   1.00
C775   C     0.80176   0.14072   0.97056   0.00000  Uiso   1.00
C776   C     0.86490   0.19261   0.69610   0.00000  Uiso   1.00
Cu777  Cu    0.83333   0.16667   0.88022   0.00000  Uiso   1.00
Cu778  Cu    0.83333   0.16666   0.78645   0.00000  Uiso   1.00
H779   H     0.83779   0.03685   0.75834   0.00000  Uiso   1.00
H780   H     0.82888   0.29648   0.90833   0.00000  Uiso   1.00
H781   H     0.83789   0.29560   0.75850   0.00000  Uiso   1.00
H782   H     0.82877   0.03774   0.90817   0.00000  Uiso   1.00
H783   H     0.77656   0.11996   0.94816   0.00000  Uiso   1.00
H784   H     0.89011   0.21337   0.71851   0.00000  Uiso   1.00
N785   N     0.83335   0.16668   0.95069   0.00000  Uiso   1.00
N786   N     0.83332   0.16666   0.71597   0.00000  Uiso   1.00
O787   O     0.83333   0.10655   0.87291   0.00000  Uiso   1.00
O788   O     0.83334   0.22678   0.79375   0.00000  Uiso   1.00
O789   O     0.83333   0.10654   0.79372   0.00000  Uiso   1.00
O790   O     0.83334   0.22679   0.87294   0.00000  Uiso   1.00
O791   O     0.75828   0.16667   0.86379   0.00000  Uiso   1.00
O792   O     0.90839   0.16666   0.80288   0.00000  Uiso   1.00
O793   O     0.75828   0.16666   0.78460   0.00000  Uiso   1.00
O794   O     0.90839   0.16667   0.88207   0.00000  Uiso   1.00
Cl795  Cl    0.98668   0.13471   0.76334   0.00000  Uiso   1.00
Cl796  Cl    0.67999   0.19862   0.90333   0.00000  Uiso   1.00
Cl797  Cl    0.75978   0.10552   0.70849   0.00000  Uiso   1.00
Cl798  Cl    0.90689   0.22782   0.95818   0.00000  Uiso   1.00
C799   C     0.16660   0.42072   0.83322   0.00000  Uiso   1.00
C800   C     0.16673   0.57928   0.83344   0.00000  Uiso   1.00
C801   C     0.06809   0.49971   0.82145   0.00000  Uiso   1.00
C802   C     0.26524   0.50029   0.84522   0.00000  Uiso   1.00
C803   C     0.01341   0.49463   0.81569   0.00000  Uiso   1.00
C804   C     0.31993   0.50537   0.85098   0.00000  Uiso   1.00
C805   C     0.16909   0.35438   0.79122   0.00000  Uiso   1.00
C806   C     0.16424   0.64562   0.87545   0.00000  Uiso   1.00
C807   C     0.16917   0.64513   0.79134   0.00000  Uiso   1.00
C808   C     0.16416   0.35487   0.87532   0.00000  Uiso   1.00
C809   C     0.16674   0.62391   0.83346   0.00000  Uiso   1.00
C810   C     0.16659   0.37609   0.83320   0.00000  Uiso   1.00
C811   C     0.13496   0.47387   0.68659   0.00000  Uiso   1.00
C812   C     0.19837   0.52613   0.98007   0.00000  Uiso   1.00
C813   C     0.13510   0.47405   0.97056   0.00000  Uiso   1.00
C814   C     0.19824   0.52595   0.69610   0.00000  Uiso   1.00
Cu815  Cu    0.16667   0.50001   0.88022   0.00000  Uiso   1.00
Cu816  Cu    0.16667   0.49999   0.78645   0.00000  Uiso   1.00
H817   H     0.17112   0.37019   0.75834   0.00000  Uiso   1.00
H818   H     0.16221   0.62981   0.90833   0.00000  Uiso   1.00
H819   H     0.17123   0.62893   0.75850   0.00000  Uiso   1.00
H820   H     0.16211   0.37107   0.90817   0.00000  Uiso   1.00
H821   H     0.10989   0.45330   0.94816   0.00000  Uiso   1.00
H822   H     0.22344   0.54670   0.71851   0.00000  Uiso   1.00
N823   N     0.16668   0.50001   0.95069   0.00000  Uiso   1.00
N824   N     0.16665   0.49999   0.71597   0.00000  Uiso   1.00
O825   O     0.16666   0.43989   0.87291   0.00000  Uiso   1.00
O826   O     0.16667   0.56011   0.79375   0.00000  Uiso   1.00
O827   O     0.16666   0.43988   0.79372   0.00000  Uiso   1.00
O828   O     0.16667   0.56012   0.87294   0.00000  Uiso   1.00
O829   O     0.09161   0.50000   0.86379   0.00000  Uiso   1.00
O830   O     0.24172   0.50000   0.80288   0.00000  Uiso   1.00
O831   O     0.09161   0.49999   0.78460   0.00000  Uiso   1.00
O832   O     0.24172   0.50001   0.88207   0.00000  Uiso   1.00
Cl833  Cl    0.32001   0.46804   0.76334   0.00000  Uiso   1.00
Cl834  Cl    0.01332   0.53196   0.90333   0.00000  Uiso   1.00
Cl835  Cl    0.09311   0.43885   0.70849   0.00000  Uiso   1.00
Cl836  Cl    0.24022   0.56115   0.95818   0.00000  Uiso   1.00
C837   C     0.49994   0.42072   0.83322   0.00000  Uiso   1.00
C838   C     0.50006   0.57928   0.83344   0.00000  Uiso   1.00
C839   C     0.40142   0.49971   0.82145   0.00000  Uiso   1.00
C840   C     0.59858   0.50029   0.84522   0.00000  Uiso   1.00
C841   C     0.34674   0.49463   0.81569   0.00000  Uiso   1.00
C842   C     0.65326   0.50537   0.85098   0.00000  Uiso   1.00
C843   C     0.50243   0.35438   0.79122   0.00000  Uiso   1.00
C844   C     0.49757   0.64562   0.87545   0.00000  Uiso   1.00
C845   C     0.50251   0.64513   0.79134   0.00000  Uiso   1.00
C846   C     0.49749   0.35487   0.87532   0.00000  Uiso   1.00
C847   C     0.50008   0.62391   0.83346   0.00000  Uiso   1.00
C848   C     0.49992   0.37609   0.83320   0.00000  Uiso   1.00
C849   C     0.46829   0.47387   0.68659   0.00000  Uiso   1.00
C850   C     0.53171   0.52613   0.98007   0.00000  Uiso   1.00
C851   C     0.46843   0.47405   0.97056   0.00000  Uiso   1.00
C852   C     0.53157   0.52595   0.69610   0.00000  Uiso   1.00
Cu853  Cu    0.50000   0.50001   0.88022   0.00000  Uiso   1.00
Cu854  Cu    0.50000   0.49999   0.78645   0.00000  Uiso   1.00
H855   H     0.50445   0.37019   0.75834   0.00000  Uiso   1.00
H856   H     0.49555   0.62981   0.90833   0.00000  Uiso   1.00
H857   H     0.50456   0.62893   0.75850   0.00000  Uiso   1.00
H858   H     0.49544   0.37107   0.90817   0.00000  Uiso   1.00
H859   H     0.44322   0.45330   0.94816   0.00000  Uiso   1.00
H860   H     0.55677   0.54670   0.71851   0.00000  Uiso   1.00
N861   N     0.50001   0.50001   0.95069   0.00000  Uiso   1.00
N862   N     0.49999   0.49999   0.71597   0.00000  Uiso   1.00
O863   O     0.50000   0.43989   0.87291   0.00000  Uiso   1.00
O864   O     0.50000   0.56011   0.79375   0.00000  Uiso   1.00
O865   O     0.50000   0.43988   0.79372   0.00000  Uiso   1.00
O866   O     0.50000   0.56012   0.87294   0.00000  Uiso   1.00
O867   O     0.42495   0.50000   0.86379   0.00000  Uiso   1.00
O868   O     0.57505   0.50000   0.80288   0.00000  Uiso   1.00
O869   O     0.42494   0.49999   0.78460   0.00000  Uiso   1.00
O870   O     0.57506   0.50001   0.88207   0.00000  Uiso   1.00
Cl871  Cl    0.65334   0.46804   0.76334   0.00000  Uiso   1.00
Cl872  Cl    0.34666   0.53196   0.90333   0.00000  Uiso   1.00
Cl873  Cl    0.42644   0.43885   0.70849   0.00000  Uiso   1.00
Cl874  Cl    0.57356   0.56115   0.95818   0.00000  Uiso   1.00
C875   C     0.83327   0.42072   0.83322   0.00000  Uiso   1.00
C876   C     0.83340   0.57928   0.83344   0.00000  Uiso   1.00
C877   C     0.73476   0.49971   0.82145   0.00000  Uiso   1.00
C878   C     0.93191   0.50029   0.84522   0.00000  Uiso   1.00
C879   C     0.68007   0.49463   0.81569   0.00000  Uiso   1.00
C880   C     0.98659   0.50537   0.85098   0.00000  Uiso   1.00
C881   C     0.83576   0.35438   0.79122   0.00000  Uiso   1.00
C882   C     0.83090   0.64562   0.87545   0.00000  Uiso   1.00
C883   C     0.83584   0.64513   0.79134   0.00000  Uiso   1.00
C884   C     0.83083   0.35487   0.87532   0.00000  Uiso   1.00
C885   C     0.83341   0.62391   0.83346   0.00000  Uiso   1.00
C886   C     0.83326   0.37609   0.83320   0.00000  Uiso   1.00
C887   C     0.80163   0.47387   0.68659   0.00000  Uiso   1.00
C888   C     0.86504   0.52613   0.98007   0.00000  Uiso   1.00
C889   C     0.80176   0.47405   0.97056   0.00000  Uiso   1.00
C890   C     0.86490   0.52595   0.69610   0.00000  Uiso   1.00
Cu891  Cu    0.83333   0.50001   0.88022   0.00000  Uiso   1.00
Cu892  Cu    0.83333   0.49999   0.78645   0.00000  Uiso   1.00
H893   H     0.83779   0.37019   0.75834   0.00000  Uiso   1.00
H894   H     0.82888   0.62981   0.90833   0.00000  Uiso   1.00
H895   H     0.83789   0.62893   0.75850   0.00000  Uiso   1.00
H896   H     0.82877   0.37107   0.90817   0.00000  Uiso   1.00
H897   H     0.77656   0.45330   0.94816   0.00000  Uiso   1.00
H898   H     0.89011   0.54670   0.71851   0.00000  Uiso   1.00
N899   N     0.83335   0.50001   0.95069   0.00000  Uiso   1.00
N900   N     0.83332   0.49999   0.71597   0.00000  Uiso   1.00
O901   O     0.83333   0.43989   0.87291   0.00000  Uiso   1.00
O902   O     0.83334   0.56011   0.79375   0.00000  Uiso   1.00
O903   O     0.83333   0.43988   0.79372   0.00000  Uiso   1.00
O904   O     0.83334   0.56012   0.87294   0.00000  Uiso   1.00
O905   O     0.75828   0.50000   0.86379   0.00000  Uiso   1.00
O906   O     0.90839   0.50000   0.80288   0.00000  Uiso   1.00
O907   O     0.75828   0.49999   0.78460   0.00000  Uiso   1.00
O908   O     0.90839   0.50001   0.88207   0.00000  Uiso   1.00
Cl909  Cl    0.98668   0.46804   0.76334   0.00000  Uiso   1.00
Cl910  Cl    0.67999   0.53196   0.90333   0.00000  Uiso   1.00
Cl911  Cl    0.75978   0.43885   0.70849   0.00000  Uiso   1.00
Cl912  Cl    0.90689   0.56115   0.95818   0.00000  Uiso   1.00
C913   C     0.16660   0.75405   0.83322   0.00000  Uiso   1.00
C914   C     0.16673   0.91261   0.83344   0.00000  Uiso   1.00
C915   C     0.06809   0.83305   0.82145   0.00000  Uiso   1.00
C916   C     0.26524   0.83362   0.84522   0.00000  Uiso   1.00
C917   C     0.01341   0.82796   0.81569   0.00000  Uiso   1.00
C918   C     0.31993   0.83871   0.85098   0.00000  Uiso   1.00
C919   C     0.16909   0.68771   0.79122   0.00000  Uiso   1.00
C920   C     0.16424   0.97896   0.87545   0.00000  Uiso   1.00
C921   C     0.16917   0.97846   0.79134   0.00000  Uiso   1.00
C922   C     0.16416   0.68820   0.87532   0.00000  Uiso   1.00
C923   C     0.16674   0.95725   0.83346   0.00000  Uiso   1.00
C924   C     0.16659   0.70942   0.83320   0.00000  Uiso   1.00
C925   C     0.13496   0.80720   0.68659   0.00000  Uiso   1.00
C926   C     0.19837   0.85946   0.98007   0.00000  Uiso   1.00
C927   C     0.13510   0.80739   0.97056   0.00000  Uiso   1.00
C928   C     0.19824   0.85928   0.69610   0.00000  Uiso   1.00
Cu929  Cu    0.16667   0.83334   0.88022   0.00000  Uiso   1.00
Cu930  Cu    0.16667   0.83333   0.78645   0.00000  Uiso   1.00
H931   H     0.17112   0.70352   0.75834   0.00000  Uiso   1.00
H932   H     0.16221   0.96315   0.90833   0.00000  Uiso   1.00
H933   H     0.17123   0.96226   0.75850   0.00000  Uiso   1.00
H934   H     0.16211   0.70440   0.90817   0.00000  Uiso   1.00
H935   H     0.10989   0.78663   0.94816   0.00000  Uiso   1.00
H936   H     0.22344   0.88004   0.71851   0.00000  Uiso   1.00
N937   N     0.16668   0.83334   0.95069   0.00000  Uiso   1.00
N938   N     0.16665   0.83332   0.71597   0.00000  Uiso   1.00
O939   O     0.16666   0.77322   0.87291   0.00000  Uiso   1.00
O940   O     0.16667   0.89345   0.79375   0.00000  Uiso   1.00
O941   O     0.16666   0.77321   0.79372   0.00000  Uiso   1.00
O942   O     0.16667   0.89346   0.87294   0.00000  Uiso   1.00
O943   O     0.09161   0.83334   0.86379   0.00000  Uiso   1.00
O944   O     0.24172   0.83333   0.80288   0.00000  Uiso   1.00
O945   O     0.09161   0.83333   0.78460   0.00000  Uiso   1.00
O946   O     0.24172   0.83334   0.88207   0.00000  Uiso   1.00
Cl947  Cl    0.32001   0.80138   0.76334   0.00000  Uiso   1.00
Cl948  Cl    0.01332   0.86529   0.90333   0.00000  Uiso   1.00
Cl949  Cl    0.09311   0.77218   0.70849   0.00000  Uiso   1.00
Cl950  Cl    0.24022   0.89448   0.95818   0.00000  Uiso   1.00
C951   C     0.49994   0.75405   0.83322   0.00000  Uiso   1.00
C952   C     0.50006   0.91261   0.83344   0.00000  Uiso   1.00
C953   C     0.40142   0.83305   0.82145   0.00000  Uiso   1.00
C954   C     0.59858   0.83362   0.84522   0.00000  Uiso   1.00
C955   C     0.34674   0.82796   0.81569   0.00000  Uiso   1.00
C956   C     0.65326   0.83871   0.85098   0.00000  Uiso   1.00
C957   C     0.50243   0.68771   0.79122   0.00000  Uiso   1.00
C958   C     0.49757   0.97896   0.87545   0.00000  Uiso   1.00
C959   C     0.50251   0.97846   0.79134   0.00000  Uiso   1.00
C960   C     0.49749   0.68820   0.87532   0.00000  Uiso   1.00
C961   C     0.50008   0.95725   0.83346   0.00000  Uiso   1.00
C962   C     0.49992   0.70942   0.83320   0.00000  Uiso   1.00
C963   C     0.46829   0.80720   0.68659   0.00000  Uiso   1.00
C964   C     0.53171   0.85946   0.98007   0.00000  Uiso   1.00
C965   C     0.46843   0.80739   0.97056   0.00000  Uiso   1.00
C966   C     0.53157   0.85928   0.69610   0.00000  Uiso   1.00
Cu967  Cu    0.50000   0.83334   0.88022   0.00000  Uiso   1.00
Cu968  Cu    0.50000   0.83333   0.78645   0.00000  Uiso   1.00
H969   H     0.50445   0.70352   0.75834   0.00000  Uiso   1.00
H970   H     0.49555   0.96315   0.90833   0.00000  Uiso   1.00
H971   H     0.50456   0.96226   0.75850   0.00000  Uiso   1.00
H972   H     0.49544   0.70440   0.90817   0.00000  Uiso   1.00
H973   H     0.44322   0.78663   0.94816   0.00000  Uiso   1.00
H974   H     0.55677   0.88004   0.71851   0.00000  Uiso   1.00
N975   N     0.50001   0.83334   0.95069   0.00000  Uiso   1.00
N976   N     0.49999   0.83332   0.71597   0.00000  Uiso   1.00
O977   O     0.50000   0.77322   0.87291   0.00000  Uiso   1.00
O978   O     0.50000   0.89345   0.79375   0.00000  Uiso   1.00
O979   O     0.50000   0.77321   0.79372   0.00000  Uiso   1.00
O980   O     0.50000   0.89346   0.87294   0.00000  Uiso   1.00
O981   O     0.42495   0.83334   0.86379   0.00000  Uiso   1.00
O982   O     0.57505   0.83333   0.80288   0.00000  Uiso   1.00
O983   O     0.42494   0.83333   0.78460   0.00000  Uiso   1.00
O984   O     0.57506   0.83334   0.88207   0.00000  Uiso   1.00
Cl985  Cl    0.65334   0.80138   0.76334   0.00000  Uiso   1.00
Cl986  Cl    0.34666   0.86529   0.90333   0.00000  Uiso   1.00
Cl987  Cl    0.42644   0.77218   0.70849   0.00000  Uiso   1.00
Cl988  Cl    0.57356   0.89448   0.95818   0.00000  Uiso   1.00
C989   C     0.83327   0.75405   0.83322   0.00000  Uiso   1.00
C990   C     0.83340   0.91261   0.83344   0.00000  Uiso   1.00
C991   C     0.73476   0.83305   0.82145   0.00000  Uiso   1.00
C992   C     0.93191   0.83362   0.84522   0.00000  Uiso   1.00
C993   C     0.68007   0.82796   0.81569   0.00000  Uiso   1.00
C994   C     0.98659   0.83871   0.85098   0.00000  Uiso   1.00
C995   C     0.83576   0.68771   0.79122   0.00000  Uiso   1.00
C996   C     0.83090   0.97896   0.87545   0.00000  Uiso   1.00
C997   C     0.83584   0.97846   0.79134   0.00000  Uiso   1.00
C998   C     0.83083   0.68820   0.87532   0.00000  Uiso   1.00
C999   C     0.83341   0.95725   0.83346   0.00000  Uiso   1.00
C1000  C     0.83326   0.70942   0.83320   0.00000  Uiso   1.00
C1001  C     0.80163   0.80720   0.68659   0.00000  Uiso   1.00
C1002  C     0.86504   0.85946   0.98007   0.00000  Uiso   1.00
C1003  C     0.80176   0.80739   0.97056   0.00000  Uiso   1.00
C1004  C     0.86490   0.85928   0.69610   0.00000  Uiso   1.00
Cu1005 Cu    0.83333   0.83334   0.88022   0.00000  Uiso   1.00
Cu1006 Cu    0.83333   0.83333   0.78645   0.00000  Uiso   1.00
H1007  H     0.83779   0.70352   0.75834   0.00000  Uiso   1.00
H1008  H     0.82888   0.96315   0.90833   0.00000  Uiso   1.00
H1009  H     0.83789   0.96226   0.75850   0.00000  Uiso   1.00
H1010  H     0.82877   0.70440   0.90817   0.00000  Uiso   1.00
H1011  H     0.77656   0.78663   0.94816   0.00000  Uiso   1.00
H1012  H     0.89011   0.88004   0.71851   0.00000  Uiso   1.00
N1013  N     0.83335   0.83334   0.95069   0.00000  Uiso   1.00
N1014  N     0.83332   0.83332   0.71597   0.00000  Uiso   1.00
O1015  O     0.83333   0.77322   0.87291   0.00000  Uiso   1.00
O1016  O     0.83334   0.89345   0.79375   0.00000  Uiso   1.00
O1017  O     0.83333   0.77321   0.79372   0.00000  Uiso   1.00
O1018  O     0.83334   0.89346   0.87294   0.00000  Uiso   1.00
O1019  O     0.75828   0.83334   0.86379   0.00000  Uiso   1.00
O1020  O     0.90839   0.83333   0.80288   0.00000  Uiso   1.00
O1021  O     0.75828   0.83333   0.78460   0.00000  Uiso   1.00
O1022  O     0.90839   0.83334   0.88207   0.00000  Uiso   1.00
Cl1023 Cl    0.98668   0.80138   0.76334   0.00000  Uiso   1.00
Cl1024 Cl    0.67999   0.86529   0.90333   0.00000  Uiso   1.00
Cl1025 Cl    0.75978   0.77218   0.70849   0.00000  Uiso   1.00
Cl1026 Cl    0.90689   0.89448   0.95818   0.00000  Uiso   1.00
loop_
_geom_bond_atom_site_label_1
_geom_bond_atom_site_label_2
_geom_bond_distance
_geom_bond_site_symmetry_2
_ccdc_geom_bond_type
C1     O29     1.295   .     A
C1     C12     1.450   .     S
C1     O27     1.292   .     A
C2     O30     1.295   .     A
C2     C11     1.450   .     S
C2     O28     1.292   .     A
C3     O31     1.283   .     A
C3     O33     1.297   .     A
C3     C5      1.437   .     S
C4     O34     1.297   .     A
C4     O32     1.283   .     A
C4     C6      1.437   .     S
C5     C82     1.359   1_455 S
C5     Cl111   1.778   1_455 S
C6     C43     1.359   .     S
C6     Cl74    1.778   .     S
C7     H19     1.083   .     S
C7     C12     1.400   .     A
C7     C237    1.383   1_545 S
C8     H20     1.083   .     S
C8     C11     1.400   .     A
C8     C124    1.383   .     S
C9     C11     1.402   .     A
C9     H21     1.083   .     S
C9     C121    1.383   .     S
C10    H22     1.083   .     S
C10    C12     1.402   .     A
C10    C236    1.383   1_545 S
C13    Cl37    1.754   .     S
C13    N26     1.379   .     A
C13    C699    1.414   1_554 S
C14    Cl38    1.754   .     S
C14    N25     1.379   .     A
C14    C358    1.414   .     S
C15    H23     1.082   .     S
C15    N25     1.360   .     A
C15    C355    1.414   .     S
C16    H24     1.082   .     S
C16    N26     1.360   .     A
C16    C698    1.414   1_554 S
Cu17   N25     2.018   .     S
Cu17   Cu18    2.686   .     S
Cu17   O30     1.966   .     S
Cu17   O31     1.972   .     S
Cu17   O34     1.976   .     S
Cu17   O27     1.963   .     S
Cu18   N26     2.018   .     S
Cu18   O29     1.966   .     S
Cu18   O33     1.976   .     S
Cu18   O32     1.972   .     S
Cu18   O28     1.963   .     S
Cl35   C43     1.778   .     S
Cl36   C82     1.778   1_455 S
C39    O67     1.295   .     A
C39    C50     1.450   .     S
C39    O65     1.292   .     A
C40    O68     1.295   .     A
C40    C49     1.450   .     S
C40    O66     1.292   .     A
C41    O69     1.283   .     A
C41    O71     1.297   .     A
C41    C43     1.437   .     S
C42    O72     1.297   .     A
C42    O70     1.283   .     A
C42    C44     1.437   .     S
C44    C81     1.359   .     S
C44    Cl112   1.778   .     S
C45    H57     1.083   .     S
C45    C50     1.400   .     A
C45    C275    1.383   1_545 S
C46    H58     1.083   .     S
C46    C49     1.400   .     A
C46    C162    1.383   .     S
C47    C49     1.402   .     A
C47    H59     1.083   .     S
C47    C159    1.383   .     S
C48    H60     1.083   .     S
C48    C50     1.402   .     A
C48    C274    1.383   1_545 S
C51    Cl75    1.754   .     S
C51    N64     1.379   .     A
C51    C737    1.414   1_554 S
C52    Cl76    1.754   .     S
C52    N63     1.379   .     A
C52    C396    1.414   .     S
C53    H61     1.082   .     S
C53    N63     1.360   .     A
C53    C393    1.414   .     S
C54    H62     1.082   .     S
C54    N64     1.360   .     A
C54    C736    1.414   1_554 S
Cu55   N63     2.018   .     S
Cu55   Cu56    2.686   .     S
Cu55   O68     1.966   .     S
Cu55   O69     1.972   .     S
Cu55   O72     1.976   .     S
Cu55   O65     1.963   .     S
Cu56   N64     2.018   .     S
Cu56   O67     1.966   .     S
Cu56   O71     1.976   .     S
Cu56   O70     1.972   .     S
Cu56   O66     1.963   .     S
Cl73   C81     1.778   .     S
C77    O105    1.295   .     A
C77    C88     1.450   .     S
C77    O103    1.292   .     A
C78    O106    1.295   .     A
C78    C87     1.450   .     S
C78    O104    1.292   .     A
C79    O107    1.283   .     A
C79    O109    1.297   .     A
C79    C81     1.437   .     S
C80    O110    1.297   .     A
C80    O108    1.283   .     A
C80    C82     1.437   .     S
C82    C5      1.359   1_655 S
C82    Cl36    1.778   1_655 S
C83    H95     1.083   .     S
C83    C88     1.400   .     A
C83    C313    1.383   1_545 S
C84    H96     1.083   .     S
C84    C87     1.400   .     A
C84    C200    1.383   .     S
C85    C87     1.402   .     A
C85    H97     1.083   .     S
C85    C197    1.383   .     S
C86    H98     1.083   .     S
C86    C88     1.402   .     A
C86    C312    1.383   1_545 S
C89    Cl113   1.754   .     S
C89    N102    1.379   .     A
C89    C775    1.414   1_554 S
C90    Cl114   1.754   .     S
C90    N101    1.379   .     A
C90    C434    1.414   .     S
C91    H99     1.082   .     S
C91    N101    1.360   .     A
C91    C431    1.414   .     S
C92    H100    1.082   .     S
C92    N102    1.360   .     A
C92    C774    1.414   1_554 S
Cu93   N101    2.018   .     S
Cu93   Cu94    2.686   .     S
Cu93   O106    1.966   .     S
Cu93   O107    1.972   .     S
Cu93   O110    1.976   .     S
Cu93   O103    1.963   .     S
Cu94   N102    2.018   .     S
Cu94   O105    1.966   .     S
Cu94   O109    1.976   .     S
Cu94   O108    1.972   .     S
Cu94   O104    1.963   .     S
Cl111  C5      1.778   1_655 S
C115   O143    1.295   .     A
C115   C126    1.450   .     S
C115   O141    1.292   .     A
C116   O144    1.295   .     A
C116   C125    1.450   .     S
C116   O142    1.292   .     A
C117   O145    1.283   .     A
C117   O147    1.297   .     A
C117   C119    1.437   .     S
C118   O148    1.297   .     A
C118   O146    1.283   .     A
C118   C120    1.437   .     S
C119   C196    1.359   1_455 S
C119   Cl225   1.778   1_455 S
C120   C157    1.359   .     S
C120   Cl188   1.778   .     S
C121   H133    1.083   .     S
C121   C126    1.400   .     A
C122   H134    1.083   .     S
C122   C125    1.400   .     A
C122   C238    1.383   .     S
C123   C125    1.402   .     A
C123   H135    1.083   .     S
C123   C235    1.383   .     S
C124   H136    1.083   .     S
C124   C126    1.402   .     A
C127   Cl151   1.754   .     S
C127   N140    1.379   .     A
C127   C813    1.414   1_554 S
C128   Cl152   1.754   .     S
C128   N139    1.379   .     A
C128   C472    1.414   .     S
C129   H137    1.082   .     S
C129   N139    1.360   .     A
C129   C469    1.414   .     S
C130   H138    1.082   .     S
C130   N140    1.360   .     A
C130   C812    1.414   1_554 S
Cu131  N139    2.018   .     S
Cu131  Cu132   2.686   .     S
Cu131  O144    1.966   .     S
Cu131  O145    1.972   .     S
Cu131  O148    1.976   .     S
Cu131  O141    1.963   .     S
Cu132  N140    2.018   .     S
Cu132  O143    1.966   .     S
Cu132  O147    1.976   .     S
Cu132  O146    1.972   .     S
Cu132  O142    1.963   .     S
Cl149  C157    1.778   .     S
Cl150  C196    1.778   1_455 S
C153   O181    1.295   .     A
C153   C164    1.450   .     S
C153   O179    1.292   .     A
C154   O182    1.295   .     A
C154   C163    1.450   .     S
C154   O180    1.292   .     A
C155   O183    1.283   .     A
C155   O185    1.297   .     A
C155   C157    1.437   .     S
C156   O186    1.297   .     A
C156   O184    1.283   .     A
C156   C158    1.437   .     S
C158   C195    1.359   .     S
C158   Cl226   1.778   .     S
C159   H171    1.083   .     S
C159   C164    1.400   .     A
C160   H172    1.083   .     S
C160   C163    1.400   .     A
C160   C276    1.383   .     S
C161   C163    1.402   .     A
C161   H173    1.083   .     S
C161   C273    1.383   .     S
C162   H174    1.083   .     S
C162   C164    1.402   .     A
C165   Cl189   1.754   .     S
C165   N178    1.379   .     A
C165   C851    1.414   1_554 S
C166   Cl190   1.754   .     S
C166   N177    1.379   .     A
C166   C510    1.414   .     S
C167   H175    1.082   .     S
C167   N177    1.360   .     A
C167   C507    1.414   .     S
C168   H176    1.082   .     S
C168   N178    1.360   .     A
C168   C850    1.414   1_554 S
Cu169  N177    2.018   .     S
Cu169  Cu170   2.686   .     S
Cu169  O182    1.966   .     S
Cu169  O183    1.972   .     S
Cu169  O186    1.976   .     S
Cu169  O179    1.963   .     S
Cu170  N178    2.018   .     S
Cu170  O181    1.966   .     S
Cu170  O185    1.976   .     S
Cu170  O184    1.972   .     S
Cu170  O180    1.963   .     S
Cl187  C195    1.778   .     S
C191   O219    1.295   .     A
C191   C202    1.450   .     S
C191   O217    1.292   .     A
C192   O220    1.295   .     A
C192   C201    1.450   .     S
C192   O218    1.292   .     A
C193   O221    1.283   .     A
C193   O223    1.297   .     A
C193   C195    1.437   .     S
C194   O224    1.297   .     A
C194   O222    1.283   .     A
C194   C196    1.437   .     S
C196   C119    1.359   1_655 S
C196   Cl150   1.778   1_655 S
C197   H209    1.083   .     S
C197   C202    1.400   .     A
C198   H210    1.083   .     S
C198   C201    1.400   .     A
C198   C314    1.383   .     S
C199   C201    1.402   .     A
C199   H211    1.083   .     S
C199   C311    1.383   .     S
C200   H212    1.083   .     S
C200   C202    1.402   .     A
C203   Cl227   1.754   .     S
C203   N216    1.379   .     A
C203   C889    1.414   1_554 S
C204   Cl228   1.754   .     S
C204   N215    1.379   .     A
C204   C548    1.414   .     S
C205   H213    1.082   .     S
C205   N215    1.360   .     A
C205   C545    1.414   .     S
C206   H214    1.082   .     S
C206   N216    1.360   .     A
C206   C888    1.414   1_554 S
Cu207  N215    2.018   .     S
Cu207  Cu208   2.686   .     S
Cu207  O220    1.966   .     S
Cu207  O221    1.972   .     S
Cu207  O224    1.976   .     S
Cu207  O217    1.963   .     S
Cu208  N216    2.018   .     S
Cu208  O219    1.966   .     S
Cu208  O223    1.976   .     S
Cu208  O222    1.972   .     S
Cu208  O218    1.963   .     S
Cl225  C119    1.778   1_655 S
C229   O257    1.295   .     A
C229   C240    1.450   .     S
C229   O255    1.292   .     A
C230   O258    1.295   .     A
C230   C239    1.450   .     S
C230   O256    1.292   .     A
C231   O259    1.283   .     A
C231   O261    1.297   .     A
C231   C233    1.437   .     S
C232   O262    1.297   .     A
C232   O260    1.283   .     A
C232   C234    1.437   .     S
C233   C310    1.359   1_455 S
C233   Cl339   1.778   1_455 S
C234   C271    1.359   .     S
C234   Cl302   1.778   .     S
C235   H247    1.083   .     S
C235   C240    1.400   .     A
C236   H248    1.083   .     S
C236   C239    1.400   .     A
C236   C10     1.383   1_565 S
C237   C239    1.402   .     A
C237   H249    1.083   .     S
C237   C7      1.383   1_565 S
C238   H250    1.083   .     S
C238   C240    1.402   .     A
C241   Cl265   1.754   .     S
C241   N254    1.379   .     A
C241   C927    1.414   1_554 S
C242   Cl266   1.754   .     S
C242   N253    1.379   .     A
C242   C586    1.414   .     S
C243   H251    1.082   .     S
C243   N253    1.360   .     A
C243   C583    1.414   .     S
C244   H252    1.082   .     S
C244   N254    1.360   .     A
C244   C926    1.414   1_554 S
Cu245  N253    2.018   .     S
Cu245  Cu246   2.686   .     S
Cu245  O258    1.966   .     S
Cu245  O259    1.972   .     S
Cu245  O262    1.976   .     S
Cu245  O255    1.963   .     S
Cu246  N254    2.018   .     S
Cu246  O257    1.966   .     S
Cu246  O261    1.976   .     S
Cu246  O260    1.972   .     S
Cu246  O256    1.963   .     S
Cl263  C271    1.778   .     S
Cl264  C310    1.778   1_455 S
C267   O295    1.295   .     A
C267   C278    1.450   .     S
C267   O293    1.292   .     A
C268   O296    1.295   .     A
C268   C277    1.450   .     S
C268   O294    1.292   .     A
C269   O297    1.283   .     A
C269   O299    1.297   .     A
C269   C271    1.437   .     S
C270   O300    1.297   .     A
C270   O298    1.283   .     A
C270   C272    1.437   .     S
C272   C309    1.359   .     S
C272   Cl340   1.778   .     S
C273   H285    1.083   .     S
C273   C278    1.400   .     A
C274   H286    1.083   .     S
C274   C277    1.400   .     A
C274   C48     1.383   1_565 S
C275   C277    1.402   .     A
C275   H287    1.083   .     S
C275   C45     1.383   1_565 S
C276   H288    1.083   .     S
C276   C278    1.402   .     A
C279   Cl303   1.754   .     S
C279   N292    1.379   .     A
C279   C965    1.414   1_554 S
C280   Cl304   1.754   .     S
C280   N291    1.379   .     A
C280   C624    1.414   .     S
C281   H289    1.082   .     S
C281   N291    1.360   .     A
C281   C621    1.414   .     S
C282   H290    1.082   .     S
C282   N292    1.360   .     A
C282   C964    1.414   1_554 S
Cu283  N291    2.018   .     S
Cu283  Cu284   2.686   .     S
Cu283  O296    1.966   .     S
Cu283  O297    1.972   .     S
Cu283  O300    1.976   .     S
Cu283  O293    1.963   .     S
Cu284  N292    2.018   .     S
Cu284  O295    1.966   .     S
Cu284  O299    1.976   .     S
Cu284  O298    1.972   .     S
Cu284  O294    1.963   .     S
Cl301  C309    1.778   .     S
C305   O333    1.295   .     A
C305   C316    1.450   .     S
C305   O331    1.292   .     A
C306   O334    1.295   .     A
C306   C315    1.450   .     S
C306   O332    1.292   .     A
C307   O335    1.283   .     A
C307   O337    1.297   .     A
C307   C309    1.437   .     S
C308   O338    1.297   .     A
C308   O336    1.283   .     A
C308   C310    1.437   .     S
C310   C233    1.359   1_655 S
C310   Cl264   1.778   1_655 S
C311   H323    1.083   .     S
C311   C316    1.400   .     A
C312   H324    1.083   .     S
C312   C315    1.400   .     A
C312   C86     1.383   1_565 S
C313   C315    1.402   .     A
C313   H325    1.083   .     S
C313   C83     1.383   1_565 S
C314   H326    1.083   .     S
C314   C316    1.402   .     A
C317   Cl341   1.754   .     S
C317   N330    1.379   .     A
C317   C1003   1.414   1_554 S
C318   Cl342   1.754   .     S
C318   N329    1.379   .     A
C318   C662    1.414   .     S
C319   H327    1.082   .     S
C319   N329    1.360   .     A
C319   C659    1.414   .     S
C320   H328    1.082   .     S
C320   N330    1.360   .     A
C320   C1002   1.414   1_554 S
Cu321  N329    2.018   .     S
Cu321  Cu322   2.686   .     S
Cu321  O334    1.966   .     S
Cu321  O335    1.972   .     S
Cu321  O338    1.976   .     S
Cu321  O331    1.963   .     S
Cu322  N330    2.018   .     S
Cu322  O333    1.966   .     S
Cu322  O337    1.976   .     S
Cu322  O336    1.972   .     S
Cu322  O332    1.963   .     S
Cl339  C233    1.778   1_655 S
C343   O371    1.295   .     A
C343   C354    1.450   .     S
C343   O369    1.292   .     A
C344   O372    1.295   .     A
C344   C353    1.450   .     S
C344   O370    1.292   .     A
C345   O373    1.283   .     A
C345   O375    1.297   .     A
C345   C347    1.437   .     S
C346   O376    1.297   .     A
C346   O374    1.283   .     A
C346   C348    1.437   .     S
C347   C424    1.359   1_455 S
C347   Cl453   1.778   1_455 S
C348   C385    1.359   .     S
C348   Cl416   1.778   .     S
C349   H361    1.083   .     S
C349   C354    1.400   .     A
C349   C579    1.383   1_545 S
C350   H362    1.083   .     S
C350   C353    1.400   .     A
C350   C466    1.383   .     S
C351   C353    1.402   .     A
C351   H363    1.083   .     S
C351   C463    1.383   .     S
C352   H364    1.083   .     S
C352   C354    1.402   .     A
C352   C578    1.383   1_545 S
C355   Cl379   1.754   .     S
C355   N368    1.379   .     A
C356   Cl380   1.754   .     S
C356   N367    1.379   .     A
C356   C700    1.414   .     S
C357   H365    1.082   .     S
C357   N367    1.360   .     A
C357   C697    1.414   .     S
C358   H366    1.082   .     S
C358   N368    1.360   .     A
Cu359  N367    2.018   .     S
Cu359  Cu360   2.686   .     S
Cu359  O372    1.966   .     S
Cu359  O373    1.972   .     S
Cu359  O376    1.976   .     S
Cu359  O369    1.963   .     S
Cu360  N368    2.018   .     S
Cu360  O371    1.966   .     S
Cu360  O375    1.976   .     S
Cu360  O374    1.972   .     S
Cu360  O370    1.963   .     S
Cl377  C385    1.778   .     S
Cl378  C424    1.778   1_455 S
C381   O409    1.295   .     A
C381   C392    1.450   .     S
C381   O407    1.292   .     A
C382   O410    1.295   .     A
C382   C391    1.450   .     S
C382   O408    1.292   .     A
C383   O411    1.283   .     A
C383   O413    1.297   .     A
C383   C385    1.437   .     S
C384   O414    1.297   .     A
C384   O412    1.283   .     A
C384   C386    1.437   .     S
C386   C423    1.359   .     S
C386   Cl454   1.778   .     S
C387   H399    1.083   .     S
C387   C392    1.400   .     A
C387   C617    1.383   1_545 S
C388   H400    1.083   .     S
C388   C391    1.400   .     A
C388   C504    1.383   .     S
C389   C391    1.402   .     A
C389   H401    1.083   .     S
C389   C501    1.383   .     S
C390   H402    1.083   .     S
C390   C392    1.402   .     A
C390   C616    1.383   1_545 S
C393   Cl417   1.754   .     S
C393   N406    1.379   .     A
C394   Cl418   1.754   .     S
C394   N405    1.379   .     A
C394   C738    1.414   .     S
C395   H403    1.082   .     S
C395   N405    1.360   .     A
C395   C735    1.414   .     S
C396   H404    1.082   .     S
C396   N406    1.360   .     A
Cu397  N405    2.018   .     S
Cu397  Cu398   2.686   .     S
Cu397  O410    1.966   .     S
Cu397  O411    1.972   .     S
Cu397  O414    1.976   .     S
Cu397  O407    1.963   .     S
Cu398  N406    2.018   .     S
Cu398  O409    1.966   .     S
Cu398  O413    1.976   .     S
Cu398  O412    1.972   .     S
Cu398  O408    1.963   .     S
Cl415  C423    1.778   .     S
C419   O447    1.295   .     A
C419   C430    1.450   .     S
C419   O445    1.292   .     A
C420   O448    1.295   .     A
C420   C429    1.450   .     S
C420   O446    1.292   .     A
C421   O449    1.283   .     A
C421   O451    1.297   .     A
C421   C423    1.437   .     S
C422   O452    1.297   .     A
C422   O450    1.283   .     A
C422   C424    1.437   .     S
C424   C347    1.359   1_655 S
C424   Cl378   1.778   1_655 S
C425   H437    1.083   .     S
C425   C430    1.400   .     A
C425   C655    1.383   1_545 S
C426   H438    1.083   .     S
C426   C429    1.400   .     A
C426   C542    1.383   .     S
C427   C429    1.402   .     A
C427   H439    1.083   .     S
C427   C539    1.383   .     S
C428   H440    1.083   .     S
C428   C430    1.402   .     A
C428   C654    1.383   1_545 S
C431   Cl455   1.754   .     S
C431   N444    1.379   .     A
C432   Cl456   1.754   .     S
C432   N443    1.379   .     A
C432   C776    1.414   .     S
C433   H441    1.082   .     S
C433   N443    1.360   .     A
C433   C773    1.414   .     S
C434   H442    1.082   .     S
C434   N444    1.360   .     A
Cu435  N443    2.018   .     S
Cu435  Cu436   2.686   .     S
Cu435  O448    1.966   .     S
Cu435  O449    1.972   .     S
Cu435  O452    1.976   .     S
Cu435  O445    1.963   .     S
Cu436  N444    2.018   .     S
Cu436  O447    1.966   .     S
Cu436  O451    1.976   .     S
Cu436  O450    1.972   .     S
Cu436  O446    1.963   .     S
Cl453  C347    1.778   1_655 S
C457   O485    1.295   .     A
C457   C468    1.450   .     S
C457   O483    1.292   .     A
C458   O486    1.295   .     A
C458   C467    1.450   .     S
C458   O484    1.292   .     A
C459   O487    1.283   .     A
C459   O489    1.297   .     A
C459   C461    1.437   .     S
C460   O490    1.297   .     A
C460   O488    1.283   .     A
C460   C462    1.437   .     S
C461   C538    1.359   1_455 S
C461   Cl567   1.778   1_455 S
C462   C499    1.359   .     S
C462   Cl530   1.778   .     S
C463   H475    1.083   .     S
C463   C468    1.400   .     A
C464   H476    1.083   .     S
C464   C467    1.400   .     A
C464   C580    1.383   .     S
C465   C467    1.402   .     A
C465   H477    1.083   .     S
C465   C577    1.383   .     S
C466   H478    1.083   .     S
C466   C468    1.402   .     A
C469   Cl493   1.754   .     S
C469   N482    1.379   .     A
C470   Cl494   1.754   .     S
C470   N481    1.379   .     A
C470   C814    1.414   .     S
C471   H479    1.082   .     S
C471   N481    1.360   .     A
C471   C811    1.414   .     S
C472   H480    1.082   .     S
C472   N482    1.360   .     A
Cu473  N481    2.018   .     S
Cu473  Cu474   2.686   .     S
Cu473  O486    1.966   .     S
Cu473  O487    1.972   .     S
Cu473  O490    1.976   .     S
Cu473  O483    1.963   .     S
Cu474  N482    2.018   .     S
Cu474  O485    1.966   .     S
Cu474  O489    1.976   .     S
Cu474  O488    1.972   .     S
Cu474  O484    1.963   .     S
Cl491  C499    1.778   .     S
Cl492  C538    1.778   1_455 S
C495   O523    1.295   .     A
C495   C506    1.450   .     S
C495   O521    1.292   .     A
C496   O524    1.295   .     A
C496   C505    1.450   .     S
C496   O522    1.292   .     A
C497   O525    1.283   .     A
C497   O527    1.297   .     A
C497   C499    1.437   .     S
C498   O528    1.297   .     A
C498   O526    1.283   .     A
C498   C500    1.437   .     S
C500   C537    1.359   .     S
C500   Cl568   1.778   .     S
C501   H513    1.083   .     S
C501   C506    1.400   .     A
C502   H514    1.083   .     S
C502   C505    1.400   .     A
C502   C618    1.383   .     S
C503   C505    1.402   .     A
C503   H515    1.083   .     S
C503   C615    1.383   .     S
C504   H516    1.083   .     S
C504   C506    1.402   .     A
C507   Cl531   1.754   .     S
C507   N520    1.379   .     A
C508   Cl532   1.754   .     S
C508   N519    1.379   .     A
C508   C852    1.414   .     S
C509   H517    1.082   .     S
C509   N519    1.360   .     A
C509   C849    1.414   .     S
C510   H518    1.082   .     S
C510   N520    1.360   .     A
Cu511  N519    2.018   .     S
Cu511  Cu512   2.686   .     S
Cu511  O524    1.966   .     S
Cu511  O525    1.972   .     S
Cu511  O528    1.976   .     S
Cu511  O521    1.963   .     S
Cu512  N520    2.018   .     S
Cu512  O523    1.966   .     S
Cu512  O527    1.976   .     S
Cu512  O526    1.972   .     S
Cu512  O522    1.963   .     S
Cl529  C537    1.778   .     S
C533   O561    1.295   .     A
C533   C544    1.450   .     S
C533   O559    1.292   .     A
C534   O562    1.295   .     A
C534   C543    1.450   .     S
C534   O560    1.292   .     A
C535   O563    1.283   .     A
C535   O565    1.297   .     A
C535   C537    1.437   .     S
C536   O566    1.297   .     A
C536   O564    1.283   .     A
C536   C538    1.437   .     S
C538   C461    1.359   1_655 S
C538   Cl492   1.778   1_655 S
C539   H551    1.083   .     S
C539   C544    1.400   .     A
C540   H552    1.083   .     S
C540   C543    1.400   .     A
C540   C656    1.383   .     S
C541   C543    1.402   .     A
C541   H553    1.083   .     S
C541   C653    1.383   .     S
C542   H554    1.083   .     S
C542   C544    1.402   .     A
C545   Cl569   1.754   .     S
C545   N558    1.379   .     A
C546   Cl570   1.754   .     S
C546   N557    1.379   .     A
C546   C890    1.414   .     S
C547   H555    1.082   .     S
C547   N557    1.360   .     A
C547   C887    1.414   .     S
C548   H556    1.082   .     S
C548   N558    1.360   .     A
Cu549  N557    2.018   .     S
Cu549  Cu550   2.686   .     S
Cu549  O562    1.966   .     S
Cu549  O563    1.972   .     S
Cu549  O566    1.976   .     S
Cu549  O559    1.963   .     S
Cu550  N558    2.018   .     S
Cu550  O561    1.966   .     S
Cu550  O565    1.976   .     S
Cu550  O564    1.972   .     S
Cu550  O560    1.963   .     S
Cl567  C461    1.778   1_655 S
C571   O599    1.295   .     A
C571   C582    1.450   .     S
C571   O597    1.292   .     A
C572   O600    1.295   .     A
C572   C581    1.450   .     S
C572   O598    1.292   .     A
C573   O601    1.283   .     A
C573   O603    1.297   .     A
C573   C575    1.437   .     S
C574   O604    1.297   .     A
C574   O602    1.283   .     A
C574   C576    1.437   .     S
C575   C652    1.359   1_455 S
C575   Cl681   1.778   1_455 S
C576   C613    1.359   .     S
C576   Cl644   1.778   .     S
C577   H589    1.083   .     S
C577   C582    1.400   .     A
C578   H590    1.083   .     S
C578   C581    1.400   .     A
C578   C352    1.383   1_565 S
C579   C581    1.402   .     A
C579   H591    1.083   .     S
C579   C349    1.383   1_565 S
C580   H592    1.083   .     S
C580   C582    1.402   .     A
C583   Cl607   1.754   .     S
C583   N596    1.379   .     A
C584   Cl608   1.754   .     S
C584   N595    1.379   .     A
C584   C928    1.414   .     S
C585   H593    1.082   .     S
C585   N595    1.360   .     A
C585   C925    1.414   .     S
C586   H594    1.082   .     S
C586   N596    1.360   .     A
Cu587  N595    2.018   .     S
Cu587  Cu588   2.686   .     S
Cu587  O600    1.966   .     S
Cu587  O601    1.972   .     S
Cu587  O604    1.976   .     S
Cu587  O597    1.963   .     S
Cu588  N596    2.018   .     S
Cu588  O599    1.966   .     S
Cu588  O603    1.976   .     S
Cu588  O602    1.972   .     S
Cu588  O598    1.963   .     S
Cl605  C613    1.778   .     S
Cl606  C652    1.778   1_455 S
C609   O637    1.295   .     A
C609   C620    1.450   .     S
C609   O635    1.292   .     A
C610   O638    1.295   .     A
C610   C619    1.450   .     S
C610   O636    1.292   .     A
C611   O639    1.283   .     A
C611   O641    1.297   .     A
C611   C613    1.437   .     S
C612   O642    1.297   .     A
C612   O640    1.283   .     A
C612   C614    1.437   .     S
C614   C651    1.359   .     S
C614   Cl682   1.778   .     S
C615   H627    1.083   .     S
C615   C620    1.400   .     A
C616   H628    1.083   .     S
C616   C619    1.400   .     A
C616   C390    1.383   1_565 S
C617   C619    1.402   .     A
C617   H629    1.083   .     S
C617   C387    1.383   1_565 S
C618   H630    1.083   .     S
C618   C620    1.402   .     A
C621   Cl645   1.754   .     S
C621   N634    1.379   .     A
C622   Cl646   1.754   .     S
C622   N633    1.379   .     A
C622   C966    1.414   .     S
C623   H631    1.082   .     S
C623   N633    1.360   .     A
C623   C963    1.414   .     S
C624   H632    1.082   .     S
C624   N634    1.360   .     A
Cu625  N633    2.018   .     S
Cu625  Cu626   2.686   .     S
Cu625  O638    1.966   .     S
Cu625  O639    1.972   .     S
Cu625  O642    1.976   .     S
Cu625  O635    1.963   .     S
Cu626  N634    2.018   .     S
Cu626  O637    1.966   .     S
Cu626  O641    1.976   .     S
Cu626  O640    1.972   .     S
Cu626  O636    1.963   .     S
Cl643  C651    1.778   .     S
C647   O675    1.295   .     A
C647   C658    1.450   .     S
C647   O673    1.292   .     A
C648   O676    1.295   .     A
C648   C657    1.450   .     S
C648   O674    1.292   .     A
C649   O677    1.283   .     A
C649   O679    1.297   .     A
C649   C651    1.437   .     S
C650   O680    1.297   .     A
C650   O678    1.283   .     A
C650   C652    1.437   .     S
C652   C575    1.359   1_655 S
C652   Cl606   1.778   1_655 S
C653   H665    1.083   .     S
C653   C658    1.400   .     A
C654   H666    1.083   .     S
C654   C657    1.400   .     A
C654   C428    1.383   1_565 S
C655   C657    1.402   .     A
C655   H667    1.083   .     S
C655   C425    1.383   1_565 S
C656   H668    1.083   .     S
C656   C658    1.402   .     A
C659   Cl683   1.754   .     S
C659   N672    1.379   .     A
C660   Cl684   1.754   .     S
C660   N671    1.379   .     A
C660   C1004   1.414   .     S
C661   H669    1.082   .     S
C661   N671    1.360   .     A
C661   C1001   1.414   .     S
C662   H670    1.082   .     S
C662   N672    1.360   .     A
Cu663  N671    2.018   .     S
Cu663  Cu664   2.686   .     S
Cu663  O676    1.966   .     S
Cu663  O677    1.972   .     S
Cu663  O680    1.976   .     S
Cu663  O673    1.963   .     S
Cu664  N672    2.018   .     S
Cu664  O675    1.966   .     S
Cu664  O679    1.976   .     S
Cu664  O678    1.972   .     S
Cu664  O674    1.963   .     S
Cl681  C575    1.778   1_655 S
C685   O713    1.295   .     A
C685   C696    1.450   .     S
C685   O711    1.292   .     A
C686   O714    1.295   .     A
C686   C695    1.450   .     S
C686   O712    1.292   .     A
C687   O715    1.283   .     A
C687   O717    1.297   .     A
C687   C689    1.437   .     S
C688   O718    1.297   .     A
C688   O716    1.283   .     A
C688   C690    1.437   .     S
C689   C766    1.359   1_455 S
C689   Cl795   1.778   1_455 S
C690   C727    1.359   .     S
C690   Cl758   1.778   .     S
C691   H703    1.083   .     S
C691   C696    1.400   .     A
C691   C921    1.383   1_545 S
C692   H704    1.083   .     S
C692   C695    1.400   .     A
C692   C808    1.383   .     S
C693   C695    1.402   .     A
C693   H705    1.083   .     S
C693   C805    1.383   .     S
C694   H706    1.083   .     S
C694   C696    1.402   .     A
C694   C920    1.383   1_545 S
C697   Cl721   1.754   .     S
C697   N710    1.379   .     A
C698   Cl722   1.754   .     S
C698   N709    1.379   .     A
C698   C16     1.414   1_556 S
C699   H707    1.082   .     S
C699   N709    1.360   .     A
C699   C13     1.414   1_556 S
C700   H708    1.082   .     S
C700   N710    1.360   .     A
Cu701  N709    2.018   .     S
Cu701  Cu702   2.686   .     S
Cu701  O714    1.966   .     S
Cu701  O715    1.972   .     S
Cu701  O718    1.976   .     S
Cu701  O711    1.963   .     S
Cu702  N710    2.018   .     S
Cu702  O713    1.966   .     S
Cu702  O717    1.976   .     S
Cu702  O716    1.972   .     S
Cu702  O712    1.963   .     S
Cl719  C727    1.778   .     S
Cl720  C766    1.778   1_455 S
C723   O751    1.295   .     A
C723   C734    1.450   .     S
C723   O749    1.292   .     A
C724   O752    1.295   .     A
C724   C733    1.450   .     S
C724   O750    1.292   .     A
C725   O753    1.283   .     A
C725   O755    1.297   .     A
C725   C727    1.437   .     S
C726   O756    1.297   .     A
C726   O754    1.283   .     A
C726   C728    1.437   .     S
C728   C765    1.359   .     S
C728   Cl796   1.778   .     S
C729   H741    1.083   .     S
C729   C734    1.400   .     A
C729   C959    1.383   1_545 S
C730   H742    1.083   .     S
C730   C733    1.400   .     A
C730   C846    1.383   .     S
C731   C733    1.402   .     A
C731   H743    1.083   .     S
C731   C843    1.383   .     S
C732   H744    1.083   .     S
C732   C734    1.402   .     A
C732   C958    1.383   1_545 S
C735   Cl759   1.754   .     S
C735   N748    1.379   .     A
C736   Cl760   1.754   .     S
C736   N747    1.379   .     A
C736   C54     1.414   1_556 S
C737   H745    1.082   .     S
C737   N747    1.360   .     A
C737   C51     1.414   1_556 S
C738   H746    1.082   .     S
C738   N748    1.360   .     A
Cu739  N747    2.018   .     S
Cu739  Cu740   2.686   .     S
Cu739  O752    1.966   .     S
Cu739  O753    1.972   .     S
Cu739  O756    1.976   .     S
Cu739  O749    1.963   .     S
Cu740  N748    2.018   .     S
Cu740  O751    1.966   .     S
Cu740  O755    1.976   .     S
Cu740  O754    1.972   .     S
Cu740  O750    1.963   .     S
Cl757  C765    1.778   .     S
C761   O789    1.295   .     A
C761   C772    1.450   .     S
C761   O787    1.292   .     A
C762   O790    1.295   .     A
C762   C771    1.450   .     S
C762   O788    1.292   .     A
C763   O791    1.283   .     A
C763   O793    1.297   .     A
C763   C765    1.437   .     S
C764   O794    1.297   .     A
C764   O792    1.283   .     A
C764   C766    1.437   .     S
C766   C689    1.359   1_655 S
C766   Cl720   1.778   1_655 S
C767   H779    1.083   .     S
C767   C772    1.400   .     A
C767   C997    1.383   1_545 S
C768   H780    1.083   .     S
C768   C771    1.400   .     A
C768   C884    1.383   .     S
C769   C771    1.402   .     A
C769   H781    1.083   .     S
C769   C881    1.383   .     S
C770   H782    1.083   .     S
C770   C772    1.402   .     A
C770   C996    1.383   1_545 S
C773   Cl797   1.754   .     S
C773   N786    1.379   .     A
C774   Cl798   1.754   .     S
C774   N785    1.379   .     A
C774   C92     1.414   1_556 S
C775   H783    1.082   .     S
C775   N785    1.360   .     A
C775   C89     1.414   1_556 S
C776   H784    1.082   .     S
C776   N786    1.360   .     A
Cu777  N785    2.018   .     S
Cu777  Cu778   2.686   .     S
Cu777  O790    1.966   .     S
Cu777  O791    1.972   .     S
Cu777  O794    1.976   .     S
Cu777  O787    1.963   .     S
Cu778  N786    2.018   .     S
Cu778  O789    1.966   .     S
Cu778  O793    1.976   .     S
Cu778  O792    1.972   .     S
Cu778  O788    1.963   .     S
Cl795  C689    1.778   1_655 S
C799   O827    1.295   .     A
C799   C810    1.450   .     S
C799   O825    1.292   .     A
C800   O828    1.295   .     A
C800   C809    1.450   .     S
C800   O826    1.292   .     A
C801   O829    1.283   .     A
C801   O831    1.297   .     A
C801   C803    1.437   .     S
C802   O832    1.297   .     A
C802   O830    1.283   .     A
C802   C804    1.437   .     S
C803   C880    1.359   1_455 S
C803   Cl909   1.778   1_455 S
C804   C841    1.359   .     S
C804   Cl872   1.778   .     S
C805   H817    1.083   .     S
C805   C810    1.400   .     A
C806   H818    1.083   .     S
C806   C809    1.400   .     A
C806   C922    1.383   .     S
C807   C809    1.402   .     A
C807   H819    1.083   .     S
C807   C919    1.383   .     S
C808   H820    1.083   .     S
C808   C810    1.402   .     A
C811   Cl835   1.754   .     S
C811   N824    1.379   .     A
C812   Cl836   1.754   .     S
C812   N823    1.379   .     A
C812   C130    1.414   1_556 S
C813   H821    1.082   .     S
C813   N823    1.360   .     A
C813   C127    1.414   1_556 S
C814   H822    1.082   .     S
C814   N824    1.360   .     A
Cu815  N823    2.018   .     S
Cu815  Cu816   2.686   .     S
Cu815  O828    1.966   .     S
Cu815  O829    1.972   .     S
Cu815  O832    1.976   .     S
Cu815  O825    1.963   .     S
Cu816  N824    2.018   .     S
Cu816  O827    1.966   .     S
Cu816  O831    1.976   .     S
Cu816  O830    1.972   .     S
Cu816  O826    1.963   .     S
Cl833  C841    1.778   .     S
Cl834  C880    1.778   1_455 S
C837   O865    1.295   .     A
C837   C848    1.450   .     S
C837   O863    1.292   .     A
C838   O866    1.295   .     A
C838   C847    1.450   .     S
C838   O864    1.292   .     A
C839   O867    1.283   .     A
C839   O869    1.297   .     A
C839   C841    1.437   .     S
C840   O870    1.297   .     A
C840   O868    1.283   .     A
C840   C842    1.437   .     S
C842   C879    1.359   .     S
C842   Cl910   1.778   .     S
C843   H855    1.083   .     S
C843   C848    1.400   .     A
C844   H856    1.083   .     S
C844   C847    1.400   .     A
C844   C960    1.383   .     S
C845   C847    1.402   .     A
C845   H857    1.083   .     S
C845   C957    1.383   .     S
C846   H858    1.083   .     S
C846   C848    1.402   .     A
C849   Cl873   1.754   .     S
C849   N862    1.379   .     A
C850   Cl874   1.754   .     S
C850   N861    1.379   .     A
C850   C168    1.414   1_556 S
C851   H859    1.082   .     S
C851   N861    1.360   .     A
C851   C165    1.414   1_556 S
C852   H860    1.082   .     S
C852   N862    1.360   .     A
Cu853  N861    2.018   .     S
Cu853  Cu854   2.686   .     S
Cu853  O866    1.966   .     S
Cu853  O867    1.972   .     S
Cu853  O870    1.976   .     S
Cu853  O863    1.963   .     S
Cu854  N862    2.018   .     S
Cu854  O865    1.966   .     S
Cu854  O869    1.976   .     S
Cu854  O868    1.972   .     S
Cu854  O864    1.963   .     S
Cl871  C879    1.778   .     S
C875   O903    1.295   .     A
C875   C886    1.450   .     S
C875   O901    1.292   .     A
C876   O904    1.295   .     A
C876   C885    1.450   .     S
C876   O902    1.292   .     A
C877   O905    1.283   .     A
C877   O907    1.297   .     A
C877   C879    1.437   .     S
C878   O908    1.297   .     A
C878   O906    1.283   .     A
C878   C880    1.437   .     S
C880   C803    1.359   1_655 S
C880   Cl834   1.778   1_655 S
C881   H893    1.083   .     S
C881   C886    1.400   .     A
C882   H894    1.083   .     S
C882   C885    1.400   .     A
C882   C998    1.383   .     S
C883   C885    1.402   .     A
C883   H895    1.083   .     S
C883   C995    1.383   .     S
C884   H896    1.083   .     S
C884   C886    1.402   .     A
C887   Cl911   1.754   .     S
C887   N900    1.379   .     A
C888   Cl912   1.754   .     S
C888   N899    1.379   .     A
C888   C206    1.414   1_556 S
C889   H897    1.082   .     S
C889   N899    1.360   .     A
C889   C203    1.414   1_556 S
C890   H898    1.082   .     S
C890   N900    1.360   .     A
Cu891  N899    2.018   .     S
Cu891  Cu892   2.686   .     S
Cu891  O904    1.966   .     S
Cu891  O905    1.972   .     S
Cu891  O908    1.976   .     S
Cu891  O901    1.963   .     S
Cu892  N900    2.018   .     S
Cu892  O903    1.966   .     S
Cu892  O907    1.976   .     S
Cu892  O906    1.972   .     S
Cu892  O902    1.963   .     S
Cl909  C803    1.778   1_655 S
C913   O941    1.295   .     A
C913   C924    1.450   .     S
C913   O939    1.292   .     A
C914   O942    1.295   .     A
C914   C923    1.450   .     S
C914   O940    1.292   .     A
C915   O943    1.283   .     A
C915   O945    1.297   .     A
C915   C917    1.437   .     S
C916   O946    1.297   .     A
C916   O944    1.283   .     A
C916   C918    1.437   .     S
C917   C994    1.359   1_455 S
C917   Cl1023  1.778   1_455 S
C918   C955    1.359   .     S
C918   Cl986   1.778   .     S
C919   H931    1.083   .     S
C919   C924    1.400   .     A
C920   H932    1.083   .     S
C920   C923    1.400   .     A
C920   C694    1.383   1_565 S
C921   C923    1.402   .     A
C921   H933    1.083   .     S
C921   C691    1.383   1_565 S
C922   H934    1.083   .     S
C922   C924    1.402   .     A
C925   Cl949   1.754   .     S
C925   N938    1.379   .     A
C926   Cl950   1.754   .     S
C926   N937    1.379   .     A
C926   C244    1.414   1_556 S
C927   H935    1.082   .     S
C927   N937    1.360   .     A
C927   C241    1.414   1_556 S
C928   H936    1.082   .     S
C928   N938    1.360   .     A
Cu929  N937    2.018   .     S
Cu929  Cu930   2.686   .     S
Cu929  O942    1.966   .     S
Cu929  O943    1.972   .     S
Cu929  O946    1.976   .     S
Cu929  O939    1.963   .     S
Cu930  N938    2.018   .     S
Cu930  O941    1.966   .     S
Cu930  O945    1.976   .     S
Cu930  O944    1.972   .     S
Cu930  O940    1.963   .     S
Cl947  C955    1.778   .     S
Cl948  C994    1.778   1_455 S
C951   O979    1.295   .     A
C951   C962    1.450   .     S
C951   O977    1.292   .     A
C952   O980    1.295   .     A
C952   C961    1.450   .     S
C952   O978    1.292   .     A
C953   O981    1.283   .     A
C953   O983    1.297   .     A
C953   C955    1.437   .     S
C954   O984    1.297   .     A
C954   O982    1.283   .     A
C954   C956    1.437   .     S
C956   C993    1.359   .     S
C956   Cl1024  1.778   .     S
C957   H969    1.083   .     S
C957   C962    1.400   .     A
C958   H970    1.083   .     S
C958   C961    1.400   .     A
C958   C732    1.383   1_565 S
C959   C961    1.402   .     A
C959   H971    1.083   .     S
C959   C729    1.383   1_565 S
C960   H972    1.083   .     S
C960   C962    1.402   .     A
C963   Cl987   1.754   .     S
C963   N976    1.379   .     A
C964   Cl988   1.754   .     S
C964   N975    1.379   .     A
C964   C282    1.414   1_556 S
C965   H973    1.082   .     S
C965   N975    1.360   .     A
C965   C279    1.414   1_556 S
C966   H974    1.082   .     S
C966   N976    1.360   .     A
Cu967  N975    2.018   .     S
Cu967  Cu968   2.686   .     S
Cu967  O980    1.966   .     S
Cu967  O981    1.972   .     S
Cu967  O984    1.976   .     S
Cu967  O977    1.963   .     S
Cu968  N976    2.018   .     S
Cu968  O979    1.966   .     S
Cu968  O983    1.976   .     S
Cu968  O982    1.972   .     S
Cu968  O978    1.963   .     S
Cl985  C993    1.778   .     S
C989   O1017   1.295   .     A
C989   C1000   1.450   .     S
C989   O1015   1.292   .     A
C990   O1018   1.295   .     A
C990   C999    1.450   .     S
C990   O1016   1.292   .     A
C991   O1019   1.283   .     A
C991   O1021   1.297   .     A
C991   C993    1.437   .     S
C992   O1022   1.297   .     A
C992   O1020   1.283   .     A
C992   C994    1.437   .     S
C994   C917    1.359   1_655 S
C994   Cl948   1.778   1_655 S
C995   H1007   1.083   .     S
C995   C1000   1.400   .     A
C996   H1008   1.083   .     S
C996   C999    1.400   .     A
C996   C770    1.383   1_565 S
C997   C999    1.402   .     A
C997   H1009   1.083   .     S
C997   C767    1.383   1_565 S
C998   H1010   1.083   .     S
C998   C1000   1.402   .     A
C1001  Cl1025  1.754   .     S
C1001  N1014   1.379   .     A
C1002  Cl1026  1.754   .     S
C1002  N1013   1.379   .     A
C1002  C320    1.414   1_556 S
C1003  H1011   1.082   .     S
C1003  N1013   1.360   .     A
C1003  C317    1.414   1_556 S
C1004  H1012   1.082   .     S
C1004  N1014   1.360   .     A
Cu1005 N1013   2.018   .     S
Cu1005 Cu1006  2.686   .     S
Cu1005 O1018   1.966   .     S
Cu1005 O1019   1.972   .     S
Cu1005 O1022   1.976   .     S
Cu1005 O1015   1.963   .     S
Cu1006 N1014   2.018   .     S
Cu1006 O1017   1.966   .     S
Cu1006 O1021   1.976   .     S
Cu1006 O1020   1.972   .     S
Cu1006 O1016   1.963   .     S
Cl1023 C917    1.778   1_655 S
