data_str_m2_o1_o16_pcu_sym.227
_audit_creation_date              2020-01-03
_audit_creation_method            'Materials Studio'
_symmetry_space_group_name_H-M    'P1'
_symmetry_Int_Tables_number       1
_symmetry_cell_setting            triclinic
loop_
_symmetry_equiv_pos_as_xyz
  x,y,z
_cell_length_a                    28.8705
_cell_length_b                    32.4688
_cell_length_c                    27.3596
_cell_angle_alpha                 93.1050
_cell_angle_beta                  74.0900
_cell_angle_gamma                 90.6225
loop_
_atom_site_label
_atom_site_type_symbol
_atom_site_fract_x
_atom_site_fract_y
_atom_site_fract_z
_atom_site_U_iso_or_equiv
_atom_site_adp_type
_atom_site_occupancy
C1     C     0.16652   0.24590   0.25120   0.00000  Uiso   1.00
C2     C     0.15174   0.17707   0.48635   0.00000  Uiso   1.00
C3     C     0.16497   0.16602   0.43352   0.00000  Uiso   1.00
C4     C     0.18544   0.17177   0.01451   0.00000  Uiso   1.00
C5     C     0.23486   0.17105   0.48857   0.00000  Uiso   1.00
C6     C     0.24861   0.16519   0.43559   0.00000  Uiso   1.00
C7     C     0.21380   0.15516   0.41061   0.00000  Uiso   1.00
C8     C     0.17135   0.16430   0.06682   0.00000  Uiso   1.00
C9     C     0.25473   0.17284   0.06888   0.00000  Uiso   1.00
C10    C     0.12954   0.16856   0.40595   0.00000  Uiso   1.00
C11    C     0.20567   0.31278   0.26082   0.00000  Uiso   1.00
C12    C     0.14164   0.16571   0.34955   0.00000  Uiso   1.00
C13    C     0.20493   0.02215   0.26249   0.00000  Uiso   1.00
C14    C     0.16490   0.04302   0.25607   0.00000  Uiso   1.00
C15    C     0.12384   0.02091   0.25331   0.00000  Uiso   1.00
C16    C     0.12432   0.31163   0.25182   0.00000  Uiso   1.00
C17    C     0.16576   0.29065   0.25417   0.00000  Uiso   1.00
C18    C     0.30137   0.19475   0.27973   0.00000  Uiso   1.00
C19    C     0.01792   0.19610   0.27751   0.00000  Uiso   1.00
C20    C     0.03100   0.13732   0.22153   0.00000  Uiso   1.00
C21    C     0.31639   0.14062   0.21715   0.00000  Uiso   1.00
C22    C     0.16596   0.08756   0.25219   0.00000  Uiso   1.00
C23    C     0.19207   0.16631   0.15056   0.00000  Uiso   1.00
C24    C     0.26915   0.17248   0.01617   0.00000  Uiso   1.00
C25    C     0.20604   0.16777   0.09475   0.00000  Uiso   1.00
C26    C     0.08270   0.18084   0.43249   0.00000  Uiso   1.00
C27    C     0.07178   0.19571   0.48288   0.00000  Uiso   1.00
C28    C     0.10616   0.19458   0.00939   0.00000  Uiso   1.00
Cu29   Cu    0.11978   0.16666   0.25000   0.00000  Uiso   1.00
Cu30   Cu    0.21355   0.16667   0.25000   0.00000  Uiso   1.00
H31    H     0.28215   0.17480   0.08911   0.00000  Uiso   1.00
H32    H     0.23557   0.03865   0.26901   0.00000  Uiso   1.00
H33    H     0.09145   0.03647   0.25227   0.00000  Uiso   1.00
H34    H     0.09237   0.29524   0.24842   0.00000  Uiso   1.00
H35    H     0.27707   0.21729   0.30395   0.00000  Uiso   1.00
H36    H     0.03109   0.22029   0.29873   0.00000  Uiso   1.00
H37    H     0.30710   0.17139   0.49700   0.00000  Uiso   1.00
H38    H     0.05542   0.18180   0.41296   0.00000  Uiso   1.00
H39    H     0.09736   0.20869   0.04748   0.00000  Uiso   1.00
H40    H     0.03706   0.20950   0.00120   0.00000  Uiso   1.00
H41    H     0.22720   0.14120   0.37293   0.00000  Uiso   1.00
H42    H     0.23734   0.29720   0.26476   0.00000  Uiso   1.00
N43    N     0.04931   0.16666   0.24999   0.00000  Uiso   1.00
N44    N     0.28402   0.16669   0.25000   0.00000  Uiso   1.00
O45    O     0.12708   0.22678   0.25001   0.00000  Uiso   1.00
O46    O     0.20627   0.22679   0.25001   0.00000  Uiso   1.00
O47    O     0.10775   0.16665   0.32549   0.00000  Uiso   1.00
O48    O     0.18694   0.16666   0.32549   0.00000  Uiso   1.00
O49    O     0.12706   0.10654   0.25000   0.00000  Uiso   1.00
O50    O     0.20625   0.10655   0.25000   0.00000  Uiso   1.00
O51    O     0.14640   0.16667   0.17451   0.00000  Uiso   1.00
O52    O     0.22559   0.16668   0.17451   0.00000  Uiso   1.00
C53    C     0.05765   0.09921   0.19844   0.00000  Uiso   1.00
O54    O     0.09876   0.10041   0.17155   0.00000  Uiso   1.00
O55    O     0.03472   0.06111   0.20690   0.00000  Uiso   1.00
H56    H     0.05466   0.03751   0.18595   0.00000  Uiso   1.00
N57    N     0.30631   0.12557   0.17119   0.00000  Uiso   1.00
H58    H     0.33109   0.13455   0.13862   0.00000  Uiso   1.00
C59    C     0.29049   0.08344   0.16701   0.00000  Uiso   1.00
H60    H     0.31827   0.06530   0.13785   0.00000  Uiso   1.00
H61    H     0.25687   0.08306   0.15480   0.00000  Uiso   1.00
H62    H     0.28381   0.06849   0.20355   0.00000  Uiso   1.00
C63    C     0.29698   0.17570   0.40498   0.00000  Uiso   1.00
O64    O     0.32153   0.15030   0.37446   0.00000  Uiso   1.00
O65    O     0.31280   0.21623   0.40959   0.00000  Uiso   1.00
H66    H     0.01085   0.22242   0.38378   0.00000  Uiso   1.00
N67    N     0.12589   0.14564   0.08874   0.00000  Uiso   1.00
H68    H     0.09718   0.16507   0.10486   0.00000  Uiso   1.00
C69    C     0.11522   0.10717   0.06433   0.00000  Uiso   1.00
H70    H     0.08058   0.09453   0.08693   0.00000  Uiso   1.00
H71    H     0.14422   0.08425   0.06157   0.00000  Uiso   1.00
H72    H     0.11118   0.11156   0.02590   0.00000  Uiso   1.00
C73    C     0.49985   0.24590   0.25120   0.00000  Uiso   1.00
C74    C     0.48507   0.17707   0.48635   0.00000  Uiso   1.00
C75    C     0.49830   0.16602   0.43352   0.00000  Uiso   1.00
C76    C     0.51878   0.17177   0.01451   0.00000  Uiso   1.00
C77    C     0.56820   0.17105   0.48857   0.00000  Uiso   1.00
C78    C     0.58194   0.16519   0.43559   0.00000  Uiso   1.00
C79    C     0.54713   0.15516   0.41061   0.00000  Uiso   1.00
C80    C     0.50469   0.16430   0.06682   0.00000  Uiso   1.00
C81    C     0.58806   0.17284   0.06888   0.00000  Uiso   1.00
C82    C     0.46287   0.16856   0.40595   0.00000  Uiso   1.00
C83    C     0.53900   0.31278   0.26082   0.00000  Uiso   1.00
C84    C     0.47497   0.16571   0.34955   0.00000  Uiso   1.00
C85    C     0.53826   0.02215   0.26249   0.00000  Uiso   1.00
C86    C     0.49823   0.04302   0.25607   0.00000  Uiso   1.00
C87    C     0.45718   0.02091   0.25331   0.00000  Uiso   1.00
C88    C     0.45765   0.31163   0.25182   0.00000  Uiso   1.00
C89    C     0.49909   0.29065   0.25417   0.00000  Uiso   1.00
C90    C     0.63471   0.19475   0.27973   0.00000  Uiso   1.00
C91    C     0.35125   0.19610   0.27751   0.00000  Uiso   1.00
C92    C     0.36434   0.13732   0.22153   0.00000  Uiso   1.00
C93    C     0.64972   0.14062   0.21715   0.00000  Uiso   1.00
C94    C     0.49930   0.08756   0.25219   0.00000  Uiso   1.00
C95    C     0.52540   0.16631   0.15056   0.00000  Uiso   1.00
C96    C     0.60248   0.17248   0.01617   0.00000  Uiso   1.00
C97    C     0.53937   0.16777   0.09475   0.00000  Uiso   1.00
C98    C     0.41603   0.18084   0.43249   0.00000  Uiso   1.00
C99    C     0.40511   0.19571   0.48288   0.00000  Uiso   1.00
C100   C     0.43949   0.19458   0.00939   0.00000  Uiso   1.00
Cu101  Cu    0.45311   0.16666   0.25000   0.00000  Uiso   1.00
Cu102  Cu    0.54689   0.16667   0.25000   0.00000  Uiso   1.00
H103   H     0.61548   0.17480   0.08911   0.00000  Uiso   1.00
H104   H     0.56890   0.03865   0.26901   0.00000  Uiso   1.00
H105   H     0.42478   0.03647   0.25227   0.00000  Uiso   1.00
H106   H     0.42570   0.29524   0.24842   0.00000  Uiso   1.00
H107   H     0.61041   0.21729   0.30395   0.00000  Uiso   1.00
H108   H     0.36442   0.22029   0.29873   0.00000  Uiso   1.00
H109   H     0.64043   0.17139   0.49700   0.00000  Uiso   1.00
H110   H     0.38875   0.18180   0.41296   0.00000  Uiso   1.00
H111   H     0.43070   0.20869   0.04748   0.00000  Uiso   1.00
H112   H     0.37040   0.20950   0.00120   0.00000  Uiso   1.00
H113   H     0.56053   0.14120   0.37293   0.00000  Uiso   1.00
H114   H     0.57068   0.29720   0.26476   0.00000  Uiso   1.00
N115   N     0.38265   0.16666   0.24999   0.00000  Uiso   1.00
N116   N     0.61735   0.16669   0.25000   0.00000  Uiso   1.00
O117   O     0.46042   0.22678   0.25001   0.00000  Uiso   1.00
O118   O     0.53961   0.22679   0.25001   0.00000  Uiso   1.00
O119   O     0.44108   0.16665   0.32549   0.00000  Uiso   1.00
O120   O     0.52027   0.16666   0.32549   0.00000  Uiso   1.00
O121   O     0.46039   0.10654   0.25000   0.00000  Uiso   1.00
O122   O     0.53958   0.10655   0.25000   0.00000  Uiso   1.00
O123   O     0.47973   0.16667   0.17451   0.00000  Uiso   1.00
O124   O     0.55892   0.16668   0.17451   0.00000  Uiso   1.00
C125   C     0.39098   0.09921   0.19844   0.00000  Uiso   1.00
O126   O     0.43210   0.10041   0.17155   0.00000  Uiso   1.00
O127   O     0.36805   0.06111   0.20690   0.00000  Uiso   1.00
H128   H     0.38800   0.03751   0.18595   0.00000  Uiso   1.00
N129   N     0.63964   0.12557   0.17119   0.00000  Uiso   1.00
H130   H     0.66442   0.13455   0.13862   0.00000  Uiso   1.00
C131   C     0.62383   0.08344   0.16701   0.00000  Uiso   1.00
H132   H     0.65160   0.06530   0.13785   0.00000  Uiso   1.00
H133   H     0.59021   0.08306   0.15480   0.00000  Uiso   1.00
H134   H     0.61715   0.06849   0.20355   0.00000  Uiso   1.00
C135   C     0.63032   0.17570   0.40498   0.00000  Uiso   1.00
O136   O     0.65487   0.15030   0.37446   0.00000  Uiso   1.00
O137   O     0.64613   0.21623   0.40959   0.00000  Uiso   1.00
H138   H     0.34419   0.22242   0.38378   0.00000  Uiso   1.00
N139   N     0.45922   0.14564   0.08874   0.00000  Uiso   1.00
H140   H     0.43051   0.16507   0.10486   0.00000  Uiso   1.00
C141   C     0.44855   0.10717   0.06433   0.00000  Uiso   1.00
H142   H     0.41391   0.09453   0.08693   0.00000  Uiso   1.00
H143   H     0.47755   0.08425   0.06157   0.00000  Uiso   1.00
H144   H     0.44451   0.11156   0.02590   0.00000  Uiso   1.00
C145   C     0.83319   0.24590   0.25120   0.00000  Uiso   1.00
C146   C     0.81840   0.17707   0.48635   0.00000  Uiso   1.00
C147   C     0.83164   0.16602   0.43352   0.00000  Uiso   1.00
C148   C     0.85211   0.17177   0.01451   0.00000  Uiso   1.00
C149   C     0.90153   0.17105   0.48857   0.00000  Uiso   1.00
C150   C     0.91527   0.16519   0.43559   0.00000  Uiso   1.00
C151   C     0.88046   0.15516   0.41061   0.00000  Uiso   1.00
C152   C     0.83802   0.16430   0.06682   0.00000  Uiso   1.00
C153   C     0.92140   0.17284   0.06888   0.00000  Uiso   1.00
C154   C     0.79620   0.16856   0.40595   0.00000  Uiso   1.00
C155   C     0.87233   0.31278   0.26082   0.00000  Uiso   1.00
C156   C     0.80831   0.16571   0.34955   0.00000  Uiso   1.00
C157   C     0.87160   0.02215   0.26249   0.00000  Uiso   1.00
C158   C     0.83156   0.04302   0.25607   0.00000  Uiso   1.00
C159   C     0.79051   0.02091   0.25331   0.00000  Uiso   1.00
C160   C     0.79098   0.31163   0.25182   0.00000  Uiso   1.00
C161   C     0.83242   0.29065   0.25417   0.00000  Uiso   1.00
C162   C     0.96804   0.19475   0.27973   0.00000  Uiso   1.00
C163   C     0.68458   0.19610   0.27751   0.00000  Uiso   1.00
C164   C     0.69767   0.13732   0.22153   0.00000  Uiso   1.00
C165   C     0.98305   0.14062   0.21715   0.00000  Uiso   1.00
C166   C     0.83263   0.08756   0.25219   0.00000  Uiso   1.00
C167   C     0.85874   0.16631   0.15056   0.00000  Uiso   1.00
C168   C     0.93582   0.17248   0.01617   0.00000  Uiso   1.00
C169   C     0.87270   0.16777   0.09475   0.00000  Uiso   1.00
C170   C     0.74936   0.18084   0.43249   0.00000  Uiso   1.00
C171   C     0.73844   0.19571   0.48288   0.00000  Uiso   1.00
C172   C     0.77282   0.19458   0.00939   0.00000  Uiso   1.00
Cu173  Cu    0.78645   0.16666   0.25000   0.00000  Uiso   1.00
Cu174  Cu    0.88022   0.16667   0.25000   0.00000  Uiso   1.00
H175   H     0.94882   0.17480   0.08911   0.00000  Uiso   1.00
H176   H     0.90224   0.03865   0.26901   0.00000  Uiso   1.00
H177   H     0.75812   0.03647   0.25227   0.00000  Uiso   1.00
H178   H     0.75903   0.29524   0.24842   0.00000  Uiso   1.00
H179   H     0.94374   0.21729   0.30395   0.00000  Uiso   1.00
H180   H     0.69776   0.22029   0.29873   0.00000  Uiso   1.00
H181   H     0.97377   0.17139   0.49700   0.00000  Uiso   1.00
H182   H     0.72208   0.18180   0.41296   0.00000  Uiso   1.00
H183   H     0.76403   0.20869   0.04748   0.00000  Uiso   1.00
H184   H     0.70373   0.20950   0.00120   0.00000  Uiso   1.00
H185   H     0.89386   0.14120   0.37293   0.00000  Uiso   1.00
H186   H     0.90401   0.29720   0.26476   0.00000  Uiso   1.00
N187   N     0.71598   0.16666   0.24999   0.00000  Uiso   1.00
N188   N     0.95069   0.16669   0.25000   0.00000  Uiso   1.00
O189   O     0.79375   0.22678   0.25001   0.00000  Uiso   1.00
O190   O     0.87294   0.22679   0.25001   0.00000  Uiso   1.00
O191   O     0.77441   0.16665   0.32549   0.00000  Uiso   1.00
O192   O     0.85360   0.16666   0.32549   0.00000  Uiso   1.00
O193   O     0.79373   0.10654   0.25000   0.00000  Uiso   1.00
O194   O     0.87292   0.10655   0.25000   0.00000  Uiso   1.00
O195   O     0.81306   0.16667   0.17451   0.00000  Uiso   1.00
O196   O     0.89225   0.16668   0.17451   0.00000  Uiso   1.00
C197   C     0.72431   0.09921   0.19844   0.00000  Uiso   1.00
O198   O     0.76543   0.10041   0.17155   0.00000  Uiso   1.00
O199   O     0.70138   0.06111   0.20690   0.00000  Uiso   1.00
H200   H     0.72133   0.03751   0.18595   0.00000  Uiso   1.00
N201   N     0.97298   0.12557   0.17119   0.00000  Uiso   1.00
H202   H     0.99776   0.13455   0.13862   0.00000  Uiso   1.00
C203   C     0.95716   0.08344   0.16701   0.00000  Uiso   1.00
H204   H     0.98493   0.06530   0.13785   0.00000  Uiso   1.00
H205   H     0.92354   0.08306   0.15480   0.00000  Uiso   1.00
H206   H     0.95048   0.06849   0.20355   0.00000  Uiso   1.00
C207   C     0.96365   0.17570   0.40498   0.00000  Uiso   1.00
O208   O     0.98820   0.15030   0.37446   0.00000  Uiso   1.00
O209   O     0.97947   0.21623   0.40959   0.00000  Uiso   1.00
H210   H     0.67752   0.22242   0.38378   0.00000  Uiso   1.00
N211   N     0.79255   0.14564   0.08874   0.00000  Uiso   1.00
H212   H     0.76385   0.16507   0.10486   0.00000  Uiso   1.00
C213   C     0.78188   0.10717   0.06433   0.00000  Uiso   1.00
H214   H     0.74725   0.09453   0.08693   0.00000  Uiso   1.00
H215   H     0.81089   0.08425   0.06157   0.00000  Uiso   1.00
H216   H     0.77785   0.11156   0.02590   0.00000  Uiso   1.00
C217   C     0.16652   0.57923   0.25120   0.00000  Uiso   1.00
C218   C     0.15174   0.51040   0.48635   0.00000  Uiso   1.00
C219   C     0.16497   0.49936   0.43352   0.00000  Uiso   1.00
C220   C     0.18544   0.50510   0.01451   0.00000  Uiso   1.00
C221   C     0.23486   0.50439   0.48857   0.00000  Uiso   1.00
C222   C     0.24861   0.49853   0.43559   0.00000  Uiso   1.00
C223   C     0.21380   0.48849   0.41061   0.00000  Uiso   1.00
C224   C     0.17135   0.49763   0.06682   0.00000  Uiso   1.00
C225   C     0.25473   0.50617   0.06888   0.00000  Uiso   1.00
C226   C     0.12954   0.50189   0.40595   0.00000  Uiso   1.00
C227   C     0.20567   0.64611   0.26082   0.00000  Uiso   1.00
C228   C     0.14164   0.49904   0.34955   0.00000  Uiso   1.00
C229   C     0.20493   0.35549   0.26249   0.00000  Uiso   1.00
C230   C     0.16490   0.37636   0.25607   0.00000  Uiso   1.00
C231   C     0.12384   0.35424   0.25331   0.00000  Uiso   1.00
C232   C     0.12432   0.64496   0.25182   0.00000  Uiso   1.00
C233   C     0.16576   0.62398   0.25417   0.00000  Uiso   1.00
C234   C     0.30137   0.52809   0.27973   0.00000  Uiso   1.00
C235   C     0.01792   0.52944   0.27751   0.00000  Uiso   1.00
C236   C     0.03100   0.47065   0.22153   0.00000  Uiso   1.00
C237   C     0.31639   0.47395   0.21715   0.00000  Uiso   1.00
C238   C     0.16596   0.42090   0.25219   0.00000  Uiso   1.00
C239   C     0.19207   0.49964   0.15056   0.00000  Uiso   1.00
C240   C     0.26915   0.50582   0.01617   0.00000  Uiso   1.00
C241   C     0.20604   0.50111   0.09475   0.00000  Uiso   1.00
C242   C     0.08270   0.51417   0.43249   0.00000  Uiso   1.00
C243   C     0.07178   0.52904   0.48288   0.00000  Uiso   1.00
C244   C     0.10616   0.52791   0.00939   0.00000  Uiso   1.00
Cu245  Cu    0.11978   0.49999   0.25000   0.00000  Uiso   1.00
Cu246  Cu    0.21355   0.50001   0.25000   0.00000  Uiso   1.00
H247   H     0.28215   0.50813   0.08911   0.00000  Uiso   1.00
H248   H     0.23557   0.37198   0.26901   0.00000  Uiso   1.00
H249   H     0.09145   0.36980   0.25227   0.00000  Uiso   1.00
H250   H     0.09237   0.62857   0.24842   0.00000  Uiso   1.00
H251   H     0.27707   0.55062   0.30395   0.00000  Uiso   1.00
H252   H     0.03109   0.55362   0.29873   0.00000  Uiso   1.00
H253   H     0.30710   0.50473   0.49700   0.00000  Uiso   1.00
H254   H     0.05542   0.51513   0.41296   0.00000  Uiso   1.00
H255   H     0.09736   0.54202   0.04748   0.00000  Uiso   1.00
H256   H     0.03706   0.54284   0.00120   0.00000  Uiso   1.00
H257   H     0.22720   0.47454   0.37293   0.00000  Uiso   1.00
H258   H     0.23734   0.63054   0.26476   0.00000  Uiso   1.00
N259   N     0.04931   0.49999   0.24999   0.00000  Uiso   1.00
N260   N     0.28402   0.50002   0.25000   0.00000  Uiso   1.00
O261   O     0.12708   0.56011   0.25001   0.00000  Uiso   1.00
O262   O     0.20627   0.56012   0.25001   0.00000  Uiso   1.00
O263   O     0.10775   0.49998   0.32549   0.00000  Uiso   1.00
O264   O     0.18694   0.49999   0.32549   0.00000  Uiso   1.00
O265   O     0.12706   0.43988   0.25000   0.00000  Uiso   1.00
O266   O     0.20625   0.43989   0.25000   0.00000  Uiso   1.00
O267   O     0.14640   0.50001   0.17451   0.00000  Uiso   1.00
O268   O     0.22559   0.50002   0.17451   0.00000  Uiso   1.00
C269   C     0.05765   0.43255   0.19844   0.00000  Uiso   1.00
O270   O     0.09876   0.43375   0.17155   0.00000  Uiso   1.00
O271   O     0.03472   0.39445   0.20690   0.00000  Uiso   1.00
H272   H     0.05466   0.37084   0.18595   0.00000  Uiso   1.00
N273   N     0.30631   0.45890   0.17119   0.00000  Uiso   1.00
H274   H     0.33109   0.46788   0.13862   0.00000  Uiso   1.00
C275   C     0.29049   0.41677   0.16701   0.00000  Uiso   1.00
H276   H     0.31827   0.39864   0.13785   0.00000  Uiso   1.00
H277   H     0.25687   0.41639   0.15480   0.00000  Uiso   1.00
H278   H     0.28381   0.40182   0.20355   0.00000  Uiso   1.00
C279   C     0.29698   0.50903   0.40498   0.00000  Uiso   1.00
O280   O     0.32153   0.48363   0.37446   0.00000  Uiso   1.00
O281   O     0.31280   0.54956   0.40959   0.00000  Uiso   1.00
H282   H     0.01085   0.55575   0.38378   0.00000  Uiso   1.00
N283   N     0.12589   0.47898   0.08874   0.00000  Uiso   1.00
H284   H     0.09718   0.49841   0.10486   0.00000  Uiso   1.00
C285   C     0.11522   0.44051   0.06433   0.00000  Uiso   1.00
H286   H     0.08058   0.42786   0.08693   0.00000  Uiso   1.00
H287   H     0.14422   0.41758   0.06157   0.00000  Uiso   1.00
H288   H     0.11118   0.44489   0.02590   0.00000  Uiso   1.00
C289   C     0.49985   0.57923   0.25120   0.00000  Uiso   1.00
C290   C     0.48507   0.51040   0.48635   0.00000  Uiso   1.00
C291   C     0.49830   0.49936   0.43352   0.00000  Uiso   1.00
C292   C     0.51878   0.50510   0.01451   0.00000  Uiso   1.00
C293   C     0.56820   0.50439   0.48857   0.00000  Uiso   1.00
C294   C     0.58194   0.49853   0.43559   0.00000  Uiso   1.00
C295   C     0.54713   0.48849   0.41061   0.00000  Uiso   1.00
C296   C     0.50469   0.49763   0.06682   0.00000  Uiso   1.00
C297   C     0.58806   0.50617   0.06888   0.00000  Uiso   1.00
C298   C     0.46287   0.50189   0.40595   0.00000  Uiso   1.00
C299   C     0.53900   0.64611   0.26082   0.00000  Uiso   1.00
C300   C     0.47497   0.49904   0.34955   0.00000  Uiso   1.00
C301   C     0.53826   0.35549   0.26249   0.00000  Uiso   1.00
C302   C     0.49823   0.37636   0.25607   0.00000  Uiso   1.00
C303   C     0.45718   0.35424   0.25331   0.00000  Uiso   1.00
C304   C     0.45765   0.64496   0.25182   0.00000  Uiso   1.00
C305   C     0.49909   0.62398   0.25417   0.00000  Uiso   1.00
C306   C     0.63471   0.52809   0.27973   0.00000  Uiso   1.00
C307   C     0.35125   0.52944   0.27751   0.00000  Uiso   1.00
C308   C     0.36434   0.47065   0.22153   0.00000  Uiso   1.00
C309   C     0.64972   0.47395   0.21715   0.00000  Uiso   1.00
C310   C     0.49930   0.42090   0.25219   0.00000  Uiso   1.00
C311   C     0.52540   0.49964   0.15056   0.00000  Uiso   1.00
C312   C     0.60248   0.50582   0.01617   0.00000  Uiso   1.00
C313   C     0.53937   0.50111   0.09475   0.00000  Uiso   1.00
C314   C     0.41603   0.51417   0.43249   0.00000  Uiso   1.00
C315   C     0.40511   0.52904   0.48288   0.00000  Uiso   1.00
C316   C     0.43949   0.52791   0.00939   0.00000  Uiso   1.00
Cu317  Cu    0.45311   0.49999   0.25000   0.00000  Uiso   1.00
Cu318  Cu    0.54689   0.50001   0.25000   0.00000  Uiso   1.00
H319   H     0.61548   0.50813   0.08911   0.00000  Uiso   1.00
H320   H     0.56890   0.37198   0.26901   0.00000  Uiso   1.00
H321   H     0.42478   0.36980   0.25227   0.00000  Uiso   1.00
H322   H     0.42570   0.62857   0.24842   0.00000  Uiso   1.00
H323   H     0.61041   0.55062   0.30395   0.00000  Uiso   1.00
H324   H     0.36442   0.55362   0.29873   0.00000  Uiso   1.00
H325   H     0.64043   0.50473   0.49700   0.00000  Uiso   1.00
H326   H     0.38875   0.51513   0.41296   0.00000  Uiso   1.00
H327   H     0.43070   0.54202   0.04748   0.00000  Uiso   1.00
H328   H     0.37040   0.54284   0.00120   0.00000  Uiso   1.00
H329   H     0.56053   0.47454   0.37293   0.00000  Uiso   1.00
H330   H     0.57068   0.63054   0.26476   0.00000  Uiso   1.00
N331   N     0.38265   0.49999   0.24999   0.00000  Uiso   1.00
N332   N     0.61735   0.50002   0.25000   0.00000  Uiso   1.00
O333   O     0.46042   0.56011   0.25001   0.00000  Uiso   1.00
O334   O     0.53961   0.56012   0.25001   0.00000  Uiso   1.00
O335   O     0.44108   0.49998   0.32549   0.00000  Uiso   1.00
O336   O     0.52027   0.49999   0.32549   0.00000  Uiso   1.00
O337   O     0.46039   0.43988   0.25000   0.00000  Uiso   1.00
O338   O     0.53958   0.43989   0.25000   0.00000  Uiso   1.00
O339   O     0.47973   0.50001   0.17451   0.00000  Uiso   1.00
O340   O     0.55892   0.50002   0.17451   0.00000  Uiso   1.00
C341   C     0.39098   0.43255   0.19844   0.00000  Uiso   1.00
O342   O     0.43210   0.43375   0.17155   0.00000  Uiso   1.00
O343   O     0.36805   0.39445   0.20690   0.00000  Uiso   1.00
H344   H     0.38800   0.37084   0.18595   0.00000  Uiso   1.00
N345   N     0.63964   0.45890   0.17119   0.00000  Uiso   1.00
H346   H     0.66442   0.46788   0.13862   0.00000  Uiso   1.00
C347   C     0.62383   0.41677   0.16701   0.00000  Uiso   1.00
H348   H     0.65160   0.39864   0.13785   0.00000  Uiso   1.00
H349   H     0.59021   0.41639   0.15480   0.00000  Uiso   1.00
H350   H     0.61715   0.40182   0.20355   0.00000  Uiso   1.00
C351   C     0.63032   0.50903   0.40498   0.00000  Uiso   1.00
O352   O     0.65487   0.48363   0.37446   0.00000  Uiso   1.00
O353   O     0.64613   0.54956   0.40959   0.00000  Uiso   1.00
H354   H     0.34419   0.55575   0.38378   0.00000  Uiso   1.00
N355   N     0.45922   0.47898   0.08874   0.00000  Uiso   1.00
H356   H     0.43051   0.49841   0.10486   0.00000  Uiso   1.00
C357   C     0.44855   0.44051   0.06433   0.00000  Uiso   1.00
H358   H     0.41391   0.42786   0.08693   0.00000  Uiso   1.00
H359   H     0.47755   0.41758   0.06157   0.00000  Uiso   1.00
H360   H     0.44451   0.44489   0.02590   0.00000  Uiso   1.00
C361   C     0.83319   0.57923   0.25120   0.00000  Uiso   1.00
C362   C     0.81840   0.51040   0.48635   0.00000  Uiso   1.00
C363   C     0.83164   0.49936   0.43352   0.00000  Uiso   1.00
C364   C     0.85211   0.50510   0.01451   0.00000  Uiso   1.00
C365   C     0.90153   0.50439   0.48857   0.00000  Uiso   1.00
C366   C     0.91527   0.49853   0.43559   0.00000  Uiso   1.00
C367   C     0.88046   0.48849   0.41061   0.00000  Uiso   1.00
C368   C     0.83802   0.49763   0.06682   0.00000  Uiso   1.00
C369   C     0.92140   0.50617   0.06888   0.00000  Uiso   1.00
C370   C     0.79620   0.50189   0.40595   0.00000  Uiso   1.00
C371   C     0.87233   0.64611   0.26082   0.00000  Uiso   1.00
C372   C     0.80831   0.49904   0.34955   0.00000  Uiso   1.00
C373   C     0.87160   0.35549   0.26249   0.00000  Uiso   1.00
C374   C     0.83156   0.37636   0.25607   0.00000  Uiso   1.00
C375   C     0.79051   0.35424   0.25331   0.00000  Uiso   1.00
C376   C     0.79098   0.64496   0.25182   0.00000  Uiso   1.00
C377   C     0.83242   0.62398   0.25417   0.00000  Uiso   1.00
C378   C     0.96804   0.52809   0.27973   0.00000  Uiso   1.00
C379   C     0.68458   0.52944   0.27751   0.00000  Uiso   1.00
C380   C     0.69767   0.47065   0.22153   0.00000  Uiso   1.00
C381   C     0.98305   0.47395   0.21715   0.00000  Uiso   1.00
C382   C     0.83263   0.42090   0.25219   0.00000  Uiso   1.00
C383   C     0.85874   0.49964   0.15056   0.00000  Uiso   1.00
C384   C     0.93582   0.50582   0.01617   0.00000  Uiso   1.00
C385   C     0.87270   0.50111   0.09475   0.00000  Uiso   1.00
C386   C     0.74936   0.51417   0.43249   0.00000  Uiso   1.00
C387   C     0.73844   0.52904   0.48288   0.00000  Uiso   1.00
C388   C     0.77282   0.52791   0.00939   0.00000  Uiso   1.00
Cu389  Cu    0.78645   0.49999   0.25000   0.00000  Uiso   1.00
Cu390  Cu    0.88022   0.50001   0.25000   0.00000  Uiso   1.00
H391   H     0.94882   0.50813   0.08911   0.00000  Uiso   1.00
H392   H     0.90224   0.37198   0.26901   0.00000  Uiso   1.00
H393   H     0.75812   0.36980   0.25227   0.00000  Uiso   1.00
H394   H     0.75903   0.62857   0.24842   0.00000  Uiso   1.00
H395   H     0.94374   0.55062   0.30395   0.00000  Uiso   1.00
H396   H     0.69776   0.55362   0.29873   0.00000  Uiso   1.00
H397   H     0.97377   0.50473   0.49700   0.00000  Uiso   1.00
H398   H     0.72208   0.51513   0.41296   0.00000  Uiso   1.00
H399   H     0.76403   0.54202   0.04748   0.00000  Uiso   1.00
H400   H     0.70373   0.54284   0.00120   0.00000  Uiso   1.00
H401   H     0.89386   0.47454   0.37293   0.00000  Uiso   1.00
H402   H     0.90401   0.63054   0.26476   0.00000  Uiso   1.00
N403   N     0.71598   0.49999   0.24999   0.00000  Uiso   1.00
N404   N     0.95069   0.50002   0.25000   0.00000  Uiso   1.00
O405   O     0.79375   0.56011   0.25001   0.00000  Uiso   1.00
O406   O     0.87294   0.56012   0.25001   0.00000  Uiso   1.00
O407   O     0.77441   0.49998   0.32549   0.00000  Uiso   1.00
O408   O     0.85360   0.49999   0.32549   0.00000  Uiso   1.00
O409   O     0.79373   0.43988   0.25000   0.00000  Uiso   1.00
O410   O     0.87292   0.43989   0.25000   0.00000  Uiso   1.00
O411   O     0.81306   0.50001   0.17451   0.00000  Uiso   1.00
O412   O     0.89225   0.50002   0.17451   0.00000  Uiso   1.00
C413   C     0.72431   0.43255   0.19844   0.00000  Uiso   1.00
O414   O     0.76543   0.43375   0.17155   0.00000  Uiso   1.00
O415   O     0.70138   0.39445   0.20690   0.00000  Uiso   1.00
H416   H     0.72133   0.37084   0.18595   0.00000  Uiso   1.00
N417   N     0.97298   0.45890   0.17119   0.00000  Uiso   1.00
H418   H     0.99776   0.46788   0.13862   0.00000  Uiso   1.00
C419   C     0.95716   0.41677   0.16701   0.00000  Uiso   1.00
H420   H     0.98493   0.39864   0.13785   0.00000  Uiso   1.00
H421   H     0.92354   0.41639   0.15480   0.00000  Uiso   1.00
H422   H     0.95048   0.40182   0.20355   0.00000  Uiso   1.00
C423   C     0.96365   0.50903   0.40498   0.00000  Uiso   1.00
O424   O     0.98820   0.48363   0.37446   0.00000  Uiso   1.00
O425   O     0.97947   0.54956   0.40959   0.00000  Uiso   1.00
H426   H     0.67752   0.55575   0.38378   0.00000  Uiso   1.00
N427   N     0.79255   0.47898   0.08874   0.00000  Uiso   1.00
H428   H     0.76385   0.49841   0.10486   0.00000  Uiso   1.00
C429   C     0.78188   0.44051   0.06433   0.00000  Uiso   1.00
H430   H     0.74725   0.42786   0.08693   0.00000  Uiso   1.00
H431   H     0.81089   0.41758   0.06157   0.00000  Uiso   1.00
H432   H     0.77785   0.44489   0.02590   0.00000  Uiso   1.00
C433   C     0.16652   0.91256   0.25120   0.00000  Uiso   1.00
C434   C     0.15174   0.84374   0.48635   0.00000  Uiso   1.00
C435   C     0.16497   0.83269   0.43352   0.00000  Uiso   1.00
C436   C     0.18544   0.83843   0.01451   0.00000  Uiso   1.00
C437   C     0.23486   0.83772   0.48857   0.00000  Uiso   1.00
C438   C     0.24861   0.83186   0.43559   0.00000  Uiso   1.00
C439   C     0.21380   0.82182   0.41061   0.00000  Uiso   1.00
C440   C     0.17135   0.83096   0.06682   0.00000  Uiso   1.00
C441   C     0.25473   0.83951   0.06888   0.00000  Uiso   1.00
C442   C     0.12954   0.83523   0.40595   0.00000  Uiso   1.00
C443   C     0.20567   0.97944   0.26082   0.00000  Uiso   1.00
C444   C     0.14164   0.83238   0.34955   0.00000  Uiso   1.00
C445   C     0.20493   0.68882   0.26249   0.00000  Uiso   1.00
C446   C     0.16490   0.70969   0.25607   0.00000  Uiso   1.00
C447   C     0.12384   0.68758   0.25331   0.00000  Uiso   1.00
C448   C     0.12432   0.97829   0.25182   0.00000  Uiso   1.00
C449   C     0.16576   0.95732   0.25417   0.00000  Uiso   1.00
C450   C     0.30137   0.86142   0.27973   0.00000  Uiso   1.00
C451   C     0.01792   0.86277   0.27751   0.00000  Uiso   1.00
C452   C     0.03100   0.80399   0.22153   0.00000  Uiso   1.00
C453   C     0.31639   0.80729   0.21715   0.00000  Uiso   1.00
C454   C     0.16596   0.75423   0.25219   0.00000  Uiso   1.00
C455   C     0.19207   0.83297   0.15056   0.00000  Uiso   1.00
C456   C     0.26915   0.83915   0.01617   0.00000  Uiso   1.00
C457   C     0.20604   0.83444   0.09475   0.00000  Uiso   1.00
C458   C     0.08270   0.84751   0.43249   0.00000  Uiso   1.00
C459   C     0.07178   0.86237   0.48288   0.00000  Uiso   1.00
C460   C     0.10616   0.86125   0.00939   0.00000  Uiso   1.00
Cu461  Cu    0.11978   0.83333   0.25000   0.00000  Uiso   1.00
Cu462  Cu    0.21355   0.83334   0.25000   0.00000  Uiso   1.00
H463   H     0.28215   0.84146   0.08911   0.00000  Uiso   1.00
H464   H     0.23557   0.70531   0.26901   0.00000  Uiso   1.00
H465   H     0.09145   0.70314   0.25227   0.00000  Uiso   1.00
H466   H     0.09237   0.96191   0.24842   0.00000  Uiso   1.00
H467   H     0.27707   0.88395   0.30395   0.00000  Uiso   1.00
H468   H     0.03109   0.88695   0.29873   0.00000  Uiso   1.00
H469   H     0.30710   0.83806   0.49700   0.00000  Uiso   1.00
H470   H     0.05542   0.84846   0.41296   0.00000  Uiso   1.00
H471   H     0.09736   0.87536   0.04748   0.00000  Uiso   1.00
H472   H     0.03706   0.87617   0.00120   0.00000  Uiso   1.00
H473   H     0.22720   0.80787   0.37293   0.00000  Uiso   1.00
H474   H     0.23734   0.96387   0.26476   0.00000  Uiso   1.00
N475   N     0.04931   0.83332   0.24999   0.00000  Uiso   1.00
N476   N     0.28402   0.83335   0.25000   0.00000  Uiso   1.00
O477   O     0.12708   0.89345   0.25001   0.00000  Uiso   1.00
O478   O     0.20627   0.89346   0.25001   0.00000  Uiso   1.00
O479   O     0.10775   0.83332   0.32549   0.00000  Uiso   1.00
O480   O     0.18694   0.83333   0.32549   0.00000  Uiso   1.00
O481   O     0.12706   0.77321   0.25000   0.00000  Uiso   1.00
O482   O     0.20625   0.77322   0.25000   0.00000  Uiso   1.00
O483   O     0.14640   0.83334   0.17451   0.00000  Uiso   1.00
O484   O     0.22559   0.83335   0.17451   0.00000  Uiso   1.00
C485   C     0.05765   0.76588   0.19844   0.00000  Uiso   1.00
O486   O     0.09876   0.76708   0.17155   0.00000  Uiso   1.00
O487   O     0.03472   0.72778   0.20690   0.00000  Uiso   1.00
H488   H     0.05466   0.70417   0.18595   0.00000  Uiso   1.00
N489   N     0.30631   0.79224   0.17119   0.00000  Uiso   1.00
H490   H     0.33109   0.80122   0.13862   0.00000  Uiso   1.00
C491   C     0.29049   0.75011   0.16701   0.00000  Uiso   1.00
H492   H     0.31827   0.73197   0.13785   0.00000  Uiso   1.00
H493   H     0.25687   0.74973   0.15480   0.00000  Uiso   1.00
H494   H     0.28381   0.73516   0.20355   0.00000  Uiso   1.00
C495   C     0.29698   0.84236   0.40498   0.00000  Uiso   1.00
O496   O     0.32153   0.81696   0.37446   0.00000  Uiso   1.00
O497   O     0.31280   0.88290   0.40959   0.00000  Uiso   1.00
H498   H     0.01085   0.88909   0.38378   0.00000  Uiso   1.00
N499   N     0.12589   0.81231   0.08874   0.00000  Uiso   1.00
H500   H     0.09718   0.83174   0.10486   0.00000  Uiso   1.00
C501   C     0.11522   0.77384   0.06433   0.00000  Uiso   1.00
H502   H     0.08058   0.76120   0.08693   0.00000  Uiso   1.00
H503   H     0.14422   0.75091   0.06157   0.00000  Uiso   1.00
H504   H     0.11118   0.77823   0.02590   0.00000  Uiso   1.00
C505   C     0.49985   0.91256   0.25120   0.00000  Uiso   1.00
C506   C     0.48507   0.84374   0.48635   0.00000  Uiso   1.00
C507   C     0.49830   0.83269   0.43352   0.00000  Uiso   1.00
C508   C     0.51878   0.83843   0.01451   0.00000  Uiso   1.00
C509   C     0.56820   0.83772   0.48857   0.00000  Uiso   1.00
C510   C     0.58194   0.83186   0.43559   0.00000  Uiso   1.00
C511   C     0.54713   0.82182   0.41061   0.00000  Uiso   1.00
C512   C     0.50469   0.83096   0.06682   0.00000  Uiso   1.00
C513   C     0.58806   0.83951   0.06888   0.00000  Uiso   1.00
C514   C     0.46287   0.83523   0.40595   0.00000  Uiso   1.00
C515   C     0.53900   0.97944   0.26082   0.00000  Uiso   1.00
C516   C     0.47497   0.83238   0.34955   0.00000  Uiso   1.00
C517   C     0.53826   0.68882   0.26249   0.00000  Uiso   1.00
C518   C     0.49823   0.70969   0.25607   0.00000  Uiso   1.00
C519   C     0.45718   0.68758   0.25331   0.00000  Uiso   1.00
C520   C     0.45765   0.97829   0.25182   0.00000  Uiso   1.00
C521   C     0.49909   0.95732   0.25417   0.00000  Uiso   1.00
C522   C     0.63471   0.86142   0.27973   0.00000  Uiso   1.00
C523   C     0.35125   0.86277   0.27751   0.00000  Uiso   1.00
C524   C     0.36434   0.80399   0.22153   0.00000  Uiso   1.00
C525   C     0.64972   0.80729   0.21715   0.00000  Uiso   1.00
C526   C     0.49930   0.75423   0.25219   0.00000  Uiso   1.00
C527   C     0.52540   0.83297   0.15056   0.00000  Uiso   1.00
C528   C     0.60248   0.83915   0.01617   0.00000  Uiso   1.00
C529   C     0.53937   0.83444   0.09475   0.00000  Uiso   1.00
C530   C     0.41603   0.84751   0.43249   0.00000  Uiso   1.00
C531   C     0.40511   0.86237   0.48288   0.00000  Uiso   1.00
C532   C     0.43949   0.86125   0.00939   0.00000  Uiso   1.00
Cu533  Cu    0.45311   0.83333   0.25000   0.00000  Uiso   1.00
Cu534  Cu    0.54689   0.83334   0.25000   0.00000  Uiso   1.00
H535   H     0.61548   0.84146   0.08911   0.00000  Uiso   1.00
H536   H     0.56890   0.70531   0.26901   0.00000  Uiso   1.00
H537   H     0.42478   0.70314   0.25227   0.00000  Uiso   1.00
H538   H     0.42570   0.96191   0.24842   0.00000  Uiso   1.00
H539   H     0.61041   0.88395   0.30395   0.00000  Uiso   1.00
H540   H     0.36442   0.88695   0.29873   0.00000  Uiso   1.00
H541   H     0.64043   0.83806   0.49700   0.00000  Uiso   1.00
H542   H     0.38875   0.84846   0.41296   0.00000  Uiso   1.00
H543   H     0.43070   0.87536   0.04748   0.00000  Uiso   1.00
H544   H     0.37040   0.87617   0.00120   0.00000  Uiso   1.00
H545   H     0.56053   0.80787   0.37293   0.00000  Uiso   1.00
H546   H     0.57068   0.96387   0.26476   0.00000  Uiso   1.00
N547   N     0.38265   0.83332   0.24999   0.00000  Uiso   1.00
N548   N     0.61735   0.83335   0.25000   0.00000  Uiso   1.00
O549   O     0.46042   0.89345   0.25001   0.00000  Uiso   1.00
O550   O     0.53961   0.89346   0.25001   0.00000  Uiso   1.00
O551   O     0.44108   0.83332   0.32549   0.00000  Uiso   1.00
O552   O     0.52027   0.83333   0.32549   0.00000  Uiso   1.00
O553   O     0.46039   0.77321   0.25000   0.00000  Uiso   1.00
O554   O     0.53958   0.77322   0.25000   0.00000  Uiso   1.00
O555   O     0.47973   0.83334   0.17451   0.00000  Uiso   1.00
O556   O     0.55892   0.83335   0.17451   0.00000  Uiso   1.00
C557   C     0.39098   0.76588   0.19844   0.00000  Uiso   1.00
O558   O     0.43210   0.76708   0.17155   0.00000  Uiso   1.00
O559   O     0.36805   0.72778   0.20690   0.00000  Uiso   1.00
H560   H     0.38800   0.70417   0.18595   0.00000  Uiso   1.00
N561   N     0.63964   0.79224   0.17119   0.00000  Uiso   1.00
H562   H     0.66442   0.80122   0.13862   0.00000  Uiso   1.00
C563   C     0.62383   0.75011   0.16701   0.00000  Uiso   1.00
H564   H     0.65160   0.73197   0.13785   0.00000  Uiso   1.00
H565   H     0.59021   0.74973   0.15480   0.00000  Uiso   1.00
H566   H     0.61715   0.73516   0.20355   0.00000  Uiso   1.00
C567   C     0.63032   0.84236   0.40498   0.00000  Uiso   1.00
O568   O     0.65487   0.81696   0.37446   0.00000  Uiso   1.00
O569   O     0.64613   0.88290   0.40959   0.00000  Uiso   1.00
H570   H     0.34419   0.88909   0.38378   0.00000  Uiso   1.00
N571   N     0.45922   0.81231   0.08874   0.00000  Uiso   1.00
H572   H     0.43051   0.83174   0.10486   0.00000  Uiso   1.00
C573   C     0.44855   0.77384   0.06433   0.00000  Uiso   1.00
H574   H     0.41391   0.76120   0.08693   0.00000  Uiso   1.00
H575   H     0.47755   0.75091   0.06157   0.00000  Uiso   1.00
H576   H     0.44451   0.77823   0.02590   0.00000  Uiso   1.00
C577   C     0.83319   0.91256   0.25120   0.00000  Uiso   1.00
C578   C     0.81840   0.84374   0.48635   0.00000  Uiso   1.00
C579   C     0.83164   0.83269   0.43352   0.00000  Uiso   1.00
C580   C     0.85211   0.83843   0.01451   0.00000  Uiso   1.00
C581   C     0.90153   0.83772   0.48857   0.00000  Uiso   1.00
C582   C     0.91527   0.83186   0.43559   0.00000  Uiso   1.00
C583   C     0.88046   0.82182   0.41061   0.00000  Uiso   1.00
C584   C     0.83802   0.83096   0.06682   0.00000  Uiso   1.00
C585   C     0.92140   0.83951   0.06888   0.00000  Uiso   1.00
C586   C     0.79620   0.83523   0.40595   0.00000  Uiso   1.00
C587   C     0.87233   0.97944   0.26082   0.00000  Uiso   1.00
C588   C     0.80831   0.83238   0.34955   0.00000  Uiso   1.00
C589   C     0.87160   0.68882   0.26249   0.00000  Uiso   1.00
C590   C     0.83156   0.70969   0.25607   0.00000  Uiso   1.00
C591   C     0.79051   0.68758   0.25331   0.00000  Uiso   1.00
C592   C     0.79098   0.97829   0.25182   0.00000  Uiso   1.00
C593   C     0.83242   0.95732   0.25417   0.00000  Uiso   1.00
C594   C     0.96804   0.86142   0.27973   0.00000  Uiso   1.00
C595   C     0.68458   0.86277   0.27751   0.00000  Uiso   1.00
C596   C     0.69767   0.80399   0.22153   0.00000  Uiso   1.00
C597   C     0.98305   0.80729   0.21715   0.00000  Uiso   1.00
C598   C     0.83263   0.75423   0.25219   0.00000  Uiso   1.00
C599   C     0.85874   0.83297   0.15056   0.00000  Uiso   1.00
C600   C     0.93582   0.83915   0.01617   0.00000  Uiso   1.00
C601   C     0.87270   0.83444   0.09475   0.00000  Uiso   1.00
C602   C     0.74936   0.84751   0.43249   0.00000  Uiso   1.00
C603   C     0.73844   0.86237   0.48288   0.00000  Uiso   1.00
C604   C     0.77282   0.86125   0.00939   0.00000  Uiso   1.00
Cu605  Cu    0.78645   0.83333   0.25000   0.00000  Uiso   1.00
Cu606  Cu    0.88022   0.83334   0.25000   0.00000  Uiso   1.00
H607   H     0.94882   0.84146   0.08911   0.00000  Uiso   1.00
H608   H     0.90224   0.70531   0.26901   0.00000  Uiso   1.00
H609   H     0.75812   0.70314   0.25227   0.00000  Uiso   1.00
H610   H     0.75903   0.96191   0.24842   0.00000  Uiso   1.00
H611   H     0.94374   0.88395   0.30395   0.00000  Uiso   1.00
H612   H     0.69776   0.88695   0.29873   0.00000  Uiso   1.00
H613   H     0.97377   0.83806   0.49700   0.00000  Uiso   1.00
H614   H     0.72208   0.84846   0.41296   0.00000  Uiso   1.00
H615   H     0.76403   0.87536   0.04748   0.00000  Uiso   1.00
H616   H     0.70373   0.87617   0.00120   0.00000  Uiso   1.00
H617   H     0.89386   0.80787   0.37293   0.00000  Uiso   1.00
H618   H     0.90401   0.96387   0.26476   0.00000  Uiso   1.00
N619   N     0.71598   0.83332   0.24999   0.00000  Uiso   1.00
N620   N     0.95069   0.83335   0.25000   0.00000  Uiso   1.00
O621   O     0.79375   0.89345   0.25001   0.00000  Uiso   1.00
O622   O     0.87294   0.89346   0.25001   0.00000  Uiso   1.00
O623   O     0.77441   0.83332   0.32549   0.00000  Uiso   1.00
O624   O     0.85360   0.83333   0.32549   0.00000  Uiso   1.00
O625   O     0.79373   0.77321   0.25000   0.00000  Uiso   1.00
O626   O     0.87292   0.77322   0.25000   0.00000  Uiso   1.00
O627   O     0.81306   0.83334   0.17451   0.00000  Uiso   1.00
O628   O     0.89225   0.83335   0.17451   0.00000  Uiso   1.00
C629   C     0.72431   0.76588   0.19844   0.00000  Uiso   1.00
O630   O     0.76543   0.76708   0.17155   0.00000  Uiso   1.00
O631   O     0.70138   0.72778   0.20690   0.00000  Uiso   1.00
H632   H     0.72133   0.70417   0.18595   0.00000  Uiso   1.00
N633   N     0.97298   0.79224   0.17119   0.00000  Uiso   1.00
H634   H     0.99776   0.80122   0.13862   0.00000  Uiso   1.00
C635   C     0.95716   0.75011   0.16701   0.00000  Uiso   1.00
H636   H     0.98493   0.73197   0.13785   0.00000  Uiso   1.00
H637   H     0.92354   0.74973   0.15480   0.00000  Uiso   1.00
H638   H     0.95048   0.73516   0.20355   0.00000  Uiso   1.00
C639   C     0.96365   0.84236   0.40498   0.00000  Uiso   1.00
O640   O     0.98820   0.81696   0.37446   0.00000  Uiso   1.00
O641   O     0.97947   0.88290   0.40959   0.00000  Uiso   1.00
H642   H     0.67752   0.88909   0.38378   0.00000  Uiso   1.00
N643   N     0.79255   0.81231   0.08874   0.00000  Uiso   1.00
H644   H     0.76385   0.83174   0.10486   0.00000  Uiso   1.00
C645   C     0.78188   0.77384   0.06433   0.00000  Uiso   1.00
H646   H     0.74725   0.76120   0.08693   0.00000  Uiso   1.00
H647   H     0.81089   0.75091   0.06157   0.00000  Uiso   1.00
H648   H     0.77785   0.77823   0.02590   0.00000  Uiso   1.00
C649   C     0.16652   0.24590   0.75120   0.00000  Uiso   1.00
C650   C     0.15174   0.17707   0.98635   0.00000  Uiso   1.00
C651   C     0.16497   0.16602   0.93352   0.00000  Uiso   1.00
C652   C     0.18544   0.17177   0.51451   0.00000  Uiso   1.00
C653   C     0.23486   0.17105   0.98857   0.00000  Uiso   1.00
C654   C     0.24861   0.16519   0.93559   0.00000  Uiso   1.00
C655   C     0.21380   0.15516   0.91061   0.00000  Uiso   1.00
C656   C     0.17135   0.16430   0.56682   0.00000  Uiso   1.00
C657   C     0.25473   0.17284   0.56888   0.00000  Uiso   1.00
C658   C     0.12954   0.16856   0.90595   0.00000  Uiso   1.00
C659   C     0.20567   0.31278   0.76082   0.00000  Uiso   1.00
C660   C     0.14164   0.16571   0.84955   0.00000  Uiso   1.00
C661   C     0.20493   0.02215   0.76249   0.00000  Uiso   1.00
C662   C     0.16490   0.04302   0.75607   0.00000  Uiso   1.00
C663   C     0.12384   0.02091   0.75331   0.00000  Uiso   1.00
C664   C     0.12432   0.31163   0.75182   0.00000  Uiso   1.00
C665   C     0.16576   0.29065   0.75417   0.00000  Uiso   1.00
C666   C     0.30137   0.19475   0.77973   0.00000  Uiso   1.00
C667   C     0.01792   0.19610   0.77751   0.00000  Uiso   1.00
C668   C     0.03100   0.13732   0.72153   0.00000  Uiso   1.00
C669   C     0.31639   0.14062   0.71715   0.00000  Uiso   1.00
C670   C     0.16596   0.08756   0.75219   0.00000  Uiso   1.00
C671   C     0.19207   0.16631   0.65056   0.00000  Uiso   1.00
C672   C     0.26915   0.17248   0.51617   0.00000  Uiso   1.00
C673   C     0.20604   0.16777   0.59475   0.00000  Uiso   1.00
C674   C     0.08270   0.18084   0.93249   0.00000  Uiso   1.00
C675   C     0.07178   0.19571   0.98288   0.00000  Uiso   1.00
C676   C     0.10616   0.19458   0.50939   0.00000  Uiso   1.00
Cu677  Cu    0.11978   0.16666   0.75000   0.00000  Uiso   1.00
Cu678  Cu    0.21355   0.16667   0.75000   0.00000  Uiso   1.00
H679   H     0.28215   0.17480   0.58911   0.00000  Uiso   1.00
H680   H     0.23557   0.03865   0.76901   0.00000  Uiso   1.00
H681   H     0.09145   0.03647   0.75227   0.00000  Uiso   1.00
H682   H     0.09237   0.29524   0.74842   0.00000  Uiso   1.00
H683   H     0.27707   0.21729   0.80395   0.00000  Uiso   1.00
H684   H     0.03109   0.22029   0.79873   0.00000  Uiso   1.00
H685   H     0.30710   0.17139   0.99700   0.00000  Uiso   1.00
H686   H     0.05542   0.18180   0.91296   0.00000  Uiso   1.00
H687   H     0.09736   0.20869   0.54748   0.00000  Uiso   1.00
H688   H     0.03706   0.20950   0.50120   0.00000  Uiso   1.00
H689   H     0.22720   0.14120   0.87293   0.00000  Uiso   1.00
H690   H     0.23734   0.29720   0.76476   0.00000  Uiso   1.00
N691   N     0.04931   0.16666   0.74999   0.00000  Uiso   1.00
N692   N     0.28402   0.16669   0.75000   0.00000  Uiso   1.00
O693   O     0.12708   0.22678   0.75001   0.00000  Uiso   1.00
O694   O     0.20627   0.22679   0.75001   0.00000  Uiso   1.00
O695   O     0.10775   0.16665   0.82549   0.00000  Uiso   1.00
O696   O     0.18694   0.16666   0.82549   0.00000  Uiso   1.00
O697   O     0.12706   0.10654   0.75000   0.00000  Uiso   1.00
O698   O     0.20625   0.10655   0.75000   0.00000  Uiso   1.00
O699   O     0.14640   0.16667   0.67451   0.00000  Uiso   1.00
O700   O     0.22559   0.16668   0.67451   0.00000  Uiso   1.00
C701   C     0.05765   0.09921   0.69844   0.00000  Uiso   1.00
O702   O     0.09876   0.10041   0.67155   0.00000  Uiso   1.00
O703   O     0.03472   0.06111   0.70690   0.00000  Uiso   1.00
H704   H     0.05466   0.03751   0.68595   0.00000  Uiso   1.00
N705   N     0.30631   0.12557   0.67119   0.00000  Uiso   1.00
H706   H     0.33109   0.13455   0.63862   0.00000  Uiso   1.00
C707   C     0.29049   0.08344   0.66701   0.00000  Uiso   1.00
H708   H     0.31827   0.06530   0.63785   0.00000  Uiso   1.00
H709   H     0.25687   0.08306   0.65480   0.00000  Uiso   1.00
H710   H     0.28381   0.06849   0.70355   0.00000  Uiso   1.00
C711   C     0.29698   0.17570   0.90498   0.00000  Uiso   1.00
O712   O     0.32153   0.15030   0.87446   0.00000  Uiso   1.00
O713   O     0.31280   0.21623   0.90959   0.00000  Uiso   1.00
H714   H     0.01085   0.22242   0.88378   0.00000  Uiso   1.00
N715   N     0.12589   0.14564   0.58874   0.00000  Uiso   1.00
H716   H     0.09718   0.16507   0.60486   0.00000  Uiso   1.00
C717   C     0.11522   0.10717   0.56433   0.00000  Uiso   1.00
H718   H     0.08058   0.09453   0.58693   0.00000  Uiso   1.00
H719   H     0.14422   0.08425   0.56157   0.00000  Uiso   1.00
H720   H     0.11118   0.11156   0.52590   0.00000  Uiso   1.00
C721   C     0.49985   0.24590   0.75120   0.00000  Uiso   1.00
C722   C     0.48507   0.17707   0.98635   0.00000  Uiso   1.00
C723   C     0.49830   0.16602   0.93352   0.00000  Uiso   1.00
C724   C     0.51878   0.17177   0.51451   0.00000  Uiso   1.00
C725   C     0.56820   0.17105   0.98857   0.00000  Uiso   1.00
C726   C     0.58194   0.16519   0.93559   0.00000  Uiso   1.00
C727   C     0.54713   0.15516   0.91061   0.00000  Uiso   1.00
C728   C     0.50469   0.16430   0.56682   0.00000  Uiso   1.00
C729   C     0.58806   0.17284   0.56888   0.00000  Uiso   1.00
C730   C     0.46287   0.16856   0.90595   0.00000  Uiso   1.00
C731   C     0.53900   0.31278   0.76082   0.00000  Uiso   1.00
C732   C     0.47497   0.16571   0.84955   0.00000  Uiso   1.00
C733   C     0.53826   0.02215   0.76249   0.00000  Uiso   1.00
C734   C     0.49823   0.04302   0.75607   0.00000  Uiso   1.00
C735   C     0.45718   0.02091   0.75331   0.00000  Uiso   1.00
C736   C     0.45765   0.31163   0.75182   0.00000  Uiso   1.00
C737   C     0.49909   0.29065   0.75417   0.00000  Uiso   1.00
C738   C     0.63471   0.19475   0.77973   0.00000  Uiso   1.00
C739   C     0.35125   0.19610   0.77751   0.00000  Uiso   1.00
C740   C     0.36434   0.13732   0.72153   0.00000  Uiso   1.00
C741   C     0.64972   0.14062   0.71715   0.00000  Uiso   1.00
C742   C     0.49930   0.08756   0.75219   0.00000  Uiso   1.00
C743   C     0.52540   0.16631   0.65056   0.00000  Uiso   1.00
C744   C     0.60248   0.17248   0.51617   0.00000  Uiso   1.00
C745   C     0.53937   0.16777   0.59475   0.00000  Uiso   1.00
C746   C     0.41603   0.18084   0.93249   0.00000  Uiso   1.00
C747   C     0.40511   0.19571   0.98288   0.00000  Uiso   1.00
C748   C     0.43949   0.19458   0.50939   0.00000  Uiso   1.00
Cu749  Cu    0.45311   0.16666   0.75000   0.00000  Uiso   1.00
Cu750  Cu    0.54689   0.16667   0.75000   0.00000  Uiso   1.00
H751   H     0.61548   0.17480   0.58911   0.00000  Uiso   1.00
H752   H     0.56890   0.03865   0.76901   0.00000  Uiso   1.00
H753   H     0.42478   0.03647   0.75227   0.00000  Uiso   1.00
H754   H     0.42570   0.29524   0.74842   0.00000  Uiso   1.00
H755   H     0.61041   0.21729   0.80395   0.00000  Uiso   1.00
H756   H     0.36442   0.22029   0.79873   0.00000  Uiso   1.00
H757   H     0.64043   0.17139   0.99700   0.00000  Uiso   1.00
H758   H     0.38875   0.18180   0.91296   0.00000  Uiso   1.00
H759   H     0.43070   0.20869   0.54748   0.00000  Uiso   1.00
H760   H     0.37040   0.20950   0.50120   0.00000  Uiso   1.00
H761   H     0.56053   0.14120   0.87293   0.00000  Uiso   1.00
H762   H     0.57068   0.29720   0.76476   0.00000  Uiso   1.00
N763   N     0.38265   0.16666   0.74999   0.00000  Uiso   1.00
N764   N     0.61735   0.16669   0.75000   0.00000  Uiso   1.00
O765   O     0.46042   0.22678   0.75001   0.00000  Uiso   1.00
O766   O     0.53961   0.22679   0.75001   0.00000  Uiso   1.00
O767   O     0.44108   0.16665   0.82549   0.00000  Uiso   1.00
O768   O     0.52027   0.16666   0.82549   0.00000  Uiso   1.00
O769   O     0.46039   0.10654   0.75000   0.00000  Uiso   1.00
O770   O     0.53958   0.10655   0.75000   0.00000  Uiso   1.00
O771   O     0.47973   0.16667   0.67451   0.00000  Uiso   1.00
O772   O     0.55892   0.16668   0.67451   0.00000  Uiso   1.00
C773   C     0.39098   0.09921   0.69844   0.00000  Uiso   1.00
O774   O     0.43210   0.10041   0.67155   0.00000  Uiso   1.00
O775   O     0.36805   0.06111   0.70690   0.00000  Uiso   1.00
H776   H     0.38800   0.03751   0.68595   0.00000  Uiso   1.00
N777   N     0.63964   0.12557   0.67119   0.00000  Uiso   1.00
H778   H     0.66442   0.13455   0.63862   0.00000  Uiso   1.00
C779   C     0.62383   0.08344   0.66701   0.00000  Uiso   1.00
H780   H     0.65160   0.06530   0.63785   0.00000  Uiso   1.00
H781   H     0.59021   0.08306   0.65480   0.00000  Uiso   1.00
H782   H     0.61715   0.06849   0.70355   0.00000  Uiso   1.00
C783   C     0.63032   0.17570   0.90498   0.00000  Uiso   1.00
O784   O     0.65487   0.15030   0.87446   0.00000  Uiso   1.00
O785   O     0.64613   0.21623   0.90959   0.00000  Uiso   1.00
H786   H     0.34419   0.22242   0.88378   0.00000  Uiso   1.00
N787   N     0.45922   0.14564   0.58874   0.00000  Uiso   1.00
H788   H     0.43051   0.16507   0.60486   0.00000  Uiso   1.00
C789   C     0.44855   0.10717   0.56433   0.00000  Uiso   1.00
H790   H     0.41391   0.09453   0.58693   0.00000  Uiso   1.00
H791   H     0.47755   0.08425   0.56157   0.00000  Uiso   1.00
H792   H     0.44451   0.11156   0.52590   0.00000  Uiso   1.00
C793   C     0.83319   0.24590   0.75120   0.00000  Uiso   1.00
C794   C     0.81840   0.17707   0.98635   0.00000  Uiso   1.00
C795   C     0.83164   0.16602   0.93352   0.00000  Uiso   1.00
C796   C     0.85211   0.17177   0.51451   0.00000  Uiso   1.00
C797   C     0.90153   0.17105   0.98857   0.00000  Uiso   1.00
C798   C     0.91527   0.16519   0.93559   0.00000  Uiso   1.00
C799   C     0.88046   0.15516   0.91061   0.00000  Uiso   1.00
C800   C     0.83802   0.16430   0.56682   0.00000  Uiso   1.00
C801   C     0.92140   0.17284   0.56888   0.00000  Uiso   1.00
C802   C     0.79620   0.16856   0.90595   0.00000  Uiso   1.00
C803   C     0.87233   0.31278   0.76082   0.00000  Uiso   1.00
C804   C     0.80831   0.16571   0.84955   0.00000  Uiso   1.00
C805   C     0.87160   0.02215   0.76249   0.00000  Uiso   1.00
C806   C     0.83156   0.04302   0.75607   0.00000  Uiso   1.00
C807   C     0.79051   0.02091   0.75331   0.00000  Uiso   1.00
C808   C     0.79098   0.31163   0.75182   0.00000  Uiso   1.00
C809   C     0.83242   0.29065   0.75417   0.00000  Uiso   1.00
C810   C     0.96804   0.19475   0.77973   0.00000  Uiso   1.00
C811   C     0.68458   0.19610   0.77751   0.00000  Uiso   1.00
C812   C     0.69767   0.13732   0.72153   0.00000  Uiso   1.00
C813   C     0.98305   0.14062   0.71715   0.00000  Uiso   1.00
C814   C     0.83263   0.08756   0.75219   0.00000  Uiso   1.00
C815   C     0.85874   0.16631   0.65056   0.00000  Uiso   1.00
C816   C     0.93582   0.17248   0.51617   0.00000  Uiso   1.00
C817   C     0.87270   0.16777   0.59475   0.00000  Uiso   1.00
C818   C     0.74936   0.18084   0.93249   0.00000  Uiso   1.00
C819   C     0.73844   0.19571   0.98288   0.00000  Uiso   1.00
C820   C     0.77282   0.19458   0.50939   0.00000  Uiso   1.00
Cu821  Cu    0.78645   0.16666   0.75000   0.00000  Uiso   1.00
Cu822  Cu    0.88022   0.16667   0.75000   0.00000  Uiso   1.00
H823   H     0.94882   0.17480   0.58911   0.00000  Uiso   1.00
H824   H     0.90224   0.03865   0.76901   0.00000  Uiso   1.00
H825   H     0.75812   0.03647   0.75227   0.00000  Uiso   1.00
H826   H     0.75903   0.29524   0.74842   0.00000  Uiso   1.00
H827   H     0.94374   0.21729   0.80395   0.00000  Uiso   1.00
H828   H     0.69776   0.22029   0.79873   0.00000  Uiso   1.00
H829   H     0.97377   0.17139   0.99700   0.00000  Uiso   1.00
H830   H     0.72208   0.18180   0.91296   0.00000  Uiso   1.00
H831   H     0.76403   0.20869   0.54748   0.00000  Uiso   1.00
H832   H     0.70373   0.20950   0.50120   0.00000  Uiso   1.00
H833   H     0.89386   0.14120   0.87293   0.00000  Uiso   1.00
H834   H     0.90401   0.29720   0.76476   0.00000  Uiso   1.00
N835   N     0.71598   0.16666   0.74999   0.00000  Uiso   1.00
N836   N     0.95069   0.16669   0.75000   0.00000  Uiso   1.00
O837   O     0.79375   0.22678   0.75001   0.00000  Uiso   1.00
O838   O     0.87294   0.22679   0.75001   0.00000  Uiso   1.00
O839   O     0.77441   0.16665   0.82549   0.00000  Uiso   1.00
O840   O     0.85360   0.16666   0.82549   0.00000  Uiso   1.00
O841   O     0.79373   0.10654   0.75000   0.00000  Uiso   1.00
O842   O     0.87292   0.10655   0.75000   0.00000  Uiso   1.00
O843   O     0.81306   0.16667   0.67451   0.00000  Uiso   1.00
O844   O     0.89225   0.16668   0.67451   0.00000  Uiso   1.00
C845   C     0.72431   0.09921   0.69844   0.00000  Uiso   1.00
O846   O     0.76543   0.10041   0.67155   0.00000  Uiso   1.00
O847   O     0.70138   0.06111   0.70690   0.00000  Uiso   1.00
H848   H     0.72133   0.03751   0.68595   0.00000  Uiso   1.00
N849   N     0.97298   0.12557   0.67119   0.00000  Uiso   1.00
H850   H     0.99776   0.13455   0.63862   0.00000  Uiso   1.00
C851   C     0.95716   0.08344   0.66701   0.00000  Uiso   1.00
H852   H     0.98493   0.06530   0.63785   0.00000  Uiso   1.00
H853   H     0.92354   0.08306   0.65480   0.00000  Uiso   1.00
H854   H     0.95048   0.06849   0.70355   0.00000  Uiso   1.00
C855   C     0.96365   0.17570   0.90498   0.00000  Uiso   1.00
O856   O     0.98820   0.15030   0.87446   0.00000  Uiso   1.00
O857   O     0.97947   0.21623   0.90959   0.00000  Uiso   1.00
H858   H     0.67752   0.22242   0.88378   0.00000  Uiso   1.00
N859   N     0.79255   0.14564   0.58874   0.00000  Uiso   1.00
H860   H     0.76385   0.16507   0.60486   0.00000  Uiso   1.00
C861   C     0.78188   0.10717   0.56433   0.00000  Uiso   1.00
H862   H     0.74725   0.09453   0.58693   0.00000  Uiso   1.00
H863   H     0.81089   0.08425   0.56157   0.00000  Uiso   1.00
H864   H     0.77785   0.11156   0.52590   0.00000  Uiso   1.00
C865   C     0.16652   0.57923   0.75120   0.00000  Uiso   1.00
C866   C     0.15174   0.51040   0.98635   0.00000  Uiso   1.00
C867   C     0.16497   0.49936   0.93352   0.00000  Uiso   1.00
C868   C     0.18544   0.50510   0.51451   0.00000  Uiso   1.00
C869   C     0.23486   0.50439   0.98857   0.00000  Uiso   1.00
C870   C     0.24861   0.49853   0.93559   0.00000  Uiso   1.00
C871   C     0.21380   0.48849   0.91061   0.00000  Uiso   1.00
C872   C     0.17135   0.49763   0.56682   0.00000  Uiso   1.00
C873   C     0.25473   0.50617   0.56888   0.00000  Uiso   1.00
C874   C     0.12954   0.50189   0.90595   0.00000  Uiso   1.00
C875   C     0.20567   0.64611   0.76082   0.00000  Uiso   1.00
C876   C     0.14164   0.49904   0.84955   0.00000  Uiso   1.00
C877   C     0.20493   0.35549   0.76249   0.00000  Uiso   1.00
C878   C     0.16490   0.37636   0.75607   0.00000  Uiso   1.00
C879   C     0.12384   0.35424   0.75331   0.00000  Uiso   1.00
C880   C     0.12432   0.64496   0.75182   0.00000  Uiso   1.00
C881   C     0.16576   0.62398   0.75417   0.00000  Uiso   1.00
C882   C     0.30137   0.52809   0.77973   0.00000  Uiso   1.00
C883   C     0.01792   0.52944   0.77751   0.00000  Uiso   1.00
C884   C     0.03100   0.47065   0.72153   0.00000  Uiso   1.00
C885   C     0.31639   0.47395   0.71715   0.00000  Uiso   1.00
C886   C     0.16596   0.42090   0.75219   0.00000  Uiso   1.00
C887   C     0.19207   0.49964   0.65056   0.00000  Uiso   1.00
C888   C     0.26915   0.50582   0.51617   0.00000  Uiso   1.00
C889   C     0.20604   0.50111   0.59475   0.00000  Uiso   1.00
C890   C     0.08270   0.51417   0.93249   0.00000  Uiso   1.00
C891   C     0.07178   0.52904   0.98288   0.00000  Uiso   1.00
C892   C     0.10616   0.52791   0.50939   0.00000  Uiso   1.00
Cu893  Cu    0.11978   0.49999   0.75000   0.00000  Uiso   1.00
Cu894  Cu    0.21355   0.50001   0.75000   0.00000  Uiso   1.00
H895   H     0.28215   0.50813   0.58911   0.00000  Uiso   1.00
H896   H     0.23557   0.37198   0.76901   0.00000  Uiso   1.00
H897   H     0.09145   0.36980   0.75227   0.00000  Uiso   1.00
H898   H     0.09237   0.62857   0.74842   0.00000  Uiso   1.00
H899   H     0.27707   0.55062   0.80395   0.00000  Uiso   1.00
H900   H     0.03109   0.55362   0.79873   0.00000  Uiso   1.00
H901   H     0.30710   0.50473   0.99700   0.00000  Uiso   1.00
H902   H     0.05542   0.51513   0.91296   0.00000  Uiso   1.00
H903   H     0.09736   0.54202   0.54748   0.00000  Uiso   1.00
H904   H     0.03706   0.54284   0.50120   0.00000  Uiso   1.00
H905   H     0.22720   0.47454   0.87293   0.00000  Uiso   1.00
H906   H     0.23734   0.63054   0.76476   0.00000  Uiso   1.00
N907   N     0.04931   0.49999   0.74999   0.00000  Uiso   1.00
N908   N     0.28402   0.50002   0.75000   0.00000  Uiso   1.00
O909   O     0.12708   0.56011   0.75001   0.00000  Uiso   1.00
O910   O     0.20627   0.56012   0.75001   0.00000  Uiso   1.00
O911   O     0.10775   0.49998   0.82549   0.00000  Uiso   1.00
O912   O     0.18694   0.49999   0.82549   0.00000  Uiso   1.00
O913   O     0.12706   0.43988   0.75000   0.00000  Uiso   1.00
O914   O     0.20625   0.43989   0.75000   0.00000  Uiso   1.00
O915   O     0.14640   0.50001   0.67451   0.00000  Uiso   1.00
O916   O     0.22559   0.50002   0.67451   0.00000  Uiso   1.00
C917   C     0.05765   0.43255   0.69844   0.00000  Uiso   1.00
O918   O     0.09876   0.43375   0.67155   0.00000  Uiso   1.00
O919   O     0.03472   0.39445   0.70690   0.00000  Uiso   1.00
H920   H     0.05466   0.37084   0.68595   0.00000  Uiso   1.00
N921   N     0.30631   0.45890   0.67119   0.00000  Uiso   1.00
H922   H     0.33109   0.46788   0.63862   0.00000  Uiso   1.00
C923   C     0.29049   0.41677   0.66701   0.00000  Uiso   1.00
H924   H     0.31827   0.39864   0.63785   0.00000  Uiso   1.00
H925   H     0.25687   0.41639   0.65480   0.00000  Uiso   1.00
H926   H     0.28381   0.40182   0.70355   0.00000  Uiso   1.00
C927   C     0.29698   0.50903   0.90498   0.00000  Uiso   1.00
O928   O     0.32153   0.48363   0.87446   0.00000  Uiso   1.00
O929   O     0.31280   0.54956   0.90959   0.00000  Uiso   1.00
H930   H     0.01085   0.55575   0.88378   0.00000  Uiso   1.00
N931   N     0.12589   0.47898   0.58874   0.00000  Uiso   1.00
H932   H     0.09718   0.49841   0.60486   0.00000  Uiso   1.00
C933   C     0.11522   0.44051   0.56433   0.00000  Uiso   1.00
H934   H     0.08058   0.42786   0.58693   0.00000  Uiso   1.00
H935   H     0.14422   0.41758   0.56157   0.00000  Uiso   1.00
H936   H     0.11118   0.44489   0.52590   0.00000  Uiso   1.00
C937   C     0.49985   0.57923   0.75120   0.00000  Uiso   1.00
C938   C     0.48507   0.51040   0.98635   0.00000  Uiso   1.00
C939   C     0.49830   0.49936   0.93352   0.00000  Uiso   1.00
C940   C     0.51878   0.50510   0.51451   0.00000  Uiso   1.00
C941   C     0.56820   0.50439   0.98857   0.00000  Uiso   1.00
C942   C     0.58194   0.49853   0.93559   0.00000  Uiso   1.00
C943   C     0.54713   0.48849   0.91061   0.00000  Uiso   1.00
C944   C     0.50469   0.49763   0.56682   0.00000  Uiso   1.00
C945   C     0.58806   0.50617   0.56888   0.00000  Uiso   1.00
C946   C     0.46287   0.50189   0.90595   0.00000  Uiso   1.00
C947   C     0.53900   0.64611   0.76082   0.00000  Uiso   1.00
C948   C     0.47497   0.49904   0.84955   0.00000  Uiso   1.00
C949   C     0.53826   0.35549   0.76249   0.00000  Uiso   1.00
C950   C     0.49823   0.37636   0.75607   0.00000  Uiso   1.00
C951   C     0.45718   0.35424   0.75331   0.00000  Uiso   1.00
C952   C     0.45765   0.64496   0.75182   0.00000  Uiso   1.00
C953   C     0.49909   0.62398   0.75417   0.00000  Uiso   1.00
C954   C     0.63471   0.52809   0.77973   0.00000  Uiso   1.00
C955   C     0.35125   0.52944   0.77751   0.00000  Uiso   1.00
C956   C     0.36434   0.47065   0.72153   0.00000  Uiso   1.00
C957   C     0.64972   0.47395   0.71715   0.00000  Uiso   1.00
C958   C     0.49930   0.42090   0.75219   0.00000  Uiso   1.00
C959   C     0.52540   0.49964   0.65056   0.00000  Uiso   1.00
C960   C     0.60248   0.50582   0.51617   0.00000  Uiso   1.00
C961   C     0.53937   0.50111   0.59475   0.00000  Uiso   1.00
C962   C     0.41603   0.51417   0.93249   0.00000  Uiso   1.00
C963   C     0.40511   0.52904   0.98288   0.00000  Uiso   1.00
C964   C     0.43949   0.52791   0.50939   0.00000  Uiso   1.00
Cu965  Cu    0.45311   0.49999   0.75000   0.00000  Uiso   1.00
Cu966  Cu    0.54689   0.50001   0.75000   0.00000  Uiso   1.00
H967   H     0.61548   0.50813   0.58911   0.00000  Uiso   1.00
H968   H     0.56890   0.37198   0.76901   0.00000  Uiso   1.00
H969   H     0.42478   0.36980   0.75227   0.00000  Uiso   1.00
H970   H     0.42570   0.62857   0.74842   0.00000  Uiso   1.00
H971   H     0.61041   0.55062   0.80395   0.00000  Uiso   1.00
H972   H     0.36442   0.55362   0.79873   0.00000  Uiso   1.00
H973   H     0.64043   0.50473   0.99700   0.00000  Uiso   1.00
H974   H     0.38875   0.51513   0.91296   0.00000  Uiso   1.00
H975   H     0.43070   0.54202   0.54748   0.00000  Uiso   1.00
H976   H     0.37040   0.54284   0.50120   0.00000  Uiso   1.00
H977   H     0.56053   0.47454   0.87293   0.00000  Uiso   1.00
H978   H     0.57068   0.63054   0.76476   0.00000  Uiso   1.00
N979   N     0.38265   0.49999   0.74999   0.00000  Uiso   1.00
N980   N     0.61735   0.50002   0.75000   0.00000  Uiso   1.00
O981   O     0.46042   0.56011   0.75001   0.00000  Uiso   1.00
O982   O     0.53961   0.56012   0.75001   0.00000  Uiso   1.00
O983   O     0.44108   0.49998   0.82549   0.00000  Uiso   1.00
O984   O     0.52027   0.49999   0.82549   0.00000  Uiso   1.00
O985   O     0.46039   0.43988   0.75000   0.00000  Uiso   1.00
O986   O     0.53958   0.43989   0.75000   0.00000  Uiso   1.00
O987   O     0.47973   0.50001   0.67451   0.00000  Uiso   1.00
O988   O     0.55892   0.50002   0.67451   0.00000  Uiso   1.00
C989   C     0.39098   0.43255   0.69844   0.00000  Uiso   1.00
O990   O     0.43210   0.43375   0.67155   0.00000  Uiso   1.00
O991   O     0.36805   0.39445   0.70690   0.00000  Uiso   1.00
H992   H     0.38800   0.37084   0.68595   0.00000  Uiso   1.00
N993   N     0.63964   0.45890   0.67119   0.00000  Uiso   1.00
H994   H     0.66442   0.46788   0.63862   0.00000  Uiso   1.00
C995   C     0.62383   0.41677   0.66701   0.00000  Uiso   1.00
H996   H     0.65160   0.39864   0.63785   0.00000  Uiso   1.00
H997   H     0.59021   0.41639   0.65480   0.00000  Uiso   1.00
H998   H     0.61715   0.40182   0.70355   0.00000  Uiso   1.00
C999   C     0.63032   0.50903   0.90498   0.00000  Uiso   1.00
O1000  O     0.65487   0.48363   0.87446   0.00000  Uiso   1.00
O1001  O     0.64613   0.54956   0.90959   0.00000  Uiso   1.00
H1002  H     0.34419   0.55575   0.88378   0.00000  Uiso   1.00
N1003  N     0.45922   0.47898   0.58874   0.00000  Uiso   1.00
H1004  H     0.43051   0.49841   0.60486   0.00000  Uiso   1.00
C1005  C     0.44855   0.44051   0.56433   0.00000  Uiso   1.00
H1006  H     0.41391   0.42786   0.58693   0.00000  Uiso   1.00
H1007  H     0.47755   0.41758   0.56157   0.00000  Uiso   1.00
H1008  H     0.44451   0.44489   0.52590   0.00000  Uiso   1.00
C1009  C     0.83319   0.57923   0.75120   0.00000  Uiso   1.00
C1010  C     0.81840   0.51040   0.98635   0.00000  Uiso   1.00
C1011  C     0.83164   0.49936   0.93352   0.00000  Uiso   1.00
C1012  C     0.85211   0.50510   0.51451   0.00000  Uiso   1.00
C1013  C     0.90153   0.50439   0.98857   0.00000  Uiso   1.00
C1014  C     0.91527   0.49853   0.93559   0.00000  Uiso   1.00
C1015  C     0.88046   0.48849   0.91061   0.00000  Uiso   1.00
C1016  C     0.83802   0.49763   0.56682   0.00000  Uiso   1.00
C1017  C     0.92140   0.50617   0.56888   0.00000  Uiso   1.00
C1018  C     0.79620   0.50189   0.90595   0.00000  Uiso   1.00
C1019  C     0.87233   0.64611   0.76082   0.00000  Uiso   1.00
C1020  C     0.80831   0.49904   0.84955   0.00000  Uiso   1.00
C1021  C     0.87160   0.35549   0.76249   0.00000  Uiso   1.00
C1022  C     0.83156   0.37636   0.75607   0.00000  Uiso   1.00
C1023  C     0.79051   0.35424   0.75331   0.00000  Uiso   1.00
C1024  C     0.79098   0.64496   0.75182   0.00000  Uiso   1.00
C1025  C     0.83242   0.62398   0.75417   0.00000  Uiso   1.00
C1026  C     0.96804   0.52809   0.77973   0.00000  Uiso   1.00
C1027  C     0.68458   0.52944   0.77751   0.00000  Uiso   1.00
C1028  C     0.69767   0.47065   0.72153   0.00000  Uiso   1.00
C1029  C     0.98305   0.47395   0.71715   0.00000  Uiso   1.00
C1030  C     0.83263   0.42090   0.75219   0.00000  Uiso   1.00
C1031  C     0.85874   0.49964   0.65056   0.00000  Uiso   1.00
C1032  C     0.93582   0.50582   0.51617   0.00000  Uiso   1.00
C1033  C     0.87270   0.50111   0.59475   0.00000  Uiso   1.00
C1034  C     0.74936   0.51417   0.93249   0.00000  Uiso   1.00
C1035  C     0.73844   0.52904   0.98288   0.00000  Uiso   1.00
C1036  C     0.77282   0.52791   0.50939   0.00000  Uiso   1.00
Cu1037 Cu    0.78645   0.49999   0.75000   0.00000  Uiso   1.00
Cu1038 Cu    0.88022   0.50001   0.75000   0.00000  Uiso   1.00
H1039  H     0.94882   0.50813   0.58911   0.00000  Uiso   1.00
H1040  H     0.90224   0.37198   0.76901   0.00000  Uiso   1.00
H1041  H     0.75812   0.36980   0.75227   0.00000  Uiso   1.00
H1042  H     0.75903   0.62857   0.74842   0.00000  Uiso   1.00
H1043  H     0.94374   0.55062   0.80395   0.00000  Uiso   1.00
H1044  H     0.69776   0.55362   0.79873   0.00000  Uiso   1.00
H1045  H     0.97377   0.50473   0.99700   0.00000  Uiso   1.00
H1046  H     0.72208   0.51513   0.91296   0.00000  Uiso   1.00
H1047  H     0.76403   0.54202   0.54748   0.00000  Uiso   1.00
H1048  H     0.70373   0.54284   0.50120   0.00000  Uiso   1.00
H1049  H     0.89386   0.47454   0.87293   0.00000  Uiso   1.00
H1050  H     0.90401   0.63054   0.76476   0.00000  Uiso   1.00
N1051  N     0.71598   0.49999   0.74999   0.00000  Uiso   1.00
N1052  N     0.95069   0.50002   0.75000   0.00000  Uiso   1.00
O1053  O     0.79375   0.56011   0.75001   0.00000  Uiso   1.00
O1054  O     0.87294   0.56012   0.75001   0.00000  Uiso   1.00
O1055  O     0.77441   0.49998   0.82549   0.00000  Uiso   1.00
O1056  O     0.85360   0.49999   0.82549   0.00000  Uiso   1.00
O1057  O     0.79373   0.43988   0.75000   0.00000  Uiso   1.00
O1058  O     0.87292   0.43989   0.75000   0.00000  Uiso   1.00
O1059  O     0.81306   0.50001   0.67451   0.00000  Uiso   1.00
O1060  O     0.89225   0.50002   0.67451   0.00000  Uiso   1.00
C1061  C     0.72431   0.43255   0.69844   0.00000  Uiso   1.00
O1062  O     0.76543   0.43375   0.67155   0.00000  Uiso   1.00
O1063  O     0.70138   0.39445   0.70690   0.00000  Uiso   1.00
H1064  H     0.72133   0.37084   0.68595   0.00000  Uiso   1.00
N1065  N     0.97298   0.45890   0.67119   0.00000  Uiso   1.00
H1066  H     0.99776   0.46788   0.63862   0.00000  Uiso   1.00
C1067  C     0.95716   0.41677   0.66701   0.00000  Uiso   1.00
H1068  H     0.98493   0.39864   0.63785   0.00000  Uiso   1.00
H1069  H     0.92354   0.41639   0.65480   0.00000  Uiso   1.00
H1070  H     0.95048   0.40182   0.70355   0.00000  Uiso   1.00
C1071  C     0.96365   0.50903   0.90498   0.00000  Uiso   1.00
O1072  O     0.98820   0.48363   0.87446   0.00000  Uiso   1.00
O1073  O     0.97947   0.54956   0.90959   0.00000  Uiso   1.00
H1074  H     0.67752   0.55575   0.88378   0.00000  Uiso   1.00
N1075  N     0.79255   0.47898   0.58874   0.00000  Uiso   1.00
H1076  H     0.76385   0.49841   0.60486   0.00000  Uiso   1.00
C1077  C     0.78188   0.44051   0.56433   0.00000  Uiso   1.00
H1078  H     0.74725   0.42786   0.58693   0.00000  Uiso   1.00
H1079  H     0.81089   0.41758   0.56157   0.00000  Uiso   1.00
H1080  H     0.77785   0.44489   0.52590   0.00000  Uiso   1.00
C1081  C     0.16652   0.91256   0.75120   0.00000  Uiso   1.00
C1082  C     0.15174   0.84374   0.98635   0.00000  Uiso   1.00
C1083  C     0.16497   0.83269   0.93352   0.00000  Uiso   1.00
C1084  C     0.18544   0.83843   0.51451   0.00000  Uiso   1.00
C1085  C     0.23486   0.83772   0.98857   0.00000  Uiso   1.00
C1086  C     0.24861   0.83186   0.93559   0.00000  Uiso   1.00
C1087  C     0.21380   0.82182   0.91061   0.00000  Uiso   1.00
C1088  C     0.17135   0.83096   0.56682   0.00000  Uiso   1.00
C1089  C     0.25473   0.83951   0.56888   0.00000  Uiso   1.00
C1090  C     0.12954   0.83523   0.90595   0.00000  Uiso   1.00
C1091  C     0.20567   0.97944   0.76082   0.00000  Uiso   1.00
C1092  C     0.14164   0.83238   0.84955   0.00000  Uiso   1.00
C1093  C     0.20493   0.68882   0.76249   0.00000  Uiso   1.00
C1094  C     0.16490   0.70969   0.75607   0.00000  Uiso   1.00
C1095  C     0.12384   0.68758   0.75331   0.00000  Uiso   1.00
C1096  C     0.12432   0.97829   0.75182   0.00000  Uiso   1.00
C1097  C     0.16576   0.95732   0.75417   0.00000  Uiso   1.00
C1098  C     0.30137   0.86142   0.77973   0.00000  Uiso   1.00
C1099  C     0.01792   0.86277   0.77751   0.00000  Uiso   1.00
C1100  C     0.03100   0.80399   0.72153   0.00000  Uiso   1.00
C1101  C     0.31639   0.80729   0.71715   0.00000  Uiso   1.00
C1102  C     0.16596   0.75423   0.75219   0.00000  Uiso   1.00
C1103  C     0.19207   0.83297   0.65056   0.00000  Uiso   1.00
C1104  C     0.26915   0.83915   0.51617   0.00000  Uiso   1.00
C1105  C     0.20604   0.83444   0.59475   0.00000  Uiso   1.00
C1106  C     0.08270   0.84751   0.93249   0.00000  Uiso   1.00
C1107  C     0.07178   0.86237   0.98288   0.00000  Uiso   1.00
C1108  C     0.10616   0.86125   0.50939   0.00000  Uiso   1.00
Cu1109 Cu    0.11978   0.83333   0.75000   0.00000  Uiso   1.00
Cu1110 Cu    0.21355   0.83334   0.75000   0.00000  Uiso   1.00
H1111  H     0.28215   0.84146   0.58911   0.00000  Uiso   1.00
H1112  H     0.23557   0.70531   0.76901   0.00000  Uiso   1.00
H1113  H     0.09145   0.70314   0.75227   0.00000  Uiso   1.00
H1114  H     0.09237   0.96191   0.74842   0.00000  Uiso   1.00
H1115  H     0.27707   0.88395   0.80395   0.00000  Uiso   1.00
H1116  H     0.03109   0.88695   0.79873   0.00000  Uiso   1.00
H1117  H     0.30710   0.83806   0.99700   0.00000  Uiso   1.00
H1118  H     0.05542   0.84846   0.91296   0.00000  Uiso   1.00
H1119  H     0.09736   0.87536   0.54748   0.00000  Uiso   1.00
H1120  H     0.03706   0.87617   0.50120   0.00000  Uiso   1.00
H1121  H     0.22720   0.80787   0.87293   0.00000  Uiso   1.00
H1122  H     0.23734   0.96387   0.76476   0.00000  Uiso   1.00
N1123  N     0.04931   0.83332   0.74999   0.00000  Uiso   1.00
N1124  N     0.28402   0.83335   0.75000   0.00000  Uiso   1.00
O1125  O     0.12708   0.89345   0.75001   0.00000  Uiso   1.00
O1126  O     0.20627   0.89346   0.75001   0.00000  Uiso   1.00
O1127  O     0.10775   0.83332   0.82549   0.00000  Uiso   1.00
O1128  O     0.18694   0.83333   0.82549   0.00000  Uiso   1.00
O1129  O     0.12706   0.77321   0.75000   0.00000  Uiso   1.00
O1130  O     0.20625   0.77322   0.75000   0.00000  Uiso   1.00
O1131  O     0.14640   0.83334   0.67451   0.00000  Uiso   1.00
O1132  O     0.22559   0.83335   0.67451   0.00000  Uiso   1.00
C1133  C     0.05765   0.76588   0.69844   0.00000  Uiso   1.00
O1134  O     0.09876   0.76708   0.67155   0.00000  Uiso   1.00
O1135  O     0.03472   0.72778   0.70690   0.00000  Uiso   1.00
H1136  H     0.05466   0.70417   0.68595   0.00000  Uiso   1.00
N1137  N     0.30631   0.79224   0.67119   0.00000  Uiso   1.00
H1138  H     0.33109   0.80122   0.63862   0.00000  Uiso   1.00
C1139  C     0.29049   0.75011   0.66701   0.00000  Uiso   1.00
H1140  H     0.31827   0.73197   0.63785   0.00000  Uiso   1.00
H1141  H     0.25687   0.74973   0.65480   0.00000  Uiso   1.00
H1142  H     0.28381   0.73516   0.70355   0.00000  Uiso   1.00
C1143  C     0.29698   0.84236   0.90498   0.00000  Uiso   1.00
O1144  O     0.32153   0.81696   0.87446   0.00000  Uiso   1.00
O1145  O     0.31280   0.88290   0.90959   0.00000  Uiso   1.00
H1146  H     0.01085   0.88909   0.88378   0.00000  Uiso   1.00
N1147  N     0.12589   0.81231   0.58874   0.00000  Uiso   1.00
H1148  H     0.09718   0.83174   0.60486   0.00000  Uiso   1.00
C1149  C     0.11522   0.77384   0.56433   0.00000  Uiso   1.00
H1150  H     0.08058   0.76120   0.58693   0.00000  Uiso   1.00
H1151  H     0.14422   0.75091   0.56157   0.00000  Uiso   1.00
H1152  H     0.11118   0.77823   0.52590   0.00000  Uiso   1.00
C1153  C     0.49985   0.91256   0.75120   0.00000  Uiso   1.00
C1154  C     0.48507   0.84374   0.98635   0.00000  Uiso   1.00
C1155  C     0.49830   0.83269   0.93352   0.00000  Uiso   1.00
C1156  C     0.51878   0.83843   0.51451   0.00000  Uiso   1.00
C1157  C     0.56820   0.83772   0.98857   0.00000  Uiso   1.00
C1158  C     0.58194   0.83186   0.93559   0.00000  Uiso   1.00
C1159  C     0.54713   0.82182   0.91061   0.00000  Uiso   1.00
C1160  C     0.50469   0.83096   0.56682   0.00000  Uiso   1.00
C1161  C     0.58806   0.83951   0.56888   0.00000  Uiso   1.00
C1162  C     0.46287   0.83523   0.90595   0.00000  Uiso   1.00
C1163  C     0.53900   0.97944   0.76082   0.00000  Uiso   1.00
C1164  C     0.47497   0.83238   0.84955   0.00000  Uiso   1.00
C1165  C     0.53826   0.68882   0.76249   0.00000  Uiso   1.00
C1166  C     0.49823   0.70969   0.75607   0.00000  Uiso   1.00
C1167  C     0.45718   0.68758   0.75331   0.00000  Uiso   1.00
C1168  C     0.45765   0.97829   0.75182   0.00000  Uiso   1.00
C1169  C     0.49909   0.95732   0.75417   0.00000  Uiso   1.00
C1170  C     0.63471   0.86142   0.77973   0.00000  Uiso   1.00
C1171  C     0.35125   0.86277   0.77751   0.00000  Uiso   1.00
C1172  C     0.36434   0.80399   0.72153   0.00000  Uiso   1.00
C1173  C     0.64972   0.80729   0.71715   0.00000  Uiso   1.00
C1174  C     0.49930   0.75423   0.75219   0.00000  Uiso   1.00
C1175  C     0.52540   0.83297   0.65056   0.00000  Uiso   1.00
C1176  C     0.60248   0.83915   0.51617   0.00000  Uiso   1.00
C1177  C     0.53937   0.83444   0.59475   0.00000  Uiso   1.00
C1178  C     0.41603   0.84751   0.93249   0.00000  Uiso   1.00
C1179  C     0.40511   0.86237   0.98288   0.00000  Uiso   1.00
C1180  C     0.43949   0.86125   0.50939   0.00000  Uiso   1.00
Cu1181 Cu    0.45311   0.83333   0.75000   0.00000  Uiso   1.00
Cu1182 Cu    0.54689   0.83334   0.75000   0.00000  Uiso   1.00
H1183  H     0.61548   0.84146   0.58911   0.00000  Uiso   1.00
H1184  H     0.56890   0.70531   0.76901   0.00000  Uiso   1.00
H1185  H     0.42478   0.70314   0.75227   0.00000  Uiso   1.00
H1186  H     0.42570   0.96191   0.74842   0.00000  Uiso   1.00
H1187  H     0.61041   0.88395   0.80395   0.00000  Uiso   1.00
H1188  H     0.36442   0.88695   0.79873   0.00000  Uiso   1.00
H1189  H     0.64043   0.83806   0.99700   0.00000  Uiso   1.00
H1190  H     0.38875   0.84846   0.91296   0.00000  Uiso   1.00
H1191  H     0.43070   0.87536   0.54748   0.00000  Uiso   1.00
H1192  H     0.37040   0.87617   0.50120   0.00000  Uiso   1.00
H1193  H     0.56053   0.80787   0.87293   0.00000  Uiso   1.00
H1194  H     0.57068   0.96387   0.76476   0.00000  Uiso   1.00
N1195  N     0.38265   0.83332   0.74999   0.00000  Uiso   1.00
N1196  N     0.61735   0.83335   0.75000   0.00000  Uiso   1.00
O1197  O     0.46042   0.89345   0.75001   0.00000  Uiso   1.00
O1198  O     0.53961   0.89346   0.75001   0.00000  Uiso   1.00
O1199  O     0.44108   0.83332   0.82549   0.00000  Uiso   1.00
O1200  O     0.52027   0.83333   0.82549   0.00000  Uiso   1.00
O1201  O     0.46039   0.77321   0.75000   0.00000  Uiso   1.00
O1202  O     0.53958   0.77322   0.75000   0.00000  Uiso   1.00
O1203  O     0.47973   0.83334   0.67451   0.00000  Uiso   1.00
O1204  O     0.55892   0.83335   0.67451   0.00000  Uiso   1.00
C1205  C     0.39098   0.76588   0.69844   0.00000  Uiso   1.00
O1206  O     0.43210   0.76708   0.67155   0.00000  Uiso   1.00
O1207  O     0.36805   0.72778   0.70690   0.00000  Uiso   1.00
H1208  H     0.38800   0.70417   0.68595   0.00000  Uiso   1.00
N1209  N     0.63964   0.79224   0.67119   0.00000  Uiso   1.00
H1210  H     0.66442   0.80122   0.63862   0.00000  Uiso   1.00
C1211  C     0.62383   0.75011   0.66701   0.00000  Uiso   1.00
H1212  H     0.65160   0.73197   0.63785   0.00000  Uiso   1.00
H1213  H     0.59021   0.74973   0.65480   0.00000  Uiso   1.00
H1214  H     0.61715   0.73516   0.70355   0.00000  Uiso   1.00
C1215  C     0.63032   0.84236   0.90498   0.00000  Uiso   1.00
O1216  O     0.65487   0.81696   0.87446   0.00000  Uiso   1.00
O1217  O     0.64613   0.88290   0.90959   0.00000  Uiso   1.00
H1218  H     0.34419   0.88909   0.88378   0.00000  Uiso   1.00
N1219  N     0.45922   0.81231   0.58874   0.00000  Uiso   1.00
H1220  H     0.43051   0.83174   0.60486   0.00000  Uiso   1.00
C1221  C     0.44855   0.77384   0.56433   0.00000  Uiso   1.00
H1222  H     0.41391   0.76120   0.58693   0.00000  Uiso   1.00
H1223  H     0.47755   0.75091   0.56157   0.00000  Uiso   1.00
H1224  H     0.44451   0.77823   0.52590   0.00000  Uiso   1.00
C1225  C     0.83319   0.91256   0.75120   0.00000  Uiso   1.00
C1226  C     0.81840   0.84374   0.98635   0.00000  Uiso   1.00
C1227  C     0.83164   0.83269   0.93352   0.00000  Uiso   1.00
C1228  C     0.85211   0.83843   0.51451   0.00000  Uiso   1.00
C1229  C     0.90153   0.83772   0.98857   0.00000  Uiso   1.00
C1230  C     0.91527   0.83186   0.93559   0.00000  Uiso   1.00
C1231  C     0.88046   0.82182   0.91061   0.00000  Uiso   1.00
C1232  C     0.83802   0.83096   0.56682   0.00000  Uiso   1.00
C1233  C     0.92140   0.83951   0.56888   0.00000  Uiso   1.00
C1234  C     0.79620   0.83523   0.90595   0.00000  Uiso   1.00
C1235  C     0.87233   0.97944   0.76082   0.00000  Uiso   1.00
C1236  C     0.80831   0.83238   0.84955   0.00000  Uiso   1.00
C1237  C     0.87160   0.68882   0.76249   0.00000  Uiso   1.00
C1238  C     0.83156   0.70969   0.75607   0.00000  Uiso   1.00
C1239  C     0.79051   0.68758   0.75331   0.00000  Uiso   1.00
C1240  C     0.79098   0.97829   0.75182   0.00000  Uiso   1.00
C1241  C     0.83242   0.95732   0.75417   0.00000  Uiso   1.00
C1242  C     0.96804   0.86142   0.77973   0.00000  Uiso   1.00
C1243  C     0.68458   0.86277   0.77751   0.00000  Uiso   1.00
C1244  C     0.69767   0.80399   0.72153   0.00000  Uiso   1.00
C1245  C     0.98305   0.80729   0.71715   0.00000  Uiso   1.00
C1246  C     0.83263   0.75423   0.75219   0.00000  Uiso   1.00
C1247  C     0.85874   0.83297   0.65056   0.00000  Uiso   1.00
C1248  C     0.93582   0.83915   0.51617   0.00000  Uiso   1.00
C1249  C     0.87270   0.83444   0.59475   0.00000  Uiso   1.00
C1250  C     0.74936   0.84751   0.93249   0.00000  Uiso   1.00
C1251  C     0.73844   0.86237   0.98288   0.00000  Uiso   1.00
C1252  C     0.77282   0.86125   0.50939   0.00000  Uiso   1.00
Cu1253 Cu    0.78645   0.83333   0.75000   0.00000  Uiso   1.00
Cu1254 Cu    0.88022   0.83334   0.75000   0.00000  Uiso   1.00
H1255  H     0.94882   0.84146   0.58911   0.00000  Uiso   1.00
H1256  H     0.90224   0.70531   0.76901   0.00000  Uiso   1.00
H1257  H     0.75812   0.70314   0.75227   0.00000  Uiso   1.00
H1258  H     0.75903   0.96191   0.74842   0.00000  Uiso   1.00
H1259  H     0.94374   0.88395   0.80395   0.00000  Uiso   1.00
H1260  H     0.69776   0.88695   0.79873   0.00000  Uiso   1.00
H1261  H     0.97377   0.83806   0.99700   0.00000  Uiso   1.00
H1262  H     0.72208   0.84846   0.91296   0.00000  Uiso   1.00
H1263  H     0.76403   0.87536   0.54748   0.00000  Uiso   1.00
H1264  H     0.70373   0.87617   0.50120   0.00000  Uiso   1.00
H1265  H     0.89386   0.80787   0.87293   0.00000  Uiso   1.00
H1266  H     0.90401   0.96387   0.76476   0.00000  Uiso   1.00
N1267  N     0.71598   0.83332   0.74999   0.00000  Uiso   1.00
N1268  N     0.95069   0.83335   0.75000   0.00000  Uiso   1.00
O1269  O     0.79375   0.89345   0.75001   0.00000  Uiso   1.00
O1270  O     0.87294   0.89346   0.75001   0.00000  Uiso   1.00
O1271  O     0.77441   0.83332   0.82549   0.00000  Uiso   1.00
O1272  O     0.85360   0.83333   0.82549   0.00000  Uiso   1.00
O1273  O     0.79373   0.77321   0.75000   0.00000  Uiso   1.00
O1274  O     0.87292   0.77322   0.75000   0.00000  Uiso   1.00
O1275  O     0.81306   0.83334   0.67451   0.00000  Uiso   1.00
O1276  O     0.89225   0.83335   0.67451   0.00000  Uiso   1.00
C1277  C     0.72431   0.76588   0.69844   0.00000  Uiso   1.00
O1278  O     0.76543   0.76708   0.67155   0.00000  Uiso   1.00
O1279  O     0.70138   0.72778   0.70690   0.00000  Uiso   1.00
H1280  H     0.72133   0.70417   0.68595   0.00000  Uiso   1.00
N1281  N     0.97298   0.79224   0.67119   0.00000  Uiso   1.00
H1282  H     0.99776   0.80122   0.63862   0.00000  Uiso   1.00
C1283  C     0.95716   0.75011   0.66701   0.00000  Uiso   1.00
H1284  H     0.98493   0.73197   0.63785   0.00000  Uiso   1.00
H1285  H     0.92354   0.74973   0.65480   0.00000  Uiso   1.00
H1286  H     0.95048   0.73516   0.70355   0.00000  Uiso   1.00
C1287  C     0.96365   0.84236   0.90498   0.00000  Uiso   1.00
O1288  O     0.98820   0.81696   0.87446   0.00000  Uiso   1.00
O1289  O     0.97947   0.88290   0.90959   0.00000  Uiso   1.00
H1290  H     0.67752   0.88909   0.88378   0.00000  Uiso   1.00
N1291  N     0.79255   0.81231   0.58874   0.00000  Uiso   1.00
H1292  H     0.76385   0.83174   0.60486   0.00000  Uiso   1.00
C1293  C     0.78188   0.77384   0.56433   0.00000  Uiso   1.00
H1294  H     0.74725   0.76120   0.58693   0.00000  Uiso   1.00
H1295  H     0.81089   0.75091   0.56157   0.00000  Uiso   1.00
H1296  H     0.77785   0.77823   0.52590   0.00000  Uiso   1.00
loop_
_geom_bond_atom_site_label_1
_geom_bond_atom_site_label_2
_geom_bond_distance
_geom_bond_site_symmetry_2
_ccdc_geom_bond_type
C1     C17     1.451   .     S
C1     O45     1.298   .     A
C1     O46     1.302   .     A
C2     C3      1.417   .     A
C2     C652    1.414   .     S
C2     C676    1.405   .     S
C3     C10     1.433   .     A
C3     C7      1.417   .     A
C4     C8      1.410   .     A
C4     C650    1.414   1_554 S
C4     C653    1.409   1_554 S
C5     C6      1.397   .     A
C5     C652    1.409   .     S
C5     C672    1.399   .     S
C6     C63     1.465   .     S
C6     C7      1.389   .     A
C7     H41     1.073   .     S
C8     C25     1.417   .     A
C8     N67     1.428   .     S
C9     C24     1.386   .     A
C9     C25     1.402   .     A
C9     H31     1.083   .     S
C10    C26     1.399   .     A
C10    C12     1.484   .     S
C11    H42     1.083   .     S
C11    C17     1.400   .     A
C11    C229    1.385   .     S
C12    O48     1.294   .     A
C12    O47     1.322   .     A
C13    H32     1.080   .     S
C13    C14     1.402   .     A
C13    C443    1.385   1_545 S
C14    C22     1.455   .     S
C14    C15     1.397   .     A
C15    H33     1.076   .     S
C15    C448    1.382   1_545 S
C16    C17     1.401   .     A
C16    H34     1.083   .     S
C16    C231    1.382   .     S
C18    N44     1.370   .     A
C18    H35     1.082   .     S
C18    C91     1.425   .     S
C19    N43     1.367   .     A
C19    H36     1.079   .     S
C19    C162    1.425   1_455 S
C20    N43     1.388   .     A
C20    C53     1.480   .     S
C20    C165    1.428   1_455 S
C21    N57     1.427   .     S
C21    N44     1.368   .     A
C21    C92     1.428   .     S
C22    O50     1.299   .     A
C22    O49     1.304   .     A
C23    O52     1.309   .     A
C23    C25     1.472   .     S
C23    O51     1.302   .     A
C24    C653    1.399   1_554 S
C24    H685    1.077   1_554 S
C26    H38     1.068   .     S
C26    C27     1.388   .     A
C27    C676    1.382   .     S
C27    H688    1.080   .     S
C28    H39     1.080   .     S
C28    C650    1.405   1_554 S
C28    C675    1.382   1_554 S
Cu29   O49     1.965   .     S
Cu29   N43     2.035   .     S
Cu29   O47     1.998   .     S
Cu29   O45     1.961   .     S
Cu29   Cu30    2.707   .     S
Cu29   O51     1.997   .     S
Cu30   N44     2.034   .     S
Cu30   O48     1.997   .     S
Cu30   O50     1.961   .     S
Cu30   O52     1.998   .     S
Cu30   O46     1.965   .     S
H37    C672    1.077   .     S
H40    C675    1.080   1_554 S
C53    O55     1.397   .     S
C53    O54     1.215   .     D
O55    H56     1.014   .     S
N57    H58     1.032   .     S
N57    C59     1.446   .     S
C59    H60     1.111   .     S
C59    H61     1.110   .     S
C59    H62     1.103   .     S
C63    O65     1.399   .     S
C63    O64     1.222   .     D
O65    H138    1.010   .     S
H66    O209    1.010   1_455 S
N67    H68     1.030   .     S
N67    C69     1.454   .     S
C69    H72     1.106   .     S
C69    H70     1.109   .     S
C69    H71     1.111   .     S
C73    C89     1.451   .     S
C73    O117    1.298   .     A
C73    O118    1.302   .     A
C74    C75     1.417   .     A
C74    C724    1.414   .     S
C74    C748    1.405   .     S
C75    C82     1.433   .     A
C75    C79     1.417   .     A
C76    C80     1.410   .     A
C76    C722    1.414   1_554 S
C76    C725    1.409   1_554 S
C77    C78     1.397   .     A
C77    C724    1.409   .     S
C77    C744    1.399   .     S
C78    C135    1.465   .     S
C78    C79     1.389   .     A
C79    H113    1.073   .     S
C80    C97     1.417   .     A
C80    N139    1.428   .     S
C81    C96     1.386   .     A
C81    C97     1.402   .     A
C81    H103    1.083   .     S
C82    C98     1.399   .     A
C82    C84     1.484   .     S
C83    H114    1.083   .     S
C83    C89     1.400   .     A
C83    C301    1.385   .     S
C84    O120    1.294   .     A
C84    O119    1.322   .     A
C85    H104    1.080   .     S
C85    C86     1.402   .     A
C85    C515    1.385   1_545 S
C86    C94     1.455   .     S
C86    C87     1.397   .     A
C87    H105    1.076   .     S
C87    C520    1.382   1_545 S
C88    C89     1.401   .     A
C88    H106    1.083   .     S
C88    C303    1.382   .     S
C90    N116    1.370   .     A
C90    H107    1.082   .     S
C90    C163    1.425   .     S
C91    N115    1.367   .     A
C91    H108    1.079   .     S
C92    N115    1.388   .     A
C92    C125    1.480   .     S
C93    N129    1.427   .     S
C93    N116    1.368   .     A
C93    C164    1.428   .     S
C94    O122    1.299   .     A
C94    O121    1.304   .     A
C95    O124    1.309   .     A
C95    C97     1.472   .     S
C95    O123    1.302   .     A
C96    C725    1.399   1_554 S
C96    H757    1.077   1_554 S
C98    H110    1.068   .     S
C98    C99     1.388   .     A
C99    C748    1.382   .     S
C99    H760    1.080   .     S
C100   H111    1.080   .     S
C100   C722    1.405   1_554 S
C100   C747    1.382   1_554 S
Cu101  O121    1.965   .     S
Cu101  N115    2.035   .     S
Cu101  O119    1.998   .     S
Cu101  O117    1.961   .     S
Cu101  Cu102   2.707   .     S
Cu101  O123    1.997   .     S
Cu102  N116    2.034   .     S
Cu102  O120    1.997   .     S
Cu102  O122    1.961   .     S
Cu102  O124    1.998   .     S
Cu102  O118    1.965   .     S
H109   C744    1.077   .     S
H112   C747    1.080   1_554 S
C125   O127    1.397   .     S
C125   O126    1.215   .     D
O127   H128    1.014   .     S
N129   H130    1.032   .     S
N129   C131    1.446   .     S
C131   H132    1.111   .     S
C131   H133    1.110   .     S
C131   H134    1.103   .     S
C135   O137    1.399   .     S
C135   O136    1.222   .     D
O137   H210    1.010   .     S
N139   H140    1.030   .     S
N139   C141    1.454   .     S
C141   H144    1.106   .     S
C141   H142    1.109   .     S
C141   H143    1.111   .     S
C145   C161    1.451   .     S
C145   O189    1.298   .     A
C145   O190    1.302   .     A
C146   C147    1.417   .     A
C146   C796    1.414   .     S
C146   C820    1.405   .     S
C147   C154    1.433   .     A
C147   C151    1.417   .     A
C148   C152    1.410   .     A
C148   C794    1.414   1_554 S
C148   C797    1.409   1_554 S
C149   C150    1.397   .     A
C149   C796    1.409   .     S
C149   C816    1.399   .     S
C150   C207    1.465   .     S
C150   C151    1.389   .     A
C151   H185    1.073   .     S
C152   C169    1.417   .     A
C152   N211    1.428   .     S
C153   C168    1.386   .     A
C153   C169    1.402   .     A
C153   H175    1.083   .     S
C154   C170    1.399   .     A
C154   C156    1.484   .     S
C155   H186    1.083   .     S
C155   C161    1.400   .     A
C155   C373    1.385   .     S
C156   O192    1.294   .     A
C156   O191    1.322   .     A
C157   H176    1.080   .     S
C157   C158    1.402   .     A
C157   C587    1.385   1_545 S
C158   C166    1.455   .     S
C158   C159    1.397   .     A
C159   H177    1.076   .     S
C159   C592    1.382   1_545 S
C160   C161    1.401   .     A
C160   H178    1.083   .     S
C160   C375    1.382   .     S
C162   N188    1.370   .     A
C162   H179    1.082   .     S
C162   C19     1.425   1_655 S
C163   N187    1.367   .     A
C163   H180    1.079   .     S
C164   N187    1.388   .     A
C164   C197    1.480   .     S
C165   N201    1.427   .     S
C165   N188    1.368   .     A
C165   C20     1.428   1_655 S
C166   O194    1.299   .     A
C166   O193    1.304   .     A
C167   O196    1.309   .     A
C167   C169    1.472   .     S
C167   O195    1.302   .     A
C168   C797    1.399   1_554 S
C168   H829    1.077   1_554 S
C170   H182    1.068   .     S
C170   C171    1.388   .     A
C171   C820    1.382   .     S
C171   H832    1.080   .     S
C172   H183    1.080   .     S
C172   C794    1.405   1_554 S
C172   C819    1.382   1_554 S
Cu173  O193    1.965   .     S
Cu173  N187    2.035   .     S
Cu173  O191    1.998   .     S
Cu173  O189    1.961   .     S
Cu173  Cu174   2.707   .     S
Cu173  O195    1.997   .     S
Cu174  N188    2.034   .     S
Cu174  O192    1.997   .     S
Cu174  O194    1.961   .     S
Cu174  O196    1.998   .     S
Cu174  O190    1.965   .     S
H181   C816    1.077   .     S
H184   C819    1.080   1_554 S
C197   O199    1.397   .     S
C197   O198    1.215   .     D
O199   H200    1.014   .     S
N201   H202    1.032   .     S
N201   C203    1.446   .     S
C203   H204    1.111   .     S
C203   H205    1.110   .     S
C203   H206    1.103   .     S
C207   O209    1.399   .     S
C207   O208    1.222   .     D
O209   H66     1.010   1_655 S
N211   H212    1.030   .     S
N211   C213    1.454   .     S
C213   H216    1.106   .     S
C213   H214    1.109   .     S
C213   H215    1.111   .     S
C217   C233    1.451   .     S
C217   O261    1.298   .     A
C217   O262    1.302   .     A
C218   C219    1.417   .     A
C218   C868    1.414   .     S
C218   C892    1.405   .     S
C219   C226    1.433   .     A
C219   C223    1.417   .     A
C220   C224    1.410   .     A
C220   C866    1.414   1_554 S
C220   C869    1.409   1_554 S
C221   C222    1.397   .     A
C221   C868    1.409   .     S
C221   C888    1.399   .     S
C222   C279    1.465   .     S
C222   C223    1.389   .     A
C223   H257    1.073   .     S
C224   C241    1.417   .     A
C224   N283    1.428   .     S
C225   C240    1.386   .     A
C225   C241    1.402   .     A
C225   H247    1.083   .     S
C226   C242    1.399   .     A
C226   C228    1.484   .     S
C227   H258    1.083   .     S
C227   C233    1.400   .     A
C227   C445    1.385   .     S
C228   O264    1.294   .     A
C228   O263    1.322   .     A
C229   H248    1.080   .     S
C229   C230    1.402   .     A
C230   C238    1.455   .     S
C230   C231    1.397   .     A
C231   H249    1.076   .     S
C232   C233    1.401   .     A
C232   H250    1.083   .     S
C232   C447    1.382   .     S
C234   N260    1.370   .     A
C234   H251    1.082   .     S
C234   C307    1.425   .     S
C235   N259    1.367   .     A
C235   H252    1.079   .     S
C235   C378    1.425   1_455 S
C236   N259    1.388   .     A
C236   C269    1.480   .     S
C236   C381    1.428   1_455 S
C237   N273    1.427   .     S
C237   N260    1.368   .     A
C237   C308    1.428   .     S
C238   O266    1.299   .     A
C238   O265    1.304   .     A
C239   O268    1.309   .     A
C239   C241    1.472   .     S
C239   O267    1.302   .     A
C240   C869    1.399   1_554 S
C240   H901    1.077   1_554 S
C242   H254    1.068   .     S
C242   C243    1.388   .     A
C243   C892    1.382   .     S
C243   H904    1.080   .     S
C244   H255    1.080   .     S
C244   C866    1.405   1_554 S
C244   C891    1.382   1_554 S
Cu245  O265    1.965   .     S
Cu245  N259    2.035   .     S
Cu245  O263    1.998   .     S
Cu245  O261    1.961   .     S
Cu245  Cu246   2.707   .     S
Cu245  O267    1.997   .     S
Cu246  N260    2.034   .     S
Cu246  O264    1.997   .     S
Cu246  O266    1.961   .     S
Cu246  O268    1.998   .     S
Cu246  O262    1.965   .     S
H253   C888    1.077   .     S
H256   C891    1.080   1_554 S
C269   O271    1.397   .     S
C269   O270    1.215   .     D
O271   H272    1.014   .     S
N273   H274    1.032   .     S
N273   C275    1.446   .     S
C275   H276    1.111   .     S
C275   H277    1.110   .     S
C275   H278    1.103   .     S
C279   O281    1.399   .     S
C279   O280    1.222   .     D
O281   H354    1.010   .     S
H282   O425    1.010   1_455 S
N283   H284    1.030   .     S
N283   C285    1.454   .     S
C285   H288    1.106   .     S
C285   H286    1.109   .     S
C285   H287    1.111   .     S
C289   C305    1.451   .     S
C289   O333    1.298   .     A
C289   O334    1.302   .     A
C290   C291    1.417   .     A
C290   C940    1.414   .     S
C290   C964    1.405   .     S
C291   C298    1.433   .     A
C291   C295    1.417   .     A
C292   C296    1.410   .     A
C292   C938    1.414   1_554 S
C292   C941    1.409   1_554 S
C293   C294    1.397   .     A
C293   C940    1.409   .     S
C293   C960    1.399   .     S
C294   C351    1.465   .     S
C294   C295    1.389   .     A
C295   H329    1.073   .     S
C296   C313    1.417   .     A
C296   N355    1.428   .     S
C297   C312    1.386   .     A
C297   C313    1.402   .     A
C297   H319    1.083   .     S
C298   C314    1.399   .     A
C298   C300    1.484   .     S
C299   H330    1.083   .     S
C299   C305    1.400   .     A
C299   C517    1.385   .     S
C300   O336    1.294   .     A
C300   O335    1.322   .     A
C301   H320    1.080   .     S
C301   C302    1.402   .     A
C302   C310    1.455   .     S
C302   C303    1.397   .     A
C303   H321    1.076   .     S
C304   C305    1.401   .     A
C304   H322    1.083   .     S
C304   C519    1.382   .     S
C306   N332    1.370   .     A
C306   H323    1.082   .     S
C306   C379    1.425   .     S
C307   N331    1.367   .     A
C307   H324    1.079   .     S
C308   N331    1.388   .     A
C308   C341    1.480   .     S
C309   N345    1.427   .     S
C309   N332    1.368   .     A
C309   C380    1.428   .     S
C310   O338    1.299   .     A
C310   O337    1.304   .     A
C311   O340    1.309   .     A
C311   C313    1.472   .     S
C311   O339    1.302   .     A
C312   C941    1.399   1_554 S
C312   H973    1.077   1_554 S
C314   H326    1.068   .     S
C314   C315    1.388   .     A
C315   C964    1.382   .     S
C315   H976    1.080   .     S
C316   H327    1.080   .     S
C316   C938    1.405   1_554 S
C316   C963    1.382   1_554 S
Cu317  O337    1.965   .     S
Cu317  N331    2.035   .     S
Cu317  O335    1.998   .     S
Cu317  O333    1.961   .     S
Cu317  Cu318   2.707   .     S
Cu317  O339    1.997   .     S
Cu318  N332    2.034   .     S
Cu318  O336    1.997   .     S
Cu318  O338    1.961   .     S
Cu318  O340    1.998   .     S
Cu318  O334    1.965   .     S
H325   C960    1.077   .     S
H328   C963    1.080   1_554 S
C341   O343    1.397   .     S
C341   O342    1.215   .     D
O343   H344    1.014   .     S
N345   H346    1.032   .     S
N345   C347    1.446   .     S
C347   H348    1.111   .     S
C347   H349    1.110   .     S
C347   H350    1.103   .     S
C351   O353    1.399   .     S
C351   O352    1.222   .     D
O353   H426    1.010   .     S
N355   H356    1.030   .     S
N355   C357    1.454   .     S
C357   H360    1.106   .     S
C357   H358    1.109   .     S
C357   H359    1.111   .     S
C361   C377    1.451   .     S
C361   O405    1.298   .     A
C361   O406    1.302   .     A
C362   C363    1.417   .     A
C362   C1012   1.414   .     S
C362   C1036   1.405   .     S
C363   C370    1.433   .     A
C363   C367    1.417   .     A
C364   C368    1.410   .     A
C364   C1010   1.414   1_554 S
C364   C1013   1.409   1_554 S
C365   C366    1.397   .     A
C365   C1012   1.409   .     S
C365   C1032   1.399   .     S
C366   C423    1.465   .     S
C366   C367    1.389   .     A
C367   H401    1.073   .     S
C368   C385    1.417   .     A
C368   N427    1.428   .     S
C369   C384    1.386   .     A
C369   C385    1.402   .     A
C369   H391    1.083   .     S
C370   C386    1.399   .     A
C370   C372    1.484   .     S
C371   H402    1.083   .     S
C371   C377    1.400   .     A
C371   C589    1.385   .     S
C372   O408    1.294   .     A
C372   O407    1.322   .     A
C373   H392    1.080   .     S
C373   C374    1.402   .     A
C374   C382    1.455   .     S
C374   C375    1.397   .     A
C375   H393    1.076   .     S
C376   C377    1.401   .     A
C376   H394    1.083   .     S
C376   C591    1.382   .     S
C378   N404    1.370   .     A
C378   H395    1.082   .     S
C378   C235    1.425   1_655 S
C379   N403    1.367   .     A
C379   H396    1.079   .     S
C380   N403    1.388   .     A
C380   C413    1.480   .     S
C381   N417    1.427   .     S
C381   N404    1.368   .     A
C381   C236    1.428   1_655 S
C382   O410    1.299   .     A
C382   O409    1.304   .     A
C383   O412    1.309   .     A
C383   C385    1.472   .     S
C383   O411    1.302   .     A
C384   C1013   1.399   1_554 S
C384   H1045   1.077   1_554 S
C386   H398    1.068   .     S
C386   C387    1.388   .     A
C387   C1036   1.382   .     S
C387   H1048   1.080   .     S
C388   H399    1.080   .     S
C388   C1010   1.405   1_554 S
C388   C1035   1.382   1_554 S
Cu389  O409    1.965   .     S
Cu389  N403    2.035   .     S
Cu389  O407    1.998   .     S
Cu389  O405    1.961   .     S
Cu389  Cu390   2.707   .     S
Cu389  O411    1.997   .     S
Cu390  N404    2.034   .     S
Cu390  O408    1.997   .     S
Cu390  O410    1.961   .     S
Cu390  O412    1.998   .     S
Cu390  O406    1.965   .     S
H397   C1032   1.077   .     S
H400   C1035   1.080   1_554 S
C413   O415    1.397   .     S
C413   O414    1.215   .     D
O415   H416    1.014   .     S
N417   H418    1.032   .     S
N417   C419    1.446   .     S
C419   H420    1.111   .     S
C419   H421    1.110   .     S
C419   H422    1.103   .     S
C423   O425    1.399   .     S
C423   O424    1.222   .     D
O425   H282    1.010   1_655 S
N427   H428    1.030   .     S
N427   C429    1.454   .     S
C429   H432    1.106   .     S
C429   H430    1.109   .     S
C429   H431    1.111   .     S
C433   C449    1.451   .     S
C433   O477    1.298   .     A
C433   O478    1.302   .     A
C434   C435    1.417   .     A
C434   C1084   1.414   .     S
C434   C1108   1.405   .     S
C435   C442    1.433   .     A
C435   C439    1.417   .     A
C436   C440    1.410   .     A
C436   C1082   1.414   1_554 S
C436   C1085   1.409   1_554 S
C437   C438    1.397   .     A
C437   C1084   1.409   .     S
C437   C1104   1.399   .     S
C438   C495    1.465   .     S
C438   C439    1.389   .     A
C439   H473    1.073   .     S
C440   C457    1.417   .     A
C440   N499    1.428   .     S
C441   C456    1.386   .     A
C441   C457    1.402   .     A
C441   H463    1.083   .     S
C442   C458    1.399   .     A
C442   C444    1.484   .     S
C443   H474    1.083   .     S
C443   C449    1.400   .     A
C443   C13     1.385   1_565 S
C444   O480    1.294   .     A
C444   O479    1.322   .     A
C445   H464    1.080   .     S
C445   C446    1.402   .     A
C446   C454    1.455   .     S
C446   C447    1.397   .     A
C447   H465    1.076   .     S
C448   C449    1.401   .     A
C448   H466    1.083   .     S
C448   C15     1.382   1_565 S
C450   N476    1.370   .     A
C450   H467    1.082   .     S
C450   C523    1.425   .     S
C451   N475    1.367   .     A
C451   H468    1.079   .     S
C451   C594    1.425   1_455 S
C452   N475    1.388   .     A
C452   C485    1.480   .     S
C452   C597    1.428   1_455 S
C453   N489    1.427   .     S
C453   N476    1.368   .     A
C453   C524    1.428   .     S
C454   O482    1.299   .     A
C454   O481    1.304   .     A
C455   O484    1.309   .     A
C455   C457    1.472   .     S
C455   O483    1.302   .     A
C456   C1085   1.399   1_554 S
C456   H1117   1.077   1_554 S
C458   H470    1.068   .     S
C458   C459    1.388   .     A
C459   C1108   1.382   .     S
C459   H1120   1.080   .     S
C460   H471    1.080   .     S
C460   C1082   1.405   1_554 S
C460   C1107   1.382   1_554 S
Cu461  O481    1.965   .     S
Cu461  N475    2.035   .     S
Cu461  O479    1.998   .     S
Cu461  O477    1.961   .     S
Cu461  Cu462   2.707   .     S
Cu461  O483    1.997   .     S
Cu462  N476    2.034   .     S
Cu462  O480    1.997   .     S
Cu462  O482    1.961   .     S
Cu462  O484    1.998   .     S
Cu462  O478    1.965   .     S
H469   C1104   1.077   .     S
H472   C1107   1.080   1_554 S
C485   O487    1.397   .     S
C485   O486    1.215   .     D
O487   H488    1.014   .     S
N489   H490    1.032   .     S
N489   C491    1.446   .     S
C491   H492    1.111   .     S
C491   H493    1.110   .     S
C491   H494    1.103   .     S
C495   O497    1.399   .     S
C495   O496    1.222   .     D
O497   H570    1.010   .     S
H498   O641    1.010   1_455 S
N499   H500    1.030   .     S
N499   C501    1.454   .     S
C501   H504    1.106   .     S
C501   H502    1.109   .     S
C501   H503    1.111   .     S
C505   C521    1.451   .     S
C505   O549    1.298   .     A
C505   O550    1.302   .     A
C506   C507    1.417   .     A
C506   C1156   1.414   .     S
C506   C1180   1.405   .     S
C507   C514    1.433   .     A
C507   C511    1.417   .     A
C508   C512    1.410   .     A
C508   C1154   1.414   1_554 S
C508   C1157   1.409   1_554 S
C509   C510    1.397   .     A
C509   C1156   1.409   .     S
C509   C1176   1.399   .     S
C510   C567    1.465   .     S
C510   C511    1.389   .     A
C511   H545    1.073   .     S
C512   C529    1.417   .     A
C512   N571    1.428   .     S
C513   C528    1.386   .     A
C513   C529    1.402   .     A
C513   H535    1.083   .     S
C514   C530    1.399   .     A
C514   C516    1.484   .     S
C515   H546    1.083   .     S
C515   C521    1.400   .     A
C515   C85     1.385   1_565 S
C516   O552    1.294   .     A
C516   O551    1.322   .     A
C517   H536    1.080   .     S
C517   C518    1.402   .     A
C518   C526    1.455   .     S
C518   C519    1.397   .     A
C519   H537    1.076   .     S
C520   C521    1.401   .     A
C520   H538    1.083   .     S
C520   C87     1.382   1_565 S
C522   N548    1.370   .     A
C522   H539    1.082   .     S
C522   C595    1.425   .     S
C523   N547    1.367   .     A
C523   H540    1.079   .     S
C524   N547    1.388   .     A
C524   C557    1.480   .     S
C525   N561    1.427   .     S
C525   N548    1.368   .     A
C525   C596    1.428   .     S
C526   O554    1.299   .     A
C526   O553    1.304   .     A
C527   O556    1.309   .     A
C527   C529    1.472   .     S
C527   O555    1.302   .     A
C528   C1157   1.399   1_554 S
C528   H1189   1.077   1_554 S
C530   H542    1.068   .     S
C530   C531    1.388   .     A
C531   C1180   1.382   .     S
C531   H1192   1.080   .     S
C532   H543    1.080   .     S
C532   C1154   1.405   1_554 S
C532   C1179   1.382   1_554 S
Cu533  O553    1.965   .     S
Cu533  N547    2.035   .     S
Cu533  O551    1.998   .     S
Cu533  O549    1.961   .     S
Cu533  Cu534   2.707   .     S
Cu533  O555    1.997   .     S
Cu534  N548    2.034   .     S
Cu534  O552    1.997   .     S
Cu534  O554    1.961   .     S
Cu534  O556    1.998   .     S
Cu534  O550    1.965   .     S
H541   C1176   1.077   .     S
H544   C1179   1.080   1_554 S
C557   O559    1.397   .     S
C557   O558    1.215   .     D
O559   H560    1.014   .     S
N561   H562    1.032   .     S
N561   C563    1.446   .     S
C563   H564    1.111   .     S
C563   H565    1.110   .     S
C563   H566    1.103   .     S
C567   O569    1.399   .     S
C567   O568    1.222   .     D
O569   H642    1.010   .     S
N571   H572    1.030   .     S
N571   C573    1.454   .     S
C573   H576    1.106   .     S
C573   H574    1.109   .     S
C573   H575    1.111   .     S
C577   C593    1.451   .     S
C577   O621    1.298   .     A
C577   O622    1.302   .     A
C578   C579    1.417   .     A
C578   C1228   1.414   .     S
C578   C1252   1.405   .     S
C579   C586    1.433   .     A
C579   C583    1.417   .     A
C580   C584    1.410   .     A
C580   C1226   1.414   1_554 S
C580   C1229   1.409   1_554 S
C581   C582    1.397   .     A
C581   C1228   1.409   .     S
C581   C1248   1.399   .     S
C582   C639    1.465   .     S
C582   C583    1.389   .     A
C583   H617    1.073   .     S
C584   C601    1.417   .     A
C584   N643    1.428   .     S
C585   C600    1.386   .     A
C585   C601    1.402   .     A
C585   H607    1.083   .     S
C586   C602    1.399   .     A
C586   C588    1.484   .     S
C587   H618    1.083   .     S
C587   C593    1.400   .     A
C587   C157    1.385   1_565 S
C588   O624    1.294   .     A
C588   O623    1.322   .     A
C589   H608    1.080   .     S
C589   C590    1.402   .     A
C590   C598    1.455   .     S
C590   C591    1.397   .     A
C591   H609    1.076   .     S
C592   C593    1.401   .     A
C592   H610    1.083   .     S
C592   C159    1.382   1_565 S
C594   N620    1.370   .     A
C594   H611    1.082   .     S
C594   C451    1.425   1_655 S
C595   N619    1.367   .     A
C595   H612    1.079   .     S
C596   N619    1.388   .     A
C596   C629    1.480   .     S
C597   N633    1.427   .     S
C597   N620    1.368   .     A
C597   C452    1.428   1_655 S
C598   O626    1.299   .     A
C598   O625    1.304   .     A
C599   O628    1.309   .     A
C599   C601    1.472   .     S
C599   O627    1.302   .     A
C600   C1229   1.399   1_554 S
C600   H1261   1.077   1_554 S
C602   H614    1.068   .     S
C602   C603    1.388   .     A
C603   C1252   1.382   .     S
C603   H1264   1.080   .     S
C604   H615    1.080   .     S
C604   C1226   1.405   1_554 S
C604   C1251   1.382   1_554 S
Cu605  O625    1.965   .     S
Cu605  N619    2.035   .     S
Cu605  O623    1.998   .     S
Cu605  O621    1.961   .     S
Cu605  Cu606   2.707   .     S
Cu605  O627    1.997   .     S
Cu606  N620    2.034   .     S
Cu606  O624    1.997   .     S
Cu606  O626    1.961   .     S
Cu606  O628    1.998   .     S
Cu606  O622    1.965   .     S
H613   C1248   1.077   .     S
H616   C1251   1.080   1_554 S
C629   O631    1.397   .     S
C629   O630    1.215   .     D
O631   H632    1.014   .     S
N633   H634    1.032   .     S
N633   C635    1.446   .     S
C635   H636    1.111   .     S
C635   H637    1.110   .     S
C635   H638    1.103   .     S
C639   O641    1.399   .     S
C639   O640    1.222   .     D
O641   H498    1.010   1_655 S
N643   H644    1.030   .     S
N643   C645    1.454   .     S
C645   H648    1.106   .     S
C645   H646    1.109   .     S
C645   H647    1.111   .     S
C649   C665    1.451   .     S
C649   O693    1.298   .     A
C649   O694    1.302   .     A
C650   C651    1.417   .     A
C650   C4      1.414   1_556 S
C650   C28     1.405   1_556 S
C651   C658    1.433   .     A
C651   C655    1.417   .     A
C652   C656    1.410   .     A
C653   C654    1.397   .     A
C653   C4      1.409   1_556 S
C653   C24     1.399   1_556 S
C654   C711    1.465   .     S
C654   C655    1.389   .     A
C655   H689    1.073   .     S
C656   C673    1.417   .     A
C656   N715    1.428   .     S
C657   C672    1.386   .     A
C657   C673    1.402   .     A
C657   H679    1.083   .     S
C658   C674    1.399   .     A
C658   C660    1.484   .     S
C659   H690    1.083   .     S
C659   C665    1.400   .     A
C659   C877    1.385   .     S
C660   O696    1.294   .     A
C660   O695    1.322   .     A
C661   H680    1.080   .     S
C661   C662    1.402   .     A
C661   C1091   1.385   1_545 S
C662   C670    1.455   .     S
C662   C663    1.397   .     A
C663   H681    1.076   .     S
C663   C1096   1.382   1_545 S
C664   C665    1.401   .     A
C664   H682    1.083   .     S
C664   C879    1.382   .     S
C666   N692    1.370   .     A
C666   H683    1.082   .     S
C666   C739    1.425   .     S
C667   N691    1.367   .     A
C667   H684    1.079   .     S
C667   C810    1.425   1_455 S
C668   N691    1.388   .     A
C668   C701    1.480   .     S
C668   C813    1.428   1_455 S
C669   N705    1.427   .     S
C669   N692    1.368   .     A
C669   C740    1.428   .     S
C670   O698    1.299   .     A
C670   O697    1.304   .     A
C671   O700    1.309   .     A
C671   C673    1.472   .     S
C671   O699    1.302   .     A
C674   H686    1.068   .     S
C674   C675    1.388   .     A
C675   C28     1.382   1_556 S
C675   H40     1.080   1_556 S
C676   H687    1.080   .     S
Cu677  O697    1.965   .     S
Cu677  N691    2.035   .     S
Cu677  O695    1.998   .     S
Cu677  O693    1.961   .     S
Cu677  Cu678   2.707   .     S
Cu677  O699    1.997   .     S
Cu678  N692    2.034   .     S
Cu678  O696    1.997   .     S
Cu678  O698    1.961   .     S
Cu678  O700    1.998   .     S
Cu678  O694    1.965   .     S
H685   C24     1.077   1_556 S
C701   O703    1.397   .     S
C701   O702    1.215   .     D
O703   H704    1.014   .     S
N705   H706    1.032   .     S
N705   C707    1.446   .     S
C707   H708    1.111   .     S
C707   H709    1.110   .     S
C707   H710    1.103   .     S
C711   O713    1.399   .     S
C711   O712    1.222   .     D
O713   H786    1.010   .     S
H714   O857    1.010   1_455 S
N715   H716    1.030   .     S
N715   C717    1.454   .     S
C717   H720    1.106   .     S
C717   H718    1.109   .     S
C717   H719    1.111   .     S
C721   C737    1.451   .     S
C721   O765    1.298   .     A
C721   O766    1.302   .     A
C722   C723    1.417   .     A
C722   C76     1.414   1_556 S
C722   C100    1.405   1_556 S
C723   C730    1.433   .     A
C723   C727    1.417   .     A
C724   C728    1.410   .     A
C725   C726    1.397   .     A
C725   C76     1.409   1_556 S
C725   C96     1.399   1_556 S
C726   C783    1.465   .     S
C726   C727    1.389   .     A
C727   H761    1.073   .     S
C728   C745    1.417   .     A
C728   N787    1.428   .     S
C729   C744    1.386   .     A
C729   C745    1.402   .     A
C729   H751    1.083   .     S
C730   C746    1.399   .     A
C730   C732    1.484   .     S
C731   H762    1.083   .     S
C731   C737    1.400   .     A
C731   C949    1.385   .     S
C732   O768    1.294   .     A
C732   O767    1.322   .     A
C733   H752    1.080   .     S
C733   C734    1.402   .     A
C733   C1163   1.385   1_545 S
C734   C742    1.455   .     S
C734   C735    1.397   .     A
C735   H753    1.076   .     S
C735   C1168   1.382   1_545 S
C736   C737    1.401   .     A
C736   H754    1.083   .     S
C736   C951    1.382   .     S
C738   N764    1.370   .     A
C738   H755    1.082   .     S
C738   C811    1.425   .     S
C739   N763    1.367   .     A
C739   H756    1.079   .     S
C740   N763    1.388   .     A
C740   C773    1.480   .     S
C741   N777    1.427   .     S
C741   N764    1.368   .     A
C741   C812    1.428   .     S
C742   O770    1.299   .     A
C742   O769    1.304   .     A
C743   O772    1.309   .     A
C743   C745    1.472   .     S
C743   O771    1.302   .     A
C746   H758    1.068   .     S
C746   C747    1.388   .     A
C747   C100    1.382   1_556 S
C747   H112    1.080   1_556 S
C748   H759    1.080   .     S
Cu749  O769    1.965   .     S
Cu749  N763    2.035   .     S
Cu749  O767    1.998   .     S
Cu749  O765    1.961   .     S
Cu749  Cu750   2.707   .     S
Cu749  O771    1.997   .     S
Cu750  N764    2.034   .     S
Cu750  O768    1.997   .     S
Cu750  O770    1.961   .     S
Cu750  O772    1.998   .     S
Cu750  O766    1.965   .     S
H757   C96     1.077   1_556 S
C773   O775    1.397   .     S
C773   O774    1.215   .     D
O775   H776    1.014   .     S
N777   H778    1.032   .     S
N777   C779    1.446   .     S
C779   H780    1.111   .     S
C779   H781    1.110   .     S
C779   H782    1.103   .     S
C783   O785    1.399   .     S
C783   O784    1.222   .     D
O785   H858    1.010   .     S
N787   H788    1.030   .     S
N787   C789    1.454   .     S
C789   H792    1.106   .     S
C789   H790    1.109   .     S
C789   H791    1.111   .     S
C793   C809    1.451   .     S
C793   O837    1.298   .     A
C793   O838    1.302   .     A
C794   C795    1.417   .     A
C794   C148    1.414   1_556 S
C794   C172    1.405   1_556 S
C795   C802    1.433   .     A
C795   C799    1.417   .     A
C796   C800    1.410   .     A
C797   C798    1.397   .     A
C797   C148    1.409   1_556 S
C797   C168    1.399   1_556 S
C798   C855    1.465   .     S
C798   C799    1.389   .     A
C799   H833    1.073   .     S
C800   C817    1.417   .     A
C800   N859    1.428   .     S
C801   C816    1.386   .     A
C801   C817    1.402   .     A
C801   H823    1.083   .     S
C802   C818    1.399   .     A
C802   C804    1.484   .     S
C803   H834    1.083   .     S
C803   C809    1.400   .     A
C803   C1021   1.385   .     S
C804   O840    1.294   .     A
C804   O839    1.322   .     A
C805   H824    1.080   .     S
C805   C806    1.402   .     A
C805   C1235   1.385   1_545 S
C806   C814    1.455   .     S
C806   C807    1.397   .     A
C807   H825    1.076   .     S
C807   C1240   1.382   1_545 S
C808   C809    1.401   .     A
C808   H826    1.083   .     S
C808   C1023   1.382   .     S
C810   N836    1.370   .     A
C810   H827    1.082   .     S
C810   C667    1.425   1_655 S
C811   N835    1.367   .     A
C811   H828    1.079   .     S
C812   N835    1.388   .     A
C812   C845    1.480   .     S
C813   N849    1.427   .     S
C813   N836    1.368   .     A
C813   C668    1.428   1_655 S
C814   O842    1.299   .     A
C814   O841    1.304   .     A
C815   O844    1.309   .     A
C815   C817    1.472   .     S
C815   O843    1.302   .     A
C818   H830    1.068   .     S
C818   C819    1.388   .     A
C819   C172    1.382   1_556 S
C819   H184    1.080   1_556 S
C820   H831    1.080   .     S
Cu821  O841    1.965   .     S
Cu821  N835    2.035   .     S
Cu821  O839    1.998   .     S
Cu821  O837    1.961   .     S
Cu821  Cu822   2.707   .     S
Cu821  O843    1.997   .     S
Cu822  N836    2.034   .     S
Cu822  O840    1.997   .     S
Cu822  O842    1.961   .     S
Cu822  O844    1.998   .     S
Cu822  O838    1.965   .     S
H829   C168    1.077   1_556 S
C845   O847    1.397   .     S
C845   O846    1.215   .     D
O847   H848    1.014   .     S
N849   H850    1.032   .     S
N849   C851    1.446   .     S
C851   H852    1.111   .     S
C851   H853    1.110   .     S
C851   H854    1.103   .     S
C855   O857    1.399   .     S
C855   O856    1.222   .     D
O857   H714    1.010   1_655 S
N859   H860    1.030   .     S
N859   C861    1.454   .     S
C861   H864    1.106   .     S
C861   H862    1.109   .     S
C861   H863    1.111   .     S
C865   C881    1.451   .     S
C865   O909    1.298   .     A
C865   O910    1.302   .     A
C866   C867    1.417   .     A
C866   C220    1.414   1_556 S
C866   C244    1.405   1_556 S
C867   C874    1.433   .     A
C867   C871    1.417   .     A
C868   C872    1.410   .     A
C869   C870    1.397   .     A
C869   C220    1.409   1_556 S
C869   C240    1.399   1_556 S
C870   C927    1.465   .     S
C870   C871    1.389   .     A
C871   H905    1.073   .     S
C872   C889    1.417   .     A
C872   N931    1.428   .     S
C873   C888    1.386   .     A
C873   C889    1.402   .     A
C873   H895    1.083   .     S
C874   C890    1.399   .     A
C874   C876    1.484   .     S
C875   H906    1.083   .     S
C875   C881    1.400   .     A
C875   C1093   1.385   .     S
C876   O912    1.294   .     A
C876   O911    1.322   .     A
C877   H896    1.080   .     S
C877   C878    1.402   .     A
C878   C886    1.455   .     S
C878   C879    1.397   .     A
C879   H897    1.076   .     S
C880   C881    1.401   .     A
C880   H898    1.083   .     S
C880   C1095   1.382   .     S
C882   N908    1.370   .     A
C882   H899    1.082   .     S
C882   C955    1.425   .     S
C883   N907    1.367   .     A
C883   H900    1.079   .     S
C883   C1026   1.425   1_455 S
C884   N907    1.388   .     A
C884   C917    1.480   .     S
C884   C1029   1.428   1_455 S
C885   N921    1.427   .     S
C885   N908    1.368   .     A
C885   C956    1.428   .     S
C886   O914    1.299   .     A
C886   O913    1.304   .     A
C887   O916    1.309   .     A
C887   C889    1.472   .     S
C887   O915    1.302   .     A
C890   H902    1.068   .     S
C890   C891    1.388   .     A
C891   C244    1.382   1_556 S
C891   H256    1.080   1_556 S
C892   H903    1.080   .     S
Cu893  O913    1.965   .     S
Cu893  N907    2.035   .     S
Cu893  O911    1.998   .     S
Cu893  O909    1.961   .     S
Cu893  Cu894   2.707   .     S
Cu893  O915    1.997   .     S
Cu894  N908    2.034   .     S
Cu894  O912    1.997   .     S
Cu894  O914    1.961   .     S
Cu894  O916    1.998   .     S
Cu894  O910    1.965   .     S
H901   C240    1.077   1_556 S
C917   O919    1.397   .     S
C917   O918    1.215   .     D
O919   H920    1.014   .     S
N921   H922    1.032   .     S
N921   C923    1.446   .     S
C923   H924    1.111   .     S
C923   H925    1.110   .     S
C923   H926    1.103   .     S
C927   O929    1.399   .     S
C927   O928    1.222   .     D
O929   H1002   1.010   .     S
H930   O1073   1.010   1_455 S
N931   H932    1.030   .     S
N931   C933    1.454   .     S
C933   H936    1.106   .     S
C933   H934    1.109   .     S
C933   H935    1.111   .     S
C937   C953    1.451   .     S
C937   O981    1.298   .     A
C937   O982    1.302   .     A
C938   C939    1.417   .     A
C938   C292    1.414   1_556 S
C938   C316    1.405   1_556 S
C939   C946    1.433   .     A
C939   C943    1.417   .     A
C940   C944    1.410   .     A
C941   C942    1.397   .     A
C941   C292    1.409   1_556 S
C941   C312    1.399   1_556 S
C942   C999    1.465   .     S
C942   C943    1.389   .     A
C943   H977    1.073   .     S
C944   C961    1.417   .     A
C944   N1003   1.428   .     S
C945   C960    1.386   .     A
C945   C961    1.402   .     A
C945   H967    1.083   .     S
C946   C962    1.399   .     A
C946   C948    1.484   .     S
C947   H978    1.083   .     S
C947   C953    1.400   .     A
C947   C1165   1.385   .     S
C948   O984    1.294   .     A
C948   O983    1.322   .     A
C949   H968    1.080   .     S
C949   C950    1.402   .     A
C950   C958    1.455   .     S
C950   C951    1.397   .     A
C951   H969    1.076   .     S
C952   C953    1.401   .     A
C952   H970    1.083   .     S
C952   C1167   1.382   .     S
C954   N980    1.370   .     A
C954   H971    1.082   .     S
C954   C1027   1.425   .     S
C955   N979    1.367   .     A
C955   H972    1.079   .     S
C956   N979    1.388   .     A
C956   C989    1.480   .     S
C957   N993    1.427   .     S
C957   N980    1.368   .     A
C957   C1028   1.428   .     S
C958   O986    1.299   .     A
C958   O985    1.304   .     A
C959   O988    1.309   .     A
C959   C961    1.472   .     S
C959   O987    1.302   .     A
C962   H974    1.068   .     S
C962   C963    1.388   .     A
C963   C316    1.382   1_556 S
C963   H328    1.080   1_556 S
C964   H975    1.080   .     S
Cu965  O985    1.965   .     S
Cu965  N979    2.035   .     S
Cu965  O983    1.998   .     S
Cu965  O981    1.961   .     S
Cu965  Cu966   2.707   .     S
Cu965  O987    1.997   .     S
Cu966  N980    2.034   .     S
Cu966  O984    1.997   .     S
Cu966  O986    1.961   .     S
Cu966  O988    1.998   .     S
Cu966  O982    1.965   .     S
H973   C312    1.077   1_556 S
C989   O991    1.397   .     S
C989   O990    1.215   .     D
O991   H992    1.014   .     S
N993   H994    1.032   .     S
N993   C995    1.446   .     S
C995   H996    1.111   .     S
C995   H997    1.110   .     S
C995   H998    1.103   .     S
C999   O1001   1.399   .     S
C999   O1000   1.222   .     D
O1001  H1074   1.010   .     S
N1003  H1004   1.030   .     S
N1003  C1005   1.454   .     S
C1005  H1008   1.106   .     S
C1005  H1006   1.109   .     S
C1005  H1007   1.111   .     S
C1009  C1025   1.451   .     S
C1009  O1053   1.298   .     A
C1009  O1054   1.302   .     A
C1010  C1011   1.417   .     A
C1010  C364    1.414   1_556 S
C1010  C388    1.405   1_556 S
C1011  C1018   1.433   .     A
C1011  C1015   1.417   .     A
C1012  C1016   1.410   .     A
C1013  C1014   1.397   .     A
C1013  C364    1.409   1_556 S
C1013  C384    1.399   1_556 S
C1014  C1071   1.465   .     S
C1014  C1015   1.389   .     A
C1015  H1049   1.073   .     S
C1016  C1033   1.417   .     A
C1016  N1075   1.428   .     S
C1017  C1032   1.386   .     A
C1017  C1033   1.402   .     A
C1017  H1039   1.083   .     S
C1018  C1034   1.399   .     A
C1018  C1020   1.484   .     S
C1019  H1050   1.083   .     S
C1019  C1025   1.400   .     A
C1019  C1237   1.385   .     S
C1020  O1056   1.294   .     A
C1020  O1055   1.322   .     A
C1021  H1040   1.080   .     S
C1021  C1022   1.402   .     A
C1022  C1030   1.455   .     S
C1022  C1023   1.397   .     A
C1023  H1041   1.076   .     S
C1024  C1025   1.401   .     A
C1024  H1042   1.083   .     S
C1024  C1239   1.382   .     S
C1026  N1052   1.370   .     A
C1026  H1043   1.082   .     S
C1026  C883    1.425   1_655 S
C1027  N1051   1.367   .     A
C1027  H1044   1.079   .     S
C1028  N1051   1.388   .     A
C1028  C1061   1.480   .     S
C1029  N1065   1.427   .     S
C1029  N1052   1.368   .     A
C1029  C884    1.428   1_655 S
C1030  O1058   1.299   .     A
C1030  O1057   1.304   .     A
C1031  O1060   1.309   .     A
C1031  C1033   1.472   .     S
C1031  O1059   1.302   .     A
C1034  H1046   1.068   .     S
C1034  C1035   1.388   .     A
C1035  C388    1.382   1_556 S
C1035  H400    1.080   1_556 S
C1036  H1047   1.080   .     S
Cu1037 O1057   1.965   .     S
Cu1037 N1051   2.035   .     S
Cu1037 O1055   1.998   .     S
Cu1037 O1053   1.961   .     S
Cu1037 Cu1038  2.707   .     S
Cu1037 O1059   1.997   .     S
Cu1038 N1052   2.034   .     S
Cu1038 O1056   1.997   .     S
Cu1038 O1058   1.961   .     S
Cu1038 O1060   1.998   .     S
Cu1038 O1054   1.965   .     S
H1045  C384    1.077   1_556 S
C1061  O1063   1.397   .     S
C1061  O1062   1.215   .     D
O1063  H1064   1.014   .     S
N1065  H1066   1.032   .     S
N1065  C1067   1.446   .     S
C1067  H1068   1.111   .     S
C1067  H1069   1.110   .     S
C1067  H1070   1.103   .     S
C1071  O1073   1.399   .     S
C1071  O1072   1.222   .     D
O1073  H930    1.010   1_655 S
N1075  H1076   1.030   .     S
N1075  C1077   1.454   .     S
C1077  H1080   1.106   .     S
C1077  H1078   1.109   .     S
C1077  H1079   1.111   .     S
C1081  C1097   1.451   .     S
C1081  O1125   1.298   .     A
C1081  O1126   1.302   .     A
C1082  C1083   1.417   .     A
C1082  C436    1.414   1_556 S
C1082  C460    1.405   1_556 S
C1083  C1090   1.433   .     A
C1083  C1087   1.417   .     A
C1084  C1088   1.410   .     A
C1085  C1086   1.397   .     A
C1085  C436    1.409   1_556 S
C1085  C456    1.399   1_556 S
C1086  C1143   1.465   .     S
C1086  C1087   1.389   .     A
C1087  H1121   1.073   .     S
C1088  C1105   1.417   .     A
C1088  N1147   1.428   .     S
C1089  C1104   1.386   .     A
C1089  C1105   1.402   .     A
C1089  H1111   1.083   .     S
C1090  C1106   1.399   .     A
C1090  C1092   1.484   .     S
C1091  H1122   1.083   .     S
C1091  C1097   1.400   .     A
C1091  C661    1.385   1_565 S
C1092  O1128   1.294   .     A
C1092  O1127   1.322   .     A
C1093  H1112   1.080   .     S
C1093  C1094   1.402   .     A
C1094  C1102   1.455   .     S
C1094  C1095   1.397   .     A
C1095  H1113   1.076   .     S
C1096  C1097   1.401   .     A
C1096  H1114   1.083   .     S
C1096  C663    1.382   1_565 S
C1098  N1124   1.370   .     A
C1098  H1115   1.082   .     S
C1098  C1171   1.425   .     S
C1099  N1123   1.367   .     A
C1099  H1116   1.079   .     S
C1099  C1242   1.425   1_455 S
C1100  N1123   1.388   .     A
C1100  C1133   1.480   .     S
C1100  C1245   1.428   1_455 S
C1101  N1137   1.427   .     S
C1101  N1124   1.368   .     A
C1101  C1172   1.428   .     S
C1102  O1130   1.299   .     A
C1102  O1129   1.304   .     A
C1103  O1132   1.309   .     A
C1103  C1105   1.472   .     S
C1103  O1131   1.302   .     A
C1106  H1118   1.068   .     S
C1106  C1107   1.388   .     A
C1107  C460    1.382   1_556 S
C1107  H472    1.080   1_556 S
C1108  H1119   1.080   .     S
Cu1109 O1129   1.965   .     S
Cu1109 N1123   2.035   .     S
Cu1109 O1127   1.998   .     S
Cu1109 O1125   1.961   .     S
Cu1109 Cu1110  2.707   .     S
Cu1109 O1131   1.997   .     S
Cu1110 N1124   2.034   .     S
Cu1110 O1128   1.997   .     S
Cu1110 O1130   1.961   .     S
Cu1110 O1132   1.998   .     S
Cu1110 O1126   1.965   .     S
H1117  C456    1.077   1_556 S
C1133  O1135   1.397   .     S
C1133  O1134   1.215   .     D
O1135  H1136   1.014   .     S
N1137  H1138   1.032   .     S
N1137  C1139   1.446   .     S
C1139  H1140   1.111   .     S
C1139  H1141   1.110   .     S
C1139  H1142   1.103   .     S
C1143  O1145   1.399   .     S
C1143  O1144   1.222   .     D
O1145  H1218   1.010   .     S
H1146  O1289   1.010   1_455 S
N1147  H1148   1.030   .     S
N1147  C1149   1.454   .     S
C1149  H1152   1.106   .     S
C1149  H1150   1.109   .     S
C1149  H1151   1.111   .     S
C1153  C1169   1.451   .     S
C1153  O1197   1.298   .     A
C1153  O1198   1.302   .     A
C1154  C1155   1.417   .     A
C1154  C508    1.414   1_556 S
C1154  C532    1.405   1_556 S
C1155  C1162   1.433   .     A
C1155  C1159   1.417   .     A
C1156  C1160   1.410   .     A
C1157  C1158   1.397   .     A
C1157  C508    1.409   1_556 S
C1157  C528    1.399   1_556 S
C1158  C1215   1.465   .     S
C1158  C1159   1.389   .     A
C1159  H1193   1.073   .     S
C1160  C1177   1.417   .     A
C1160  N1219   1.428   .     S
C1161  C1176   1.386   .     A
C1161  C1177   1.402   .     A
C1161  H1183   1.083   .     S
C1162  C1178   1.399   .     A
C1162  C1164   1.484   .     S
C1163  H1194   1.083   .     S
C1163  C1169   1.400   .     A
C1163  C733    1.385   1_565 S
C1164  O1200   1.294   .     A
C1164  O1199   1.322   .     A
C1165  H1184   1.080   .     S
C1165  C1166   1.402   .     A
C1166  C1174   1.455   .     S
C1166  C1167   1.397   .     A
C1167  H1185   1.076   .     S
C1168  C1169   1.401   .     A
C1168  H1186   1.083   .     S
C1168  C735    1.382   1_565 S
C1170  N1196   1.370   .     A
C1170  H1187   1.082   .     S
C1170  C1243   1.425   .     S
C1171  N1195   1.367   .     A
C1171  H1188   1.079   .     S
C1172  N1195   1.388   .     A
C1172  C1205   1.480   .     S
C1173  N1209   1.427   .     S
C1173  N1196   1.368   .     A
C1173  C1244   1.428   .     S
C1174  O1202   1.299   .     A
C1174  O1201   1.304   .     A
C1175  O1204   1.309   .     A
C1175  C1177   1.472   .     S
C1175  O1203   1.302   .     A
C1178  H1190   1.068   .     S
C1178  C1179   1.388   .     A
C1179  C532    1.382   1_556 S
C1179  H544    1.080   1_556 S
C1180  H1191   1.080   .     S
Cu1181 O1201   1.965   .     S
Cu1181 N1195   2.035   .     S
Cu1181 O1199   1.998   .     S
Cu1181 O1197   1.961   .     S
Cu1181 Cu1182  2.707   .     S
Cu1181 O1203   1.997   .     S
Cu1182 N1196   2.034   .     S
Cu1182 O1200   1.997   .     S
Cu1182 O1202   1.961   .     S
Cu1182 O1204   1.998   .     S
Cu1182 O1198   1.965   .     S
H1189  C528    1.077   1_556 S
C1205  O1207   1.397   .     S
C1205  O1206   1.215   .     D
O1207  H1208   1.014   .     S
N1209  H1210   1.032   .     S
N1209  C1211   1.446   .     S
C1211  H1212   1.111   .     S
C1211  H1213   1.110   .     S
C1211  H1214   1.103   .     S
C1215  O1217   1.399   .     S
C1215  O1216   1.222   .     D
O1217  H1290   1.010   .     S
N1219  H1220   1.030   .     S
N1219  C1221   1.454   .     S
C1221  H1224   1.106   .     S
C1221  H1222   1.109   .     S
C1221  H1223   1.111   .     S
C1225  C1241   1.451   .     S
C1225  O1269   1.298   .     A
C1225  O1270   1.302   .     A
C1226  C1227   1.417   .     A
C1226  C580    1.414   1_556 S
C1226  C604    1.405   1_556 S
C1227  C1234   1.433   .     A
C1227  C1231   1.417   .     A
C1228  C1232   1.410   .     A
C1229  C1230   1.397   .     A
C1229  C580    1.409   1_556 S
C1229  C600    1.399   1_556 S
C1230  C1287   1.465   .     S
C1230  C1231   1.389   .     A
C1231  H1265   1.073   .     S
C1232  C1249   1.417   .     A
C1232  N1291   1.428   .     S
C1233  C1248   1.386   .     A
C1233  C1249   1.402   .     A
C1233  H1255   1.083   .     S
C1234  C1250   1.399   .     A
C1234  C1236   1.484   .     S
C1235  H1266   1.083   .     S
C1235  C1241   1.400   .     A
C1235  C805    1.385   1_565 S
C1236  O1272   1.294   .     A
C1236  O1271   1.322   .     A
C1237  H1256   1.080   .     S
C1237  C1238   1.402   .     A
C1238  C1246   1.455   .     S
C1238  C1239   1.397   .     A
C1239  H1257   1.076   .     S
C1240  C1241   1.401   .     A
C1240  H1258   1.083   .     S
C1240  C807    1.382   1_565 S
C1242  N1268   1.370   .     A
C1242  H1259   1.082   .     S
C1242  C1099   1.425   1_655 S
C1243  N1267   1.367   .     A
C1243  H1260   1.079   .     S
C1244  N1267   1.388   .     A
C1244  C1277   1.480   .     S
C1245  N1281   1.427   .     S
C1245  N1268   1.368   .     A
C1245  C1100   1.428   1_655 S
C1246  O1274   1.299   .     A
C1246  O1273   1.304   .     A
C1247  O1276   1.309   .     A
C1247  C1249   1.472   .     S
C1247  O1275   1.302   .     A
C1250  H1262   1.068   .     S
C1250  C1251   1.388   .     A
C1251  C604    1.382   1_556 S
C1251  H616    1.080   1_556 S
C1252  H1263   1.080   .     S
Cu1253 O1273   1.965   .     S
Cu1253 N1267   2.035   .     S
Cu1253 O1271   1.998   .     S
Cu1253 O1269   1.961   .     S
Cu1253 Cu1254  2.707   .     S
Cu1253 O1275   1.997   .     S
Cu1254 N1268   2.034   .     S
Cu1254 O1272   1.997   .     S
Cu1254 O1274   1.961   .     S
Cu1254 O1276   1.998   .     S
Cu1254 O1270   1.965   .     S
H1261  C600    1.077   1_556 S
C1277  O1279   1.397   .     S
C1277  O1278   1.215   .     D
O1279  H1280   1.014   .     S
N1281  H1282   1.032   .     S
N1281  C1283   1.446   .     S
C1283  H1284   1.111   .     S
C1283  H1285   1.110   .     S
C1283  H1286   1.103   .     S
C1287  O1289   1.399   .     S
C1287  O1288   1.222   .     D
O1289  H1146   1.010   1_655 S
N1291  H1292   1.030   .     S
N1291  C1293   1.454   .     S
C1293  H1296   1.106   .     S
C1293  H1294   1.109   .     S
C1293  H1295   1.111   .     S
