data_str_m2_o1_o17_pcu_sym.62
_audit_creation_date              2020-01-03
_audit_creation_method            'Materials Studio'
_symmetry_space_group_name_H-M    'P1'
_symmetry_Int_Tables_number       1
_symmetry_cell_setting            triclinic
loop_
_symmetry_equiv_pos_as_xyz
  x,y,z
_cell_length_a                    32.5758
_cell_length_b                    28.4843
_cell_length_c                    30.1634
_cell_angle_alpha                 90.0517
_cell_angle_beta                  89.6908
_cell_angle_gamma                 91.2150
loop_
_atom_site_label
_atom_site_type_symbol
_atom_site_fract_x
_atom_site_fract_y
_atom_site_fract_z
_atom_site_U_iso_or_equiv
_atom_site_adp_type
_atom_site_occupancy
C1     C     0.08738   0.16610   0.24933   0.00000  Uiso   1.00
C2     C     0.04269   0.16495   0.24839   0.00000  Uiso   1.00
C3     C     0.18492   0.02522   0.21630   0.00000  Uiso   1.00
C4     C     0.14842   0.30812   0.28370   0.00000  Uiso   1.00
C5     C     0.14860   0.02441   0.28379   0.00000  Uiso   1.00
C6     C     0.18473   0.30892   0.21621   0.00000  Uiso   1.00
C7     C     0.16665   0.16666   0.16425   0.00000  Uiso   1.00
C8     C     0.16668   0.16668   0.33575   0.00000  Uiso   1.00
C9     C     0.16741   0.12399   0.40732   0.00000  Uiso   1.00
C10    C     0.16593   0.20934   0.09268   0.00000  Uiso   1.00
C11    C     0.16670   0.16669   0.38418   0.00000  Uiso   1.00
C12    C     0.24595   0.16724   0.25067   0.00000  Uiso   1.00
C13    C     0.16663   0.16665   0.11582   0.00000  Uiso   1.00
C14    C     0.16601   0.20937   0.40741   0.00000  Uiso   1.00
C15    C     0.16732   0.12396   0.09259   0.00000  Uiso   1.00
C16    C     0.16599   0.20966   0.45360   0.00000  Uiso   1.00
C17    C     0.16734   0.12367   0.04640   0.00000  Uiso   1.00
C18    C     0.16668   0.16667   0.47676   0.00000  Uiso   1.00
C19    C     0.16665   0.16666   0.02324   0.00000  Uiso   1.00
C20    C     0.16739   0.12369   0.45350   0.00000  Uiso   1.00
C21    C     0.16594   0.20965   0.04650   0.00000  Uiso   1.00
C22    C     0.16528   0.25220   0.47698   0.00000  Uiso   1.00
C23    C     0.16526   0.25219   0.02320   0.00000  Uiso   1.00
C24    C     0.16805   0.08114   0.02302   0.00000  Uiso   1.00
C25    C     0.04487   0.05229   0.27457   0.00000  Uiso   1.00
C26    C     0.28846   0.28104   0.22543   0.00000  Uiso   1.00
C27    C     0.27449   0.06151   0.29870   0.00000  Uiso   1.00
C28    C     0.05884   0.27183   0.20130   0.00000  Uiso   1.00
C29    C     0.16808   0.08114   0.47680   0.00000  Uiso   1.00
C30    C     0.02043   0.13202   0.27463   0.00000  Uiso   1.00
C31    C     0.31291   0.20132   0.22537   0.00000  Uiso   1.00
C32    C     0.31089   0.13494   0.27747   0.00000  Uiso   1.00
C33    C     0.02244   0.19840   0.22253   0.00000  Uiso   1.00
C34    C     0.29064   0.16839   0.25160   0.00000  Uiso   1.00
Cu35   Cu    0.16667   0.21355   0.25000   0.00000  Uiso   1.00
Cu36   Cu    0.16667   0.11978   0.25000   0.00000  Uiso   1.00
H37    H     0.16798   0.09095   0.38946   0.00000  Uiso   1.00
H38    H     0.13357   0.28914   0.31057   0.00000  Uiso   1.00
H39    H     0.13415   0.04277   0.31089   0.00000  Uiso   1.00
H40    H     0.19919   0.29057   0.18911   0.00000  Uiso   1.00
H41    H     0.03149   0.09165   0.33058   0.00000  Uiso   1.00
H42    H     0.01437   0.03723   0.26617   0.00000  Uiso   1.00
H43    H     0.06096   0.02659   0.29550   0.00000  Uiso   1.00
H44    H     0.06231   0.05715   0.24318   0.00000  Uiso   1.00
H45    H     0.30184   0.24169   0.16942   0.00000  Uiso   1.00
H46    H     0.31896   0.29610   0.23383   0.00000  Uiso   1.00
H47    H     0.27103   0.27618   0.25682   0.00000  Uiso   1.00
H48    H     0.16536   0.24238   0.11054   0.00000  Uiso   1.00
H49    H     0.27237   0.30674   0.20449   0.00000  Uiso   1.00
H50    H     0.29865   0.11228   0.34230   0.00000  Uiso   1.00
H51    H     0.29294   0.03525   0.31654   0.00000  Uiso   1.00
H52    H     0.27650   0.05505   0.26239   0.00000  Uiso   1.00
H53    H     0.24198   0.05665   0.30921   0.00000  Uiso   1.00
H54    H     0.03468   0.22105   0.15770   0.00000  Uiso   1.00
H55    H     0.04039   0.29808   0.18346   0.00000  Uiso   1.00
H56    H     0.09135   0.27669   0.19079   0.00000  Uiso   1.00
H57    H     0.05683   0.27828   0.23761   0.00000  Uiso   1.00
H58    H     0.16545   0.24241   0.38962   0.00000  Uiso   1.00
H59    H     0.16788   0.09092   0.11038   0.00000  Uiso   1.00
H60    H     0.16475   0.28542   0.45953   0.00000  Uiso   1.00
H61    H     0.16859   0.04791   0.04047   0.00000  Uiso   1.00
H62    H     0.16470   0.28540   0.04072   0.00000  Uiso   1.00
H63    H     0.16863   0.04793   0.45928   0.00000  Uiso   1.00
H64    H     0.19977   0.04420   0.18943   0.00000  Uiso   1.00
N65    N     0.16667   0.28402   0.25000   0.00000  Uiso   1.00
N66    N     0.16667   0.04931   0.25000   0.00000  Uiso   1.00
N67    N     0.04127   0.09636   0.29832   0.00000  Uiso   1.00
N68    N     0.29207   0.23697   0.20168   0.00000  Uiso   1.00
N69    N     0.28839   0.10860   0.31019   0.00000  Uiso   1.00
N70    N     0.04494   0.22473   0.18981   0.00000  Uiso   1.00
O71    O     0.10655   0.20625   0.24999   0.00000  Uiso   1.00
O72    O     0.22679   0.12709   0.25000   0.00000  Uiso   1.00
O73    O     0.22679   0.20625   0.25000   0.00000  Uiso   1.00
O74    O     0.10655   0.12709   0.24999   0.00000  Uiso   1.00
O75    O     0.16666   0.20627   0.18513   0.00000  Uiso   1.00
O76    O     0.16668   0.12707   0.31487   0.00000  Uiso   1.00
O77    O     0.16668   0.20627   0.31487   0.00000  Uiso   1.00
O78    O     0.16666   0.12707   0.18513   0.00000  Uiso   1.00
C79    C     0.42071   0.16610   0.24933   0.00000  Uiso   1.00
C80    C     0.37603   0.16495   0.24839   0.00000  Uiso   1.00
C81    C     0.51825   0.02522   0.21630   0.00000  Uiso   1.00
C82    C     0.48175   0.30812   0.28370   0.00000  Uiso   1.00
C83    C     0.48193   0.02441   0.28379   0.00000  Uiso   1.00
C84    C     0.51807   0.30892   0.21621   0.00000  Uiso   1.00
C85    C     0.49999   0.16666   0.16425   0.00000  Uiso   1.00
C86    C     0.50001   0.16668   0.33575   0.00000  Uiso   1.00
C87    C     0.50074   0.12399   0.40732   0.00000  Uiso   1.00
C88    C     0.49926   0.20934   0.09268   0.00000  Uiso   1.00
C89    C     0.50004   0.16669   0.38418   0.00000  Uiso   1.00
C90    C     0.57929   0.16724   0.25067   0.00000  Uiso   1.00
C91    C     0.49996   0.16665   0.11582   0.00000  Uiso   1.00
C92    C     0.49934   0.20937   0.40741   0.00000  Uiso   1.00
C93    C     0.50066   0.12396   0.09259   0.00000  Uiso   1.00
C94    C     0.49932   0.20966   0.45360   0.00000  Uiso   1.00
C95    C     0.50068   0.12367   0.04640   0.00000  Uiso   1.00
C96    C     0.50001   0.16667   0.47676   0.00000  Uiso   1.00
C97    C     0.49999   0.16666   0.02324   0.00000  Uiso   1.00
C98    C     0.50073   0.12369   0.45350   0.00000  Uiso   1.00
C99    C     0.49927   0.20965   0.04650   0.00000  Uiso   1.00
C100   C     0.49862   0.25220   0.47698   0.00000  Uiso   1.00
C101   C     0.49859   0.25219   0.02320   0.00000  Uiso   1.00
C102   C     0.50138   0.08114   0.02302   0.00000  Uiso   1.00
C103   C     0.37821   0.05229   0.27457   0.00000  Uiso   1.00
C104   C     0.62179   0.28104   0.22543   0.00000  Uiso   1.00
C105   C     0.60783   0.06151   0.29870   0.00000  Uiso   1.00
C106   C     0.39217   0.27183   0.20130   0.00000  Uiso   1.00
C107   C     0.50141   0.08114   0.47680   0.00000  Uiso   1.00
C108   C     0.35376   0.13202   0.27463   0.00000  Uiso   1.00
C109   C     0.64624   0.20132   0.22537   0.00000  Uiso   1.00
C110   C     0.64423   0.13494   0.27747   0.00000  Uiso   1.00
C111   C     0.35577   0.19840   0.22253   0.00000  Uiso   1.00
C112   C     0.62397   0.16839   0.25160   0.00000  Uiso   1.00
Cu113  Cu    0.50000   0.21355   0.25000   0.00000  Uiso   1.00
Cu114  Cu    0.50000   0.11978   0.25000   0.00000  Uiso   1.00
H115   H     0.50131   0.09095   0.38946   0.00000  Uiso   1.00
H116   H     0.46690   0.28914   0.31057   0.00000  Uiso   1.00
H117   H     0.46748   0.04277   0.31089   0.00000  Uiso   1.00
H118   H     0.53252   0.29057   0.18911   0.00000  Uiso   1.00
H119   H     0.36483   0.09165   0.33058   0.00000  Uiso   1.00
H120   H     0.34770   0.03723   0.26617   0.00000  Uiso   1.00
H121   H     0.39429   0.02659   0.29550   0.00000  Uiso   1.00
H122   H     0.39564   0.05715   0.24318   0.00000  Uiso   1.00
H123   H     0.63517   0.24169   0.16942   0.00000  Uiso   1.00
H124   H     0.65230   0.29610   0.23383   0.00000  Uiso   1.00
H125   H     0.60436   0.27618   0.25682   0.00000  Uiso   1.00
H126   H     0.49869   0.24238   0.11054   0.00000  Uiso   1.00
H127   H     0.60571   0.30674   0.20449   0.00000  Uiso   1.00
H128   H     0.63198   0.11228   0.34230   0.00000  Uiso   1.00
H129   H     0.62627   0.03525   0.31654   0.00000  Uiso   1.00
H130   H     0.60984   0.05505   0.26239   0.00000  Uiso   1.00
H131   H     0.57532   0.05665   0.30921   0.00000  Uiso   1.00
H132   H     0.36802   0.22105   0.15770   0.00000  Uiso   1.00
H133   H     0.37373   0.29808   0.18346   0.00000  Uiso   1.00
H134   H     0.42468   0.27669   0.19079   0.00000  Uiso   1.00
H135   H     0.39016   0.27828   0.23761   0.00000  Uiso   1.00
H136   H     0.49878   0.24241   0.38962   0.00000  Uiso   1.00
H137   H     0.50122   0.09092   0.11038   0.00000  Uiso   1.00
H138   H     0.49808   0.28542   0.45953   0.00000  Uiso   1.00
H139   H     0.50192   0.04791   0.04047   0.00000  Uiso   1.00
H140   H     0.49804   0.28540   0.04072   0.00000  Uiso   1.00
H141   H     0.50196   0.04793   0.45928   0.00000  Uiso   1.00
H142   H     0.53310   0.04420   0.18943   0.00000  Uiso   1.00
N143   N     0.50000   0.28402   0.25000   0.00000  Uiso   1.00
N144   N     0.50000   0.04931   0.25000   0.00000  Uiso   1.00
N145   N     0.37460   0.09636   0.29832   0.00000  Uiso   1.00
N146   N     0.62540   0.23697   0.20168   0.00000  Uiso   1.00
N147   N     0.62173   0.10860   0.31019   0.00000  Uiso   1.00
N148   N     0.37827   0.22473   0.18981   0.00000  Uiso   1.00
O149   O     0.43988   0.20625   0.24999   0.00000  Uiso   1.00
O150   O     0.56012   0.12709   0.25000   0.00000  Uiso   1.00
O151   O     0.56012   0.20625   0.25000   0.00000  Uiso   1.00
O152   O     0.43988   0.12709   0.24999   0.00000  Uiso   1.00
O153   O     0.49999   0.20627   0.18513   0.00000  Uiso   1.00
O154   O     0.50001   0.12707   0.31487   0.00000  Uiso   1.00
O155   O     0.50001   0.20627   0.31487   0.00000  Uiso   1.00
O156   O     0.49999   0.12707   0.18513   0.00000  Uiso   1.00
C157   C     0.75405   0.16610   0.24933   0.00000  Uiso   1.00
C158   C     0.70936   0.16495   0.24839   0.00000  Uiso   1.00
C159   C     0.85158   0.02522   0.21630   0.00000  Uiso   1.00
C160   C     0.81508   0.30812   0.28370   0.00000  Uiso   1.00
C161   C     0.81527   0.02441   0.28379   0.00000  Uiso   1.00
C162   C     0.85140   0.30892   0.21621   0.00000  Uiso   1.00
C163   C     0.83332   0.16666   0.16425   0.00000  Uiso   1.00
C164   C     0.83335   0.16668   0.33575   0.00000  Uiso   1.00
C165   C     0.83407   0.12399   0.40732   0.00000  Uiso   1.00
C166   C     0.83259   0.20934   0.09268   0.00000  Uiso   1.00
C167   C     0.83337   0.16669   0.38418   0.00000  Uiso   1.00
C168   C     0.91262   0.16724   0.25067   0.00000  Uiso   1.00
C169   C     0.83330   0.16665   0.11582   0.00000  Uiso   1.00
C170   C     0.83268   0.20937   0.40741   0.00000  Uiso   1.00
C171   C     0.83399   0.12396   0.09259   0.00000  Uiso   1.00
C172   C     0.83266   0.20966   0.45360   0.00000  Uiso   1.00
C173   C     0.83401   0.12367   0.04640   0.00000  Uiso   1.00
C174   C     0.83335   0.16667   0.47676   0.00000  Uiso   1.00
C175   C     0.83332   0.16666   0.02324   0.00000  Uiso   1.00
C176   C     0.83406   0.12369   0.45350   0.00000  Uiso   1.00
C177   C     0.83261   0.20965   0.04650   0.00000  Uiso   1.00
C178   C     0.83195   0.25220   0.47698   0.00000  Uiso   1.00
C179   C     0.83192   0.25219   0.02320   0.00000  Uiso   1.00
C180   C     0.83472   0.08114   0.02302   0.00000  Uiso   1.00
C181   C     0.71154   0.05229   0.27457   0.00000  Uiso   1.00
C182   C     0.95513   0.28104   0.22543   0.00000  Uiso   1.00
C183   C     0.94116   0.06151   0.29870   0.00000  Uiso   1.00
C184   C     0.72551   0.27183   0.20130   0.00000  Uiso   1.00
C185   C     0.83474   0.08114   0.47680   0.00000  Uiso   1.00
C186   C     0.68709   0.13202   0.27463   0.00000  Uiso   1.00
C187   C     0.97957   0.20132   0.22537   0.00000  Uiso   1.00
C188   C     0.97756   0.13494   0.27747   0.00000  Uiso   1.00
C189   C     0.68911   0.19840   0.22253   0.00000  Uiso   1.00
C190   C     0.95731   0.16839   0.25160   0.00000  Uiso   1.00
Cu191  Cu    0.83333   0.21355   0.25000   0.00000  Uiso   1.00
Cu192  Cu    0.83333   0.11978   0.25000   0.00000  Uiso   1.00
H193   H     0.83464   0.09095   0.38946   0.00000  Uiso   1.00
H194   H     0.80023   0.28914   0.31057   0.00000  Uiso   1.00
H195   H     0.80081   0.04277   0.31089   0.00000  Uiso   1.00
H196   H     0.86585   0.29057   0.18911   0.00000  Uiso   1.00
H197   H     0.69816   0.09165   0.33058   0.00000  Uiso   1.00
H198   H     0.68104   0.03723   0.26617   0.00000  Uiso   1.00
H199   H     0.72763   0.02659   0.29550   0.00000  Uiso   1.00
H200   H     0.72897   0.05715   0.24318   0.00000  Uiso   1.00
H201   H     0.96851   0.24169   0.16942   0.00000  Uiso   1.00
H202   H     0.98563   0.29610   0.23383   0.00000  Uiso   1.00
H203   H     0.93769   0.27618   0.25682   0.00000  Uiso   1.00
H204   H     0.83202   0.24238   0.11054   0.00000  Uiso   1.00
H205   H     0.93904   0.30674   0.20449   0.00000  Uiso   1.00
H206   H     0.96532   0.11228   0.34230   0.00000  Uiso   1.00
H207   H     0.95961   0.03525   0.31654   0.00000  Uiso   1.00
H208   H     0.94317   0.05505   0.26239   0.00000  Uiso   1.00
H209   H     0.90865   0.05665   0.30921   0.00000  Uiso   1.00
H210   H     0.70135   0.22105   0.15770   0.00000  Uiso   1.00
H211   H     0.70706   0.29808   0.18346   0.00000  Uiso   1.00
H212   H     0.75802   0.27669   0.19079   0.00000  Uiso   1.00
H213   H     0.72350   0.27828   0.23761   0.00000  Uiso   1.00
H214   H     0.83212   0.24241   0.38962   0.00000  Uiso   1.00
H215   H     0.83455   0.09092   0.11038   0.00000  Uiso   1.00
H216   H     0.83141   0.28542   0.45953   0.00000  Uiso   1.00
H217   H     0.83525   0.04791   0.04047   0.00000  Uiso   1.00
H218   H     0.83137   0.28540   0.04072   0.00000  Uiso   1.00
H219   H     0.83530   0.04793   0.45928   0.00000  Uiso   1.00
H220   H     0.86643   0.04420   0.18943   0.00000  Uiso   1.00
N221   N     0.83333   0.28402   0.25000   0.00000  Uiso   1.00
N222   N     0.83333   0.04931   0.25000   0.00000  Uiso   1.00
N223   N     0.70793   0.09636   0.29832   0.00000  Uiso   1.00
N224   N     0.95874   0.23697   0.20168   0.00000  Uiso   1.00
N225   N     0.95506   0.10860   0.31019   0.00000  Uiso   1.00
N226   N     0.71161   0.22473   0.18981   0.00000  Uiso   1.00
O227   O     0.77321   0.20625   0.24999   0.00000  Uiso   1.00
O228   O     0.89345   0.12709   0.25000   0.00000  Uiso   1.00
O229   O     0.89345   0.20625   0.25000   0.00000  Uiso   1.00
O230   O     0.77321   0.12709   0.24999   0.00000  Uiso   1.00
O231   O     0.83332   0.20627   0.18513   0.00000  Uiso   1.00
O232   O     0.83334   0.12707   0.31487   0.00000  Uiso   1.00
O233   O     0.83334   0.20627   0.31487   0.00000  Uiso   1.00
O234   O     0.83332   0.12707   0.18513   0.00000  Uiso   1.00
C235   C     0.08738   0.49943   0.24933   0.00000  Uiso   1.00
C236   C     0.04269   0.49828   0.24839   0.00000  Uiso   1.00
C237   C     0.18492   0.35855   0.21630   0.00000  Uiso   1.00
C238   C     0.14842   0.64145   0.28370   0.00000  Uiso   1.00
C239   C     0.14860   0.35774   0.28379   0.00000  Uiso   1.00
C240   C     0.18473   0.64226   0.21621   0.00000  Uiso   1.00
C241   C     0.16665   0.49999   0.16425   0.00000  Uiso   1.00
C242   C     0.16668   0.50001   0.33575   0.00000  Uiso   1.00
C243   C     0.16741   0.45733   0.40732   0.00000  Uiso   1.00
C244   C     0.16593   0.54267   0.09268   0.00000  Uiso   1.00
C245   C     0.16670   0.50002   0.38418   0.00000  Uiso   1.00
C246   C     0.24595   0.50057   0.25067   0.00000  Uiso   1.00
C247   C     0.16663   0.49998   0.11582   0.00000  Uiso   1.00
C248   C     0.16601   0.54270   0.40741   0.00000  Uiso   1.00
C249   C     0.16732   0.45730   0.09259   0.00000  Uiso   1.00
C250   C     0.16599   0.54300   0.45360   0.00000  Uiso   1.00
C251   C     0.16734   0.45700   0.04640   0.00000  Uiso   1.00
C252   C     0.16668   0.50000   0.47676   0.00000  Uiso   1.00
C253   C     0.16665   0.50000   0.02324   0.00000  Uiso   1.00
C254   C     0.16739   0.45702   0.45350   0.00000  Uiso   1.00
C255   C     0.16594   0.54298   0.04650   0.00000  Uiso   1.00
C256   C     0.16528   0.58553   0.47698   0.00000  Uiso   1.00
C257   C     0.16526   0.58552   0.02320   0.00000  Uiso   1.00
C258   C     0.16805   0.41447   0.02302   0.00000  Uiso   1.00
C259   C     0.04487   0.38563   0.27457   0.00000  Uiso   1.00
C260   C     0.28846   0.61437   0.22543   0.00000  Uiso   1.00
C261   C     0.27449   0.39484   0.29870   0.00000  Uiso   1.00
C262   C     0.05884   0.60516   0.20130   0.00000  Uiso   1.00
C263   C     0.16808   0.41448   0.47680   0.00000  Uiso   1.00
C264   C     0.02043   0.46535   0.27463   0.00000  Uiso   1.00
C265   C     0.31291   0.53465   0.22537   0.00000  Uiso   1.00
C266   C     0.31089   0.46827   0.27747   0.00000  Uiso   1.00
C267   C     0.02244   0.53173   0.22253   0.00000  Uiso   1.00
C268   C     0.29064   0.50172   0.25160   0.00000  Uiso   1.00
Cu269  Cu    0.16667   0.54689   0.25000   0.00000  Uiso   1.00
Cu270  Cu    0.16667   0.45311   0.25000   0.00000  Uiso   1.00
H271   H     0.16798   0.42429   0.38946   0.00000  Uiso   1.00
H272   H     0.13357   0.62247   0.31057   0.00000  Uiso   1.00
H273   H     0.13415   0.37610   0.31089   0.00000  Uiso   1.00
H274   H     0.19919   0.62390   0.18911   0.00000  Uiso   1.00
H275   H     0.03149   0.42498   0.33058   0.00000  Uiso   1.00
H276   H     0.01437   0.37057   0.26617   0.00000  Uiso   1.00
H277   H     0.06096   0.35992   0.29550   0.00000  Uiso   1.00
H278   H     0.06231   0.39049   0.24318   0.00000  Uiso   1.00
H279   H     0.30184   0.57502   0.16942   0.00000  Uiso   1.00
H280   H     0.31896   0.62943   0.23383   0.00000  Uiso   1.00
H281   H     0.27103   0.60951   0.25682   0.00000  Uiso   1.00
H282   H     0.16536   0.57571   0.11054   0.00000  Uiso   1.00
H283   H     0.27237   0.64008   0.20449   0.00000  Uiso   1.00
H284   H     0.29865   0.44562   0.34230   0.00000  Uiso   1.00
H285   H     0.29294   0.36859   0.31654   0.00000  Uiso   1.00
H286   H     0.27650   0.38839   0.26239   0.00000  Uiso   1.00
H287   H     0.24198   0.38998   0.30921   0.00000  Uiso   1.00
H288   H     0.03468   0.55438   0.15770   0.00000  Uiso   1.00
H289   H     0.04039   0.63141   0.18346   0.00000  Uiso   1.00
H290   H     0.09135   0.61002   0.19079   0.00000  Uiso   1.00
H291   H     0.05683   0.61161   0.23761   0.00000  Uiso   1.00
H292   H     0.16545   0.57575   0.38962   0.00000  Uiso   1.00
H293   H     0.16788   0.42425   0.11038   0.00000  Uiso   1.00
H294   H     0.16475   0.61875   0.45953   0.00000  Uiso   1.00
H295   H     0.16859   0.38125   0.04047   0.00000  Uiso   1.00
H296   H     0.16470   0.61874   0.04072   0.00000  Uiso   1.00
H297   H     0.16863   0.38126   0.45928   0.00000  Uiso   1.00
H298   H     0.19977   0.37753   0.18943   0.00000  Uiso   1.00
N299   N     0.16667   0.61736   0.25000   0.00000  Uiso   1.00
N300   N     0.16667   0.38264   0.25000   0.00000  Uiso   1.00
N301   N     0.04127   0.42969   0.29832   0.00000  Uiso   1.00
N302   N     0.29207   0.57031   0.20168   0.00000  Uiso   1.00
N303   N     0.28839   0.44194   0.31019   0.00000  Uiso   1.00
N304   N     0.04494   0.55806   0.18981   0.00000  Uiso   1.00
O305   O     0.10655   0.53958   0.24999   0.00000  Uiso   1.00
O306   O     0.22679   0.46042   0.25000   0.00000  Uiso   1.00
O307   O     0.22679   0.53958   0.25000   0.00000  Uiso   1.00
O308   O     0.10655   0.46042   0.24999   0.00000  Uiso   1.00
O309   O     0.16666   0.53960   0.18513   0.00000  Uiso   1.00
O310   O     0.16668   0.46040   0.31487   0.00000  Uiso   1.00
O311   O     0.16668   0.53960   0.31487   0.00000  Uiso   1.00
O312   O     0.16666   0.46040   0.18513   0.00000  Uiso   1.00
C313   C     0.42071   0.49943   0.24933   0.00000  Uiso   1.00
C314   C     0.37603   0.49828   0.24839   0.00000  Uiso   1.00
C315   C     0.51825   0.35855   0.21630   0.00000  Uiso   1.00
C316   C     0.48175   0.64145   0.28370   0.00000  Uiso   1.00
C317   C     0.48193   0.35774   0.28379   0.00000  Uiso   1.00
C318   C     0.51807   0.64226   0.21621   0.00000  Uiso   1.00
C319   C     0.49999   0.49999   0.16425   0.00000  Uiso   1.00
C320   C     0.50001   0.50001   0.33575   0.00000  Uiso   1.00
C321   C     0.50074   0.45733   0.40732   0.00000  Uiso   1.00
C322   C     0.49926   0.54267   0.09268   0.00000  Uiso   1.00
C323   C     0.50004   0.50002   0.38418   0.00000  Uiso   1.00
C324   C     0.57929   0.50057   0.25067   0.00000  Uiso   1.00
C325   C     0.49996   0.49998   0.11582   0.00000  Uiso   1.00
C326   C     0.49934   0.54270   0.40741   0.00000  Uiso   1.00
C327   C     0.50066   0.45730   0.09259   0.00000  Uiso   1.00
C328   C     0.49932   0.54300   0.45360   0.00000  Uiso   1.00
C329   C     0.50068   0.45700   0.04640   0.00000  Uiso   1.00
C330   C     0.50001   0.50000   0.47676   0.00000  Uiso   1.00
C331   C     0.49999   0.50000   0.02324   0.00000  Uiso   1.00
C332   C     0.50073   0.45702   0.45350   0.00000  Uiso   1.00
C333   C     0.49927   0.54298   0.04650   0.00000  Uiso   1.00
C334   C     0.49862   0.58553   0.47698   0.00000  Uiso   1.00
C335   C     0.49859   0.58552   0.02320   0.00000  Uiso   1.00
C336   C     0.50138   0.41447   0.02302   0.00000  Uiso   1.00
C337   C     0.37821   0.38563   0.27457   0.00000  Uiso   1.00
C338   C     0.62179   0.61437   0.22543   0.00000  Uiso   1.00
C339   C     0.60783   0.39484   0.29870   0.00000  Uiso   1.00
C340   C     0.39217   0.60516   0.20130   0.00000  Uiso   1.00
C341   C     0.50141   0.41448   0.47680   0.00000  Uiso   1.00
C342   C     0.35376   0.46535   0.27463   0.00000  Uiso   1.00
C343   C     0.64624   0.53465   0.22537   0.00000  Uiso   1.00
C344   C     0.64423   0.46827   0.27747   0.00000  Uiso   1.00
C345   C     0.35577   0.53173   0.22253   0.00000  Uiso   1.00
C346   C     0.62397   0.50172   0.25160   0.00000  Uiso   1.00
Cu347  Cu    0.50000   0.54689   0.25000   0.00000  Uiso   1.00
Cu348  Cu    0.50000   0.45311   0.25000   0.00000  Uiso   1.00
H349   H     0.50131   0.42429   0.38946   0.00000  Uiso   1.00
H350   H     0.46690   0.62247   0.31057   0.00000  Uiso   1.00
H351   H     0.46748   0.37610   0.31089   0.00000  Uiso   1.00
H352   H     0.53252   0.62390   0.18911   0.00000  Uiso   1.00
H353   H     0.36483   0.42498   0.33058   0.00000  Uiso   1.00
H354   H     0.34770   0.37057   0.26617   0.00000  Uiso   1.00
H355   H     0.39429   0.35992   0.29550   0.00000  Uiso   1.00
H356   H     0.39564   0.39049   0.24318   0.00000  Uiso   1.00
H357   H     0.63517   0.57502   0.16942   0.00000  Uiso   1.00
H358   H     0.65230   0.62943   0.23383   0.00000  Uiso   1.00
H359   H     0.60436   0.60951   0.25682   0.00000  Uiso   1.00
H360   H     0.49869   0.57571   0.11054   0.00000  Uiso   1.00
H361   H     0.60571   0.64008   0.20449   0.00000  Uiso   1.00
H362   H     0.63198   0.44562   0.34230   0.00000  Uiso   1.00
H363   H     0.62627   0.36859   0.31654   0.00000  Uiso   1.00
H364   H     0.60984   0.38839   0.26239   0.00000  Uiso   1.00
H365   H     0.57532   0.38998   0.30921   0.00000  Uiso   1.00
H366   H     0.36802   0.55438   0.15770   0.00000  Uiso   1.00
H367   H     0.37373   0.63141   0.18346   0.00000  Uiso   1.00
H368   H     0.42468   0.61002   0.19079   0.00000  Uiso   1.00
H369   H     0.39016   0.61161   0.23761   0.00000  Uiso   1.00
H370   H     0.49878   0.57575   0.38962   0.00000  Uiso   1.00
H371   H     0.50122   0.42425   0.11038   0.00000  Uiso   1.00
H372   H     0.49808   0.61875   0.45953   0.00000  Uiso   1.00
H373   H     0.50192   0.38125   0.04047   0.00000  Uiso   1.00
H374   H     0.49804   0.61874   0.04072   0.00000  Uiso   1.00
H375   H     0.50196   0.38126   0.45928   0.00000  Uiso   1.00
H376   H     0.53310   0.37753   0.18943   0.00000  Uiso   1.00
N377   N     0.50000   0.61736   0.25000   0.00000  Uiso   1.00
N378   N     0.50000   0.38264   0.25000   0.00000  Uiso   1.00
N379   N     0.37460   0.42969   0.29832   0.00000  Uiso   1.00
N380   N     0.62540   0.57031   0.20168   0.00000  Uiso   1.00
N381   N     0.62173   0.44194   0.31019   0.00000  Uiso   1.00
N382   N     0.37827   0.55806   0.18981   0.00000  Uiso   1.00
O383   O     0.43988   0.53958   0.24999   0.00000  Uiso   1.00
O384   O     0.56012   0.46042   0.25000   0.00000  Uiso   1.00
O385   O     0.56012   0.53958   0.25000   0.00000  Uiso   1.00
O386   O     0.43988   0.46042   0.24999   0.00000  Uiso   1.00
O387   O     0.49999   0.53960   0.18513   0.00000  Uiso   1.00
O388   O     0.50001   0.46040   0.31487   0.00000  Uiso   1.00
O389   O     0.50001   0.53960   0.31487   0.00000  Uiso   1.00
O390   O     0.49999   0.46040   0.18513   0.00000  Uiso   1.00
C391   C     0.75405   0.49943   0.24933   0.00000  Uiso   1.00
C392   C     0.70936   0.49828   0.24839   0.00000  Uiso   1.00
C393   C     0.85158   0.35855   0.21630   0.00000  Uiso   1.00
C394   C     0.81508   0.64145   0.28370   0.00000  Uiso   1.00
C395   C     0.81527   0.35774   0.28379   0.00000  Uiso   1.00
C396   C     0.85140   0.64226   0.21621   0.00000  Uiso   1.00
C397   C     0.83332   0.49999   0.16425   0.00000  Uiso   1.00
C398   C     0.83335   0.50001   0.33575   0.00000  Uiso   1.00
C399   C     0.83407   0.45733   0.40732   0.00000  Uiso   1.00
C400   C     0.83259   0.54267   0.09268   0.00000  Uiso   1.00
C401   C     0.83337   0.50002   0.38418   0.00000  Uiso   1.00
C402   C     0.91262   0.50057   0.25067   0.00000  Uiso   1.00
C403   C     0.83330   0.49998   0.11582   0.00000  Uiso   1.00
C404   C     0.83268   0.54270   0.40741   0.00000  Uiso   1.00
C405   C     0.83399   0.45730   0.09259   0.00000  Uiso   1.00
C406   C     0.83266   0.54300   0.45360   0.00000  Uiso   1.00
C407   C     0.83401   0.45700   0.04640   0.00000  Uiso   1.00
C408   C     0.83335   0.50000   0.47676   0.00000  Uiso   1.00
C409   C     0.83332   0.50000   0.02324   0.00000  Uiso   1.00
C410   C     0.83406   0.45702   0.45350   0.00000  Uiso   1.00
C411   C     0.83261   0.54298   0.04650   0.00000  Uiso   1.00
C412   C     0.83195   0.58553   0.47698   0.00000  Uiso   1.00
C413   C     0.83192   0.58552   0.02320   0.00000  Uiso   1.00
C414   C     0.83472   0.41447   0.02302   0.00000  Uiso   1.00
C415   C     0.71154   0.38563   0.27457   0.00000  Uiso   1.00
C416   C     0.95513   0.61437   0.22543   0.00000  Uiso   1.00
C417   C     0.94116   0.39484   0.29870   0.00000  Uiso   1.00
C418   C     0.72551   0.60516   0.20130   0.00000  Uiso   1.00
C419   C     0.83474   0.41448   0.47680   0.00000  Uiso   1.00
C420   C     0.68709   0.46535   0.27463   0.00000  Uiso   1.00
C421   C     0.97957   0.53465   0.22537   0.00000  Uiso   1.00
C422   C     0.97756   0.46827   0.27747   0.00000  Uiso   1.00
C423   C     0.68911   0.53173   0.22253   0.00000  Uiso   1.00
C424   C     0.95731   0.50172   0.25160   0.00000  Uiso   1.00
Cu425  Cu    0.83333   0.54689   0.25000   0.00000  Uiso   1.00
Cu426  Cu    0.83333   0.45311   0.25000   0.00000  Uiso   1.00
H427   H     0.83464   0.42429   0.38946   0.00000  Uiso   1.00
H428   H     0.80023   0.62247   0.31057   0.00000  Uiso   1.00
H429   H     0.80081   0.37610   0.31089   0.00000  Uiso   1.00
H430   H     0.86585   0.62390   0.18911   0.00000  Uiso   1.00
H431   H     0.69816   0.42498   0.33058   0.00000  Uiso   1.00
H432   H     0.68104   0.37057   0.26617   0.00000  Uiso   1.00
H433   H     0.72763   0.35992   0.29550   0.00000  Uiso   1.00
H434   H     0.72897   0.39049   0.24318   0.00000  Uiso   1.00
H435   H     0.96851   0.57502   0.16942   0.00000  Uiso   1.00
H436   H     0.98563   0.62943   0.23383   0.00000  Uiso   1.00
H437   H     0.93769   0.60951   0.25682   0.00000  Uiso   1.00
H438   H     0.83202   0.57571   0.11054   0.00000  Uiso   1.00
H439   H     0.93904   0.64008   0.20449   0.00000  Uiso   1.00
H440   H     0.96532   0.44562   0.34230   0.00000  Uiso   1.00
H441   H     0.95961   0.36859   0.31654   0.00000  Uiso   1.00
H442   H     0.94317   0.38839   0.26239   0.00000  Uiso   1.00
H443   H     0.90865   0.38998   0.30921   0.00000  Uiso   1.00
H444   H     0.70135   0.55438   0.15770   0.00000  Uiso   1.00
H445   H     0.70706   0.63141   0.18346   0.00000  Uiso   1.00
H446   H     0.75802   0.61002   0.19079   0.00000  Uiso   1.00
H447   H     0.72350   0.61161   0.23761   0.00000  Uiso   1.00
H448   H     0.83212   0.57575   0.38962   0.00000  Uiso   1.00
H449   H     0.83455   0.42425   0.11038   0.00000  Uiso   1.00
H450   H     0.83141   0.61875   0.45953   0.00000  Uiso   1.00
H451   H     0.83525   0.38125   0.04047   0.00000  Uiso   1.00
H452   H     0.83137   0.61874   0.04072   0.00000  Uiso   1.00
H453   H     0.83530   0.38126   0.45928   0.00000  Uiso   1.00
H454   H     0.86643   0.37753   0.18943   0.00000  Uiso   1.00
N455   N     0.83333   0.61736   0.25000   0.00000  Uiso   1.00
N456   N     0.83333   0.38264   0.25000   0.00000  Uiso   1.00
N457   N     0.70793   0.42969   0.29832   0.00000  Uiso   1.00
N458   N     0.95874   0.57031   0.20168   0.00000  Uiso   1.00
N459   N     0.95506   0.44194   0.31019   0.00000  Uiso   1.00
N460   N     0.71161   0.55806   0.18981   0.00000  Uiso   1.00
O461   O     0.77321   0.53958   0.24999   0.00000  Uiso   1.00
O462   O     0.89345   0.46042   0.25000   0.00000  Uiso   1.00
O463   O     0.89345   0.53958   0.25000   0.00000  Uiso   1.00
O464   O     0.77321   0.46042   0.24999   0.00000  Uiso   1.00
O465   O     0.83332   0.53960   0.18513   0.00000  Uiso   1.00
O466   O     0.83334   0.46040   0.31487   0.00000  Uiso   1.00
O467   O     0.83334   0.53960   0.31487   0.00000  Uiso   1.00
O468   O     0.83332   0.46040   0.18513   0.00000  Uiso   1.00
C469   C     0.08738   0.83276   0.24933   0.00000  Uiso   1.00
C470   C     0.04269   0.83161   0.24839   0.00000  Uiso   1.00
C471   C     0.18492   0.69188   0.21630   0.00000  Uiso   1.00
C472   C     0.14842   0.97478   0.28370   0.00000  Uiso   1.00
C473   C     0.14860   0.69108   0.28379   0.00000  Uiso   1.00
C474   C     0.18473   0.97559   0.21621   0.00000  Uiso   1.00
C475   C     0.16665   0.83332   0.16425   0.00000  Uiso   1.00
C476   C     0.16668   0.83335   0.33575   0.00000  Uiso   1.00
C477   C     0.16741   0.79066   0.40732   0.00000  Uiso   1.00
C478   C     0.16593   0.87601   0.09268   0.00000  Uiso   1.00
C479   C     0.16670   0.83335   0.38418   0.00000  Uiso   1.00
C480   C     0.24595   0.83390   0.25067   0.00000  Uiso   1.00
C481   C     0.16663   0.83331   0.11582   0.00000  Uiso   1.00
C482   C     0.16601   0.87604   0.40741   0.00000  Uiso   1.00
C483   C     0.16732   0.79063   0.09259   0.00000  Uiso   1.00
C484   C     0.16599   0.87633   0.45360   0.00000  Uiso   1.00
C485   C     0.16734   0.79034   0.04640   0.00000  Uiso   1.00
C486   C     0.16668   0.83334   0.47676   0.00000  Uiso   1.00
C487   C     0.16665   0.83333   0.02324   0.00000  Uiso   1.00
C488   C     0.16739   0.79035   0.45350   0.00000  Uiso   1.00
C489   C     0.16594   0.87632   0.04650   0.00000  Uiso   1.00
C490   C     0.16528   0.91886   0.47698   0.00000  Uiso   1.00
C491   C     0.16526   0.91886   0.02320   0.00000  Uiso   1.00
C492   C     0.16805   0.74780   0.02302   0.00000  Uiso   1.00
C493   C     0.04487   0.71896   0.27457   0.00000  Uiso   1.00
C494   C     0.28846   0.94771   0.22543   0.00000  Uiso   1.00
C495   C     0.27449   0.72817   0.29870   0.00000  Uiso   1.00
C496   C     0.05884   0.93849   0.20130   0.00000  Uiso   1.00
C497   C     0.16808   0.74781   0.47680   0.00000  Uiso   1.00
C498   C     0.02043   0.79868   0.27463   0.00000  Uiso   1.00
C499   C     0.31291   0.86798   0.22537   0.00000  Uiso   1.00
C500   C     0.31089   0.80160   0.27747   0.00000  Uiso   1.00
C501   C     0.02244   0.86506   0.22253   0.00000  Uiso   1.00
C502   C     0.29064   0.83505   0.25160   0.00000  Uiso   1.00
Cu503  Cu    0.16667   0.88022   0.25000   0.00000  Uiso   1.00
Cu504  Cu    0.16667   0.78645   0.25000   0.00000  Uiso   1.00
H505   H     0.16798   0.75762   0.38946   0.00000  Uiso   1.00
H506   H     0.13357   0.95580   0.31057   0.00000  Uiso   1.00
H507   H     0.13415   0.70943   0.31089   0.00000  Uiso   1.00
H508   H     0.19919   0.95723   0.18911   0.00000  Uiso   1.00
H509   H     0.03149   0.75831   0.33058   0.00000  Uiso   1.00
H510   H     0.01437   0.70390   0.26617   0.00000  Uiso   1.00
H511   H     0.06096   0.69326   0.29550   0.00000  Uiso   1.00
H512   H     0.06231   0.72382   0.24318   0.00000  Uiso   1.00
H513   H     0.30184   0.90835   0.16942   0.00000  Uiso   1.00
H514   H     0.31896   0.96277   0.23383   0.00000  Uiso   1.00
H515   H     0.27103   0.94285   0.25682   0.00000  Uiso   1.00
H516   H     0.16536   0.90905   0.11054   0.00000  Uiso   1.00
H517   H     0.27237   0.97341   0.20449   0.00000  Uiso   1.00
H518   H     0.29865   0.77895   0.34230   0.00000  Uiso   1.00
H519   H     0.29294   0.70192   0.31654   0.00000  Uiso   1.00
H520   H     0.27650   0.72172   0.26239   0.00000  Uiso   1.00
H521   H     0.24198   0.72331   0.30921   0.00000  Uiso   1.00
H522   H     0.03468   0.88772   0.15770   0.00000  Uiso   1.00
H523   H     0.04039   0.96475   0.18346   0.00000  Uiso   1.00
H524   H     0.09135   0.94335   0.19079   0.00000  Uiso   1.00
H525   H     0.05683   0.94495   0.23761   0.00000  Uiso   1.00
H526   H     0.16545   0.90908   0.38962   0.00000  Uiso   1.00
H527   H     0.16788   0.75759   0.11038   0.00000  Uiso   1.00
H528   H     0.16475   0.95209   0.45953   0.00000  Uiso   1.00
H529   H     0.16859   0.71458   0.04047   0.00000  Uiso   1.00
H530   H     0.16470   0.95207   0.04072   0.00000  Uiso   1.00
H531   H     0.16863   0.71460   0.45928   0.00000  Uiso   1.00
H532   H     0.19977   0.71086   0.18943   0.00000  Uiso   1.00
N533   N     0.16667   0.95069   0.25000   0.00000  Uiso   1.00
N534   N     0.16667   0.71598   0.25000   0.00000  Uiso   1.00
N535   N     0.04127   0.76303   0.29832   0.00000  Uiso   1.00
N536   N     0.29207   0.90364   0.20168   0.00000  Uiso   1.00
N537   N     0.28839   0.77527   0.31019   0.00000  Uiso   1.00
N538   N     0.04494   0.89140   0.18981   0.00000  Uiso   1.00
O539   O     0.10655   0.87291   0.24999   0.00000  Uiso   1.00
O540   O     0.22679   0.79375   0.25000   0.00000  Uiso   1.00
O541   O     0.22679   0.87291   0.25000   0.00000  Uiso   1.00
O542   O     0.10655   0.79375   0.24999   0.00000  Uiso   1.00
O543   O     0.16666   0.87293   0.18513   0.00000  Uiso   1.00
O544   O     0.16668   0.79373   0.31487   0.00000  Uiso   1.00
O545   O     0.16668   0.87293   0.31487   0.00000  Uiso   1.00
O546   O     0.16666   0.79373   0.18513   0.00000  Uiso   1.00
C547   C     0.42071   0.83276   0.24933   0.00000  Uiso   1.00
C548   C     0.37603   0.83161   0.24839   0.00000  Uiso   1.00
C549   C     0.51825   0.69188   0.21630   0.00000  Uiso   1.00
C550   C     0.48175   0.97478   0.28370   0.00000  Uiso   1.00
C551   C     0.48193   0.69108   0.28379   0.00000  Uiso   1.00
C552   C     0.51807   0.97559   0.21621   0.00000  Uiso   1.00
C553   C     0.49999   0.83332   0.16425   0.00000  Uiso   1.00
C554   C     0.50001   0.83335   0.33575   0.00000  Uiso   1.00
C555   C     0.50074   0.79066   0.40732   0.00000  Uiso   1.00
C556   C     0.49926   0.87601   0.09268   0.00000  Uiso   1.00
C557   C     0.50004   0.83335   0.38418   0.00000  Uiso   1.00
C558   C     0.57929   0.83390   0.25067   0.00000  Uiso   1.00
C559   C     0.49996   0.83331   0.11582   0.00000  Uiso   1.00
C560   C     0.49934   0.87604   0.40741   0.00000  Uiso   1.00
C561   C     0.50066   0.79063   0.09259   0.00000  Uiso   1.00
C562   C     0.49932   0.87633   0.45360   0.00000  Uiso   1.00
C563   C     0.50068   0.79034   0.04640   0.00000  Uiso   1.00
C564   C     0.50001   0.83334   0.47676   0.00000  Uiso   1.00
C565   C     0.49999   0.83333   0.02324   0.00000  Uiso   1.00
C566   C     0.50073   0.79035   0.45350   0.00000  Uiso   1.00
C567   C     0.49927   0.87632   0.04650   0.00000  Uiso   1.00
C568   C     0.49862   0.91886   0.47698   0.00000  Uiso   1.00
C569   C     0.49859   0.91886   0.02320   0.00000  Uiso   1.00
C570   C     0.50138   0.74780   0.02302   0.00000  Uiso   1.00
C571   C     0.37821   0.71896   0.27457   0.00000  Uiso   1.00
C572   C     0.62179   0.94771   0.22543   0.00000  Uiso   1.00
C573   C     0.60783   0.72817   0.29870   0.00000  Uiso   1.00
C574   C     0.39217   0.93849   0.20130   0.00000  Uiso   1.00
C575   C     0.50141   0.74781   0.47680   0.00000  Uiso   1.00
C576   C     0.35376   0.79868   0.27463   0.00000  Uiso   1.00
C577   C     0.64624   0.86798   0.22537   0.00000  Uiso   1.00
C578   C     0.64423   0.80160   0.27747   0.00000  Uiso   1.00
C579   C     0.35577   0.86506   0.22253   0.00000  Uiso   1.00
C580   C     0.62397   0.83505   0.25160   0.00000  Uiso   1.00
Cu581  Cu    0.50000   0.88022   0.25000   0.00000  Uiso   1.00
Cu582  Cu    0.50000   0.78645   0.25000   0.00000  Uiso   1.00
H583   H     0.50131   0.75762   0.38946   0.00000  Uiso   1.00
H584   H     0.46690   0.95580   0.31057   0.00000  Uiso   1.00
H585   H     0.46748   0.70943   0.31089   0.00000  Uiso   1.00
H586   H     0.53252   0.95723   0.18911   0.00000  Uiso   1.00
H587   H     0.36483   0.75831   0.33058   0.00000  Uiso   1.00
H588   H     0.34770   0.70390   0.26617   0.00000  Uiso   1.00
H589   H     0.39429   0.69326   0.29550   0.00000  Uiso   1.00
H590   H     0.39564   0.72382   0.24318   0.00000  Uiso   1.00
H591   H     0.63517   0.90835   0.16942   0.00000  Uiso   1.00
H592   H     0.65230   0.96277   0.23383   0.00000  Uiso   1.00
H593   H     0.60436   0.94285   0.25682   0.00000  Uiso   1.00
H594   H     0.49869   0.90905   0.11054   0.00000  Uiso   1.00
H595   H     0.60571   0.97341   0.20449   0.00000  Uiso   1.00
H596   H     0.63198   0.77895   0.34230   0.00000  Uiso   1.00
H597   H     0.62627   0.70192   0.31654   0.00000  Uiso   1.00
H598   H     0.60984   0.72172   0.26239   0.00000  Uiso   1.00
H599   H     0.57532   0.72331   0.30921   0.00000  Uiso   1.00
H600   H     0.36802   0.88772   0.15770   0.00000  Uiso   1.00
H601   H     0.37373   0.96475   0.18346   0.00000  Uiso   1.00
H602   H     0.42468   0.94335   0.19079   0.00000  Uiso   1.00
H603   H     0.39016   0.94495   0.23761   0.00000  Uiso   1.00
H604   H     0.49878   0.90908   0.38962   0.00000  Uiso   1.00
H605   H     0.50122   0.75759   0.11038   0.00000  Uiso   1.00
H606   H     0.49808   0.95209   0.45953   0.00000  Uiso   1.00
H607   H     0.50192   0.71458   0.04047   0.00000  Uiso   1.00
H608   H     0.49804   0.95207   0.04072   0.00000  Uiso   1.00
H609   H     0.50196   0.71460   0.45928   0.00000  Uiso   1.00
H610   H     0.53310   0.71086   0.18943   0.00000  Uiso   1.00
N611   N     0.50000   0.95069   0.25000   0.00000  Uiso   1.00
N612   N     0.50000   0.71598   0.25000   0.00000  Uiso   1.00
N613   N     0.37460   0.76303   0.29832   0.00000  Uiso   1.00
N614   N     0.62540   0.90364   0.20168   0.00000  Uiso   1.00
N615   N     0.62173   0.77527   0.31019   0.00000  Uiso   1.00
N616   N     0.37827   0.89140   0.18981   0.00000  Uiso   1.00
O617   O     0.43988   0.87291   0.24999   0.00000  Uiso   1.00
O618   O     0.56012   0.79375   0.25000   0.00000  Uiso   1.00
O619   O     0.56012   0.87291   0.25000   0.00000  Uiso   1.00
O620   O     0.43988   0.79375   0.24999   0.00000  Uiso   1.00
O621   O     0.49999   0.87293   0.18513   0.00000  Uiso   1.00
O622   O     0.50001   0.79373   0.31487   0.00000  Uiso   1.00
O623   O     0.50001   0.87293   0.31487   0.00000  Uiso   1.00
O624   O     0.49999   0.79373   0.18513   0.00000  Uiso   1.00
C625   C     0.75405   0.83276   0.24933   0.00000  Uiso   1.00
C626   C     0.70936   0.83161   0.24839   0.00000  Uiso   1.00
C627   C     0.85158   0.69188   0.21630   0.00000  Uiso   1.00
C628   C     0.81508   0.97478   0.28370   0.00000  Uiso   1.00
C629   C     0.81527   0.69108   0.28379   0.00000  Uiso   1.00
C630   C     0.85140   0.97559   0.21621   0.00000  Uiso   1.00
C631   C     0.83332   0.83332   0.16425   0.00000  Uiso   1.00
C632   C     0.83335   0.83335   0.33575   0.00000  Uiso   1.00
C633   C     0.83407   0.79066   0.40732   0.00000  Uiso   1.00
C634   C     0.83259   0.87601   0.09268   0.00000  Uiso   1.00
C635   C     0.83337   0.83335   0.38418   0.00000  Uiso   1.00
C636   C     0.91262   0.83390   0.25067   0.00000  Uiso   1.00
C637   C     0.83330   0.83331   0.11582   0.00000  Uiso   1.00
C638   C     0.83268   0.87604   0.40741   0.00000  Uiso   1.00
C639   C     0.83399   0.79063   0.09259   0.00000  Uiso   1.00
C640   C     0.83266   0.87633   0.45360   0.00000  Uiso   1.00
C641   C     0.83401   0.79034   0.04640   0.00000  Uiso   1.00
C642   C     0.83335   0.83334   0.47676   0.00000  Uiso   1.00
C643   C     0.83332   0.83333   0.02324   0.00000  Uiso   1.00
C644   C     0.83406   0.79035   0.45350   0.00000  Uiso   1.00
C645   C     0.83261   0.87632   0.04650   0.00000  Uiso   1.00
C646   C     0.83195   0.91886   0.47698   0.00000  Uiso   1.00
C647   C     0.83192   0.91886   0.02320   0.00000  Uiso   1.00
C648   C     0.83472   0.74780   0.02302   0.00000  Uiso   1.00
C649   C     0.71154   0.71896   0.27457   0.00000  Uiso   1.00
C650   C     0.95513   0.94771   0.22543   0.00000  Uiso   1.00
C651   C     0.94116   0.72817   0.29870   0.00000  Uiso   1.00
C652   C     0.72551   0.93849   0.20130   0.00000  Uiso   1.00
C653   C     0.83474   0.74781   0.47680   0.00000  Uiso   1.00
C654   C     0.68709   0.79868   0.27463   0.00000  Uiso   1.00
C655   C     0.97957   0.86798   0.22537   0.00000  Uiso   1.00
C656   C     0.97756   0.80160   0.27747   0.00000  Uiso   1.00
C657   C     0.68911   0.86506   0.22253   0.00000  Uiso   1.00
C658   C     0.95731   0.83505   0.25160   0.00000  Uiso   1.00
Cu659  Cu    0.83333   0.88022   0.25000   0.00000  Uiso   1.00
Cu660  Cu    0.83333   0.78645   0.25000   0.00000  Uiso   1.00
H661   H     0.83464   0.75762   0.38946   0.00000  Uiso   1.00
H662   H     0.80023   0.95580   0.31057   0.00000  Uiso   1.00
H663   H     0.80081   0.70943   0.31089   0.00000  Uiso   1.00
H664   H     0.86585   0.95723   0.18911   0.00000  Uiso   1.00
H665   H     0.69816   0.75831   0.33058   0.00000  Uiso   1.00
H666   H     0.68104   0.70390   0.26617   0.00000  Uiso   1.00
H667   H     0.72763   0.69326   0.29550   0.00000  Uiso   1.00
H668   H     0.72897   0.72382   0.24318   0.00000  Uiso   1.00
H669   H     0.96851   0.90835   0.16942   0.00000  Uiso   1.00
H670   H     0.98563   0.96277   0.23383   0.00000  Uiso   1.00
H671   H     0.93769   0.94285   0.25682   0.00000  Uiso   1.00
H672   H     0.83202   0.90905   0.11054   0.00000  Uiso   1.00
H673   H     0.93904   0.97341   0.20449   0.00000  Uiso   1.00
H674   H     0.96532   0.77895   0.34230   0.00000  Uiso   1.00
H675   H     0.95961   0.70192   0.31654   0.00000  Uiso   1.00
H676   H     0.94317   0.72172   0.26239   0.00000  Uiso   1.00
H677   H     0.90865   0.72331   0.30921   0.00000  Uiso   1.00
H678   H     0.70135   0.88772   0.15770   0.00000  Uiso   1.00
H679   H     0.70706   0.96475   0.18346   0.00000  Uiso   1.00
H680   H     0.75802   0.94335   0.19079   0.00000  Uiso   1.00
H681   H     0.72350   0.94495   0.23761   0.00000  Uiso   1.00
H682   H     0.83212   0.90908   0.38962   0.00000  Uiso   1.00
H683   H     0.83455   0.75759   0.11038   0.00000  Uiso   1.00
H684   H     0.83141   0.95209   0.45953   0.00000  Uiso   1.00
H685   H     0.83525   0.71458   0.04047   0.00000  Uiso   1.00
H686   H     0.83137   0.95207   0.04072   0.00000  Uiso   1.00
H687   H     0.83530   0.71460   0.45928   0.00000  Uiso   1.00
H688   H     0.86643   0.71086   0.18943   0.00000  Uiso   1.00
N689   N     0.83333   0.95069   0.25000   0.00000  Uiso   1.00
N690   N     0.83333   0.71598   0.25000   0.00000  Uiso   1.00
N691   N     0.70793   0.76303   0.29832   0.00000  Uiso   1.00
N692   N     0.95874   0.90364   0.20168   0.00000  Uiso   1.00
N693   N     0.95506   0.77527   0.31019   0.00000  Uiso   1.00
N694   N     0.71161   0.89140   0.18981   0.00000  Uiso   1.00
O695   O     0.77321   0.87291   0.24999   0.00000  Uiso   1.00
O696   O     0.89345   0.79375   0.25000   0.00000  Uiso   1.00
O697   O     0.89345   0.87291   0.25000   0.00000  Uiso   1.00
O698   O     0.77321   0.79375   0.24999   0.00000  Uiso   1.00
O699   O     0.83332   0.87293   0.18513   0.00000  Uiso   1.00
O700   O     0.83334   0.79373   0.31487   0.00000  Uiso   1.00
O701   O     0.83334   0.87293   0.31487   0.00000  Uiso   1.00
O702   O     0.83332   0.79373   0.18513   0.00000  Uiso   1.00
C703   C     0.08738   0.16610   0.74933   0.00000  Uiso   1.00
C704   C     0.04269   0.16495   0.74839   0.00000  Uiso   1.00
C705   C     0.18492   0.02522   0.71630   0.00000  Uiso   1.00
C706   C     0.14842   0.30812   0.78370   0.00000  Uiso   1.00
C707   C     0.14860   0.02441   0.78379   0.00000  Uiso   1.00
C708   C     0.18473   0.30892   0.71621   0.00000  Uiso   1.00
C709   C     0.16665   0.16666   0.66425   0.00000  Uiso   1.00
C710   C     0.16668   0.16668   0.83575   0.00000  Uiso   1.00
C711   C     0.16741   0.12399   0.90732   0.00000  Uiso   1.00
C712   C     0.16593   0.20934   0.59268   0.00000  Uiso   1.00
C713   C     0.16670   0.16669   0.88418   0.00000  Uiso   1.00
C714   C     0.24595   0.16724   0.75067   0.00000  Uiso   1.00
C715   C     0.16663   0.16665   0.61582   0.00000  Uiso   1.00
C716   C     0.16601   0.20937   0.90741   0.00000  Uiso   1.00
C717   C     0.16732   0.12396   0.59259   0.00000  Uiso   1.00
C718   C     0.16599   0.20966   0.95360   0.00000  Uiso   1.00
C719   C     0.16734   0.12367   0.54640   0.00000  Uiso   1.00
C720   C     0.16668   0.16667   0.97676   0.00000  Uiso   1.00
C721   C     0.16665   0.16666   0.52324   0.00000  Uiso   1.00
C722   C     0.16739   0.12369   0.95350   0.00000  Uiso   1.00
C723   C     0.16594   0.20965   0.54650   0.00000  Uiso   1.00
C724   C     0.16528   0.25220   0.97698   0.00000  Uiso   1.00
C725   C     0.16526   0.25219   0.52320   0.00000  Uiso   1.00
C726   C     0.16805   0.08114   0.52302   0.00000  Uiso   1.00
C727   C     0.04487   0.05229   0.77457   0.00000  Uiso   1.00
C728   C     0.28846   0.28104   0.72543   0.00000  Uiso   1.00
C729   C     0.27449   0.06151   0.79870   0.00000  Uiso   1.00
C730   C     0.05884   0.27183   0.70130   0.00000  Uiso   1.00
C731   C     0.16808   0.08114   0.97680   0.00000  Uiso   1.00
C732   C     0.02043   0.13202   0.77463   0.00000  Uiso   1.00
C733   C     0.31291   0.20132   0.72537   0.00000  Uiso   1.00
C734   C     0.31089   0.13494   0.77747   0.00000  Uiso   1.00
C735   C     0.02244   0.19840   0.72253   0.00000  Uiso   1.00
C736   C     0.29064   0.16839   0.75160   0.00000  Uiso   1.00
Cu737  Cu    0.16667   0.21355   0.75000   0.00000  Uiso   1.00
Cu738  Cu    0.16667   0.11978   0.75000   0.00000  Uiso   1.00
H739   H     0.16798   0.09095   0.88946   0.00000  Uiso   1.00
H740   H     0.13357   0.28914   0.81057   0.00000  Uiso   1.00
H741   H     0.13415   0.04277   0.81089   0.00000  Uiso   1.00
H742   H     0.19919   0.29057   0.68911   0.00000  Uiso   1.00
H743   H     0.03149   0.09165   0.83058   0.00000  Uiso   1.00
H744   H     0.01437   0.03723   0.76617   0.00000  Uiso   1.00
H745   H     0.06096   0.02659   0.79550   0.00000  Uiso   1.00
H746   H     0.06231   0.05715   0.74318   0.00000  Uiso   1.00
H747   H     0.30184   0.24169   0.66942   0.00000  Uiso   1.00
H748   H     0.31896   0.29610   0.73383   0.00000  Uiso   1.00
H749   H     0.27103   0.27618   0.75682   0.00000  Uiso   1.00
H750   H     0.16536   0.24238   0.61054   0.00000  Uiso   1.00
H751   H     0.27237   0.30674   0.70449   0.00000  Uiso   1.00
H752   H     0.29865   0.11228   0.84230   0.00000  Uiso   1.00
H753   H     0.29294   0.03525   0.81654   0.00000  Uiso   1.00
H754   H     0.27650   0.05505   0.76239   0.00000  Uiso   1.00
H755   H     0.24198   0.05665   0.80921   0.00000  Uiso   1.00
H756   H     0.03468   0.22105   0.65770   0.00000  Uiso   1.00
H757   H     0.04039   0.29808   0.68346   0.00000  Uiso   1.00
H758   H     0.09135   0.27669   0.69079   0.00000  Uiso   1.00
H759   H     0.05683   0.27828   0.73761   0.00000  Uiso   1.00
H760   H     0.16545   0.24241   0.88962   0.00000  Uiso   1.00
H761   H     0.16788   0.09092   0.61038   0.00000  Uiso   1.00
H762   H     0.16475   0.28542   0.95953   0.00000  Uiso   1.00
H763   H     0.16859   0.04791   0.54047   0.00000  Uiso   1.00
H764   H     0.16470   0.28540   0.54072   0.00000  Uiso   1.00
H765   H     0.16863   0.04793   0.95928   0.00000  Uiso   1.00
H766   H     0.19977   0.04420   0.68943   0.00000  Uiso   1.00
N767   N     0.16667   0.28402   0.75000   0.00000  Uiso   1.00
N768   N     0.16667   0.04931   0.75000   0.00000  Uiso   1.00
N769   N     0.04127   0.09636   0.79832   0.00000  Uiso   1.00
N770   N     0.29207   0.23697   0.70168   0.00000  Uiso   1.00
N771   N     0.28839   0.10860   0.81019   0.00000  Uiso   1.00
N772   N     0.04494   0.22473   0.68981   0.00000  Uiso   1.00
O773   O     0.10655   0.20625   0.74999   0.00000  Uiso   1.00
O774   O     0.22679   0.12709   0.75000   0.00000  Uiso   1.00
O775   O     0.22679   0.20625   0.75000   0.00000  Uiso   1.00
O776   O     0.10655   0.12709   0.74999   0.00000  Uiso   1.00
O777   O     0.16666   0.20627   0.68513   0.00000  Uiso   1.00
O778   O     0.16668   0.12707   0.81487   0.00000  Uiso   1.00
O779   O     0.16668   0.20627   0.81487   0.00000  Uiso   1.00
O780   O     0.16666   0.12707   0.68513   0.00000  Uiso   1.00
C781   C     0.42071   0.16610   0.74933   0.00000  Uiso   1.00
C782   C     0.37603   0.16495   0.74839   0.00000  Uiso   1.00
C783   C     0.51825   0.02522   0.71630   0.00000  Uiso   1.00
C784   C     0.48175   0.30812   0.78370   0.00000  Uiso   1.00
C785   C     0.48193   0.02441   0.78379   0.00000  Uiso   1.00
C786   C     0.51807   0.30892   0.71621   0.00000  Uiso   1.00
C787   C     0.49999   0.16666   0.66425   0.00000  Uiso   1.00
C788   C     0.50001   0.16668   0.83575   0.00000  Uiso   1.00
C789   C     0.50074   0.12399   0.90732   0.00000  Uiso   1.00
C790   C     0.49926   0.20934   0.59268   0.00000  Uiso   1.00
C791   C     0.50004   0.16669   0.88418   0.00000  Uiso   1.00
C792   C     0.57929   0.16724   0.75067   0.00000  Uiso   1.00
C793   C     0.49996   0.16665   0.61582   0.00000  Uiso   1.00
C794   C     0.49934   0.20937   0.90741   0.00000  Uiso   1.00
C795   C     0.50066   0.12396   0.59259   0.00000  Uiso   1.00
C796   C     0.49932   0.20966   0.95360   0.00000  Uiso   1.00
C797   C     0.50068   0.12367   0.54640   0.00000  Uiso   1.00
C798   C     0.50001   0.16667   0.97676   0.00000  Uiso   1.00
C799   C     0.49999   0.16666   0.52324   0.00000  Uiso   1.00
C800   C     0.50073   0.12369   0.95350   0.00000  Uiso   1.00
C801   C     0.49927   0.20965   0.54650   0.00000  Uiso   1.00
C802   C     0.49862   0.25220   0.97698   0.00000  Uiso   1.00
C803   C     0.49859   0.25219   0.52320   0.00000  Uiso   1.00
C804   C     0.50138   0.08114   0.52302   0.00000  Uiso   1.00
C805   C     0.37821   0.05229   0.77457   0.00000  Uiso   1.00
C806   C     0.62179   0.28104   0.72543   0.00000  Uiso   1.00
C807   C     0.60783   0.06151   0.79870   0.00000  Uiso   1.00
C808   C     0.39217   0.27183   0.70130   0.00000  Uiso   1.00
C809   C     0.50141   0.08114   0.97680   0.00000  Uiso   1.00
C810   C     0.35376   0.13202   0.77463   0.00000  Uiso   1.00
C811   C     0.64624   0.20132   0.72537   0.00000  Uiso   1.00
C812   C     0.64423   0.13494   0.77747   0.00000  Uiso   1.00
C813   C     0.35577   0.19840   0.72253   0.00000  Uiso   1.00
C814   C     0.62397   0.16839   0.75160   0.00000  Uiso   1.00
Cu815  Cu    0.50000   0.21355   0.75000   0.00000  Uiso   1.00
Cu816  Cu    0.50000   0.11978   0.75000   0.00000  Uiso   1.00
H817   H     0.50131   0.09095   0.88946   0.00000  Uiso   1.00
H818   H     0.46690   0.28914   0.81057   0.00000  Uiso   1.00
H819   H     0.46748   0.04277   0.81089   0.00000  Uiso   1.00
H820   H     0.53252   0.29057   0.68911   0.00000  Uiso   1.00
H821   H     0.36483   0.09165   0.83058   0.00000  Uiso   1.00
H822   H     0.34770   0.03723   0.76617   0.00000  Uiso   1.00
H823   H     0.39429   0.02659   0.79550   0.00000  Uiso   1.00
H824   H     0.39564   0.05715   0.74318   0.00000  Uiso   1.00
H825   H     0.63517   0.24169   0.66942   0.00000  Uiso   1.00
H826   H     0.65230   0.29610   0.73383   0.00000  Uiso   1.00
H827   H     0.60436   0.27618   0.75682   0.00000  Uiso   1.00
H828   H     0.49869   0.24238   0.61054   0.00000  Uiso   1.00
H829   H     0.60571   0.30674   0.70449   0.00000  Uiso   1.00
H830   H     0.63198   0.11228   0.84230   0.00000  Uiso   1.00
H831   H     0.62627   0.03525   0.81654   0.00000  Uiso   1.00
H832   H     0.60984   0.05505   0.76239   0.00000  Uiso   1.00
H833   H     0.57532   0.05665   0.80921   0.00000  Uiso   1.00
H834   H     0.36802   0.22105   0.65770   0.00000  Uiso   1.00
H835   H     0.37373   0.29808   0.68346   0.00000  Uiso   1.00
H836   H     0.42468   0.27669   0.69079   0.00000  Uiso   1.00
H837   H     0.39016   0.27828   0.73761   0.00000  Uiso   1.00
H838   H     0.49878   0.24241   0.88962   0.00000  Uiso   1.00
H839   H     0.50122   0.09092   0.61038   0.00000  Uiso   1.00
H840   H     0.49808   0.28542   0.95953   0.00000  Uiso   1.00
H841   H     0.50192   0.04791   0.54047   0.00000  Uiso   1.00
H842   H     0.49804   0.28540   0.54072   0.00000  Uiso   1.00
H843   H     0.50196   0.04793   0.95928   0.00000  Uiso   1.00
H844   H     0.53310   0.04420   0.68943   0.00000  Uiso   1.00
N845   N     0.50000   0.28402   0.75000   0.00000  Uiso   1.00
N846   N     0.50000   0.04931   0.75000   0.00000  Uiso   1.00
N847   N     0.37460   0.09636   0.79832   0.00000  Uiso   1.00
N848   N     0.62540   0.23697   0.70168   0.00000  Uiso   1.00
N849   N     0.62173   0.10860   0.81019   0.00000  Uiso   1.00
N850   N     0.37827   0.22473   0.68981   0.00000  Uiso   1.00
O851   O     0.43988   0.20625   0.74999   0.00000  Uiso   1.00
O852   O     0.56012   0.12709   0.75000   0.00000  Uiso   1.00
O853   O     0.56012   0.20625   0.75000   0.00000  Uiso   1.00
O854   O     0.43988   0.12709   0.74999   0.00000  Uiso   1.00
O855   O     0.49999   0.20627   0.68513   0.00000  Uiso   1.00
O856   O     0.50001   0.12707   0.81487   0.00000  Uiso   1.00
O857   O     0.50001   0.20627   0.81487   0.00000  Uiso   1.00
O858   O     0.49999   0.12707   0.68513   0.00000  Uiso   1.00
C859   C     0.75405   0.16610   0.74933   0.00000  Uiso   1.00
C860   C     0.70936   0.16495   0.74839   0.00000  Uiso   1.00
C861   C     0.85158   0.02522   0.71630   0.00000  Uiso   1.00
C862   C     0.81508   0.30812   0.78370   0.00000  Uiso   1.00
C863   C     0.81527   0.02441   0.78379   0.00000  Uiso   1.00
C864   C     0.85140   0.30892   0.71621   0.00000  Uiso   1.00
C865   C     0.83332   0.16666   0.66425   0.00000  Uiso   1.00
C866   C     0.83335   0.16668   0.83575   0.00000  Uiso   1.00
C867   C     0.83407   0.12399   0.90732   0.00000  Uiso   1.00
C868   C     0.83259   0.20934   0.59268   0.00000  Uiso   1.00
C869   C     0.83337   0.16669   0.88418   0.00000  Uiso   1.00
C870   C     0.91262   0.16724   0.75067   0.00000  Uiso   1.00
C871   C     0.83330   0.16665   0.61582   0.00000  Uiso   1.00
C872   C     0.83268   0.20937   0.90741   0.00000  Uiso   1.00
C873   C     0.83399   0.12396   0.59259   0.00000  Uiso   1.00
C874   C     0.83266   0.20966   0.95360   0.00000  Uiso   1.00
C875   C     0.83401   0.12367   0.54640   0.00000  Uiso   1.00
C876   C     0.83335   0.16667   0.97676   0.00000  Uiso   1.00
C877   C     0.83332   0.16666   0.52324   0.00000  Uiso   1.00
C878   C     0.83406   0.12369   0.95350   0.00000  Uiso   1.00
C879   C     0.83261   0.20965   0.54650   0.00000  Uiso   1.00
C880   C     0.83195   0.25220   0.97698   0.00000  Uiso   1.00
C881   C     0.83192   0.25219   0.52320   0.00000  Uiso   1.00
C882   C     0.83472   0.08114   0.52302   0.00000  Uiso   1.00
C883   C     0.71154   0.05229   0.77457   0.00000  Uiso   1.00
C884   C     0.95513   0.28104   0.72543   0.00000  Uiso   1.00
C885   C     0.94116   0.06151   0.79870   0.00000  Uiso   1.00
C886   C     0.72551   0.27183   0.70130   0.00000  Uiso   1.00
C887   C     0.83474   0.08114   0.97680   0.00000  Uiso   1.00
C888   C     0.68709   0.13202   0.77463   0.00000  Uiso   1.00
C889   C     0.97957   0.20132   0.72537   0.00000  Uiso   1.00
C890   C     0.97756   0.13494   0.77747   0.00000  Uiso   1.00
C891   C     0.68911   0.19840   0.72253   0.00000  Uiso   1.00
C892   C     0.95731   0.16839   0.75160   0.00000  Uiso   1.00
Cu893  Cu    0.83333   0.21355   0.75000   0.00000  Uiso   1.00
Cu894  Cu    0.83333   0.11978   0.75000   0.00000  Uiso   1.00
H895   H     0.83464   0.09095   0.88946   0.00000  Uiso   1.00
H896   H     0.80023   0.28914   0.81057   0.00000  Uiso   1.00
H897   H     0.80081   0.04277   0.81089   0.00000  Uiso   1.00
H898   H     0.86585   0.29057   0.68911   0.00000  Uiso   1.00
H899   H     0.69816   0.09165   0.83058   0.00000  Uiso   1.00
H900   H     0.68104   0.03723   0.76617   0.00000  Uiso   1.00
H901   H     0.72763   0.02659   0.79550   0.00000  Uiso   1.00
H902   H     0.72897   0.05715   0.74318   0.00000  Uiso   1.00
H903   H     0.96851   0.24169   0.66942   0.00000  Uiso   1.00
H904   H     0.98563   0.29610   0.73383   0.00000  Uiso   1.00
H905   H     0.93769   0.27618   0.75682   0.00000  Uiso   1.00
H906   H     0.83202   0.24238   0.61054   0.00000  Uiso   1.00
H907   H     0.93904   0.30674   0.70449   0.00000  Uiso   1.00
H908   H     0.96532   0.11228   0.84230   0.00000  Uiso   1.00
H909   H     0.95961   0.03525   0.81654   0.00000  Uiso   1.00
H910   H     0.94317   0.05505   0.76239   0.00000  Uiso   1.00
H911   H     0.90865   0.05665   0.80921   0.00000  Uiso   1.00
H912   H     0.70135   0.22105   0.65770   0.00000  Uiso   1.00
H913   H     0.70706   0.29808   0.68346   0.00000  Uiso   1.00
H914   H     0.75802   0.27669   0.69079   0.00000  Uiso   1.00
H915   H     0.72350   0.27828   0.73761   0.00000  Uiso   1.00
H916   H     0.83212   0.24241   0.88962   0.00000  Uiso   1.00
H917   H     0.83455   0.09092   0.61038   0.00000  Uiso   1.00
H918   H     0.83141   0.28542   0.95953   0.00000  Uiso   1.00
H919   H     0.83525   0.04791   0.54047   0.00000  Uiso   1.00
H920   H     0.83137   0.28540   0.54072   0.00000  Uiso   1.00
H921   H     0.83530   0.04793   0.95928   0.00000  Uiso   1.00
H922   H     0.86643   0.04420   0.68943   0.00000  Uiso   1.00
N923   N     0.83333   0.28402   0.75000   0.00000  Uiso   1.00
N924   N     0.83333   0.04931   0.75000   0.00000  Uiso   1.00
N925   N     0.70793   0.09636   0.79832   0.00000  Uiso   1.00
N926   N     0.95874   0.23697   0.70168   0.00000  Uiso   1.00
N927   N     0.95506   0.10860   0.81019   0.00000  Uiso   1.00
N928   N     0.71161   0.22473   0.68981   0.00000  Uiso   1.00
O929   O     0.77321   0.20625   0.74999   0.00000  Uiso   1.00
O930   O     0.89345   0.12709   0.75000   0.00000  Uiso   1.00
O931   O     0.89345   0.20625   0.75000   0.00000  Uiso   1.00
O932   O     0.77321   0.12709   0.74999   0.00000  Uiso   1.00
O933   O     0.83332   0.20627   0.68513   0.00000  Uiso   1.00
O934   O     0.83334   0.12707   0.81487   0.00000  Uiso   1.00
O935   O     0.83334   0.20627   0.81487   0.00000  Uiso   1.00
O936   O     0.83332   0.12707   0.68513   0.00000  Uiso   1.00
C937   C     0.08738   0.49943   0.74933   0.00000  Uiso   1.00
C938   C     0.04269   0.49828   0.74839   0.00000  Uiso   1.00
C939   C     0.18492   0.35855   0.71630   0.00000  Uiso   1.00
C940   C     0.14842   0.64145   0.78370   0.00000  Uiso   1.00
C941   C     0.14860   0.35774   0.78379   0.00000  Uiso   1.00
C942   C     0.18473   0.64226   0.71621   0.00000  Uiso   1.00
C943   C     0.16665   0.49999   0.66425   0.00000  Uiso   1.00
C944   C     0.16668   0.50001   0.83575   0.00000  Uiso   1.00
C945   C     0.16741   0.45733   0.90732   0.00000  Uiso   1.00
C946   C     0.16593   0.54267   0.59268   0.00000  Uiso   1.00
C947   C     0.16670   0.50002   0.88418   0.00000  Uiso   1.00
C948   C     0.24595   0.50057   0.75067   0.00000  Uiso   1.00
C949   C     0.16663   0.49998   0.61582   0.00000  Uiso   1.00
C950   C     0.16601   0.54270   0.90741   0.00000  Uiso   1.00
C951   C     0.16732   0.45730   0.59259   0.00000  Uiso   1.00
C952   C     0.16599   0.54300   0.95360   0.00000  Uiso   1.00
C953   C     0.16734   0.45700   0.54640   0.00000  Uiso   1.00
C954   C     0.16668   0.50000   0.97676   0.00000  Uiso   1.00
C955   C     0.16665   0.50000   0.52324   0.00000  Uiso   1.00
C956   C     0.16739   0.45702   0.95350   0.00000  Uiso   1.00
C957   C     0.16594   0.54298   0.54650   0.00000  Uiso   1.00
C958   C     0.16528   0.58553   0.97698   0.00000  Uiso   1.00
C959   C     0.16526   0.58552   0.52320   0.00000  Uiso   1.00
C960   C     0.16805   0.41447   0.52302   0.00000  Uiso   1.00
C961   C     0.04487   0.38563   0.77457   0.00000  Uiso   1.00
C962   C     0.28846   0.61437   0.72543   0.00000  Uiso   1.00
C963   C     0.27449   0.39484   0.79870   0.00000  Uiso   1.00
C964   C     0.05884   0.60516   0.70130   0.00000  Uiso   1.00
C965   C     0.16808   0.41448   0.97680   0.00000  Uiso   1.00
C966   C     0.02043   0.46535   0.77463   0.00000  Uiso   1.00
C967   C     0.31291   0.53465   0.72537   0.00000  Uiso   1.00
C968   C     0.31089   0.46827   0.77747   0.00000  Uiso   1.00
C969   C     0.02244   0.53173   0.72253   0.00000  Uiso   1.00
C970   C     0.29064   0.50172   0.75160   0.00000  Uiso   1.00
Cu971  Cu    0.16667   0.54689   0.75000   0.00000  Uiso   1.00
Cu972  Cu    0.16667   0.45311   0.75000   0.00000  Uiso   1.00
H973   H     0.16798   0.42429   0.88946   0.00000  Uiso   1.00
H974   H     0.13357   0.62247   0.81057   0.00000  Uiso   1.00
H975   H     0.13415   0.37610   0.81089   0.00000  Uiso   1.00
H976   H     0.19919   0.62390   0.68911   0.00000  Uiso   1.00
H977   H     0.03149   0.42498   0.83058   0.00000  Uiso   1.00
H978   H     0.01437   0.37057   0.76617   0.00000  Uiso   1.00
H979   H     0.06096   0.35992   0.79550   0.00000  Uiso   1.00
H980   H     0.06231   0.39049   0.74318   0.00000  Uiso   1.00
H981   H     0.30184   0.57502   0.66942   0.00000  Uiso   1.00
H982   H     0.31896   0.62943   0.73383   0.00000  Uiso   1.00
H983   H     0.27103   0.60951   0.75682   0.00000  Uiso   1.00
H984   H     0.16536   0.57571   0.61054   0.00000  Uiso   1.00
H985   H     0.27237   0.64008   0.70449   0.00000  Uiso   1.00
H986   H     0.29865   0.44562   0.84230   0.00000  Uiso   1.00
H987   H     0.29294   0.36859   0.81654   0.00000  Uiso   1.00
H988   H     0.27650   0.38839   0.76239   0.00000  Uiso   1.00
H989   H     0.24198   0.38998   0.80921   0.00000  Uiso   1.00
H990   H     0.03468   0.55438   0.65770   0.00000  Uiso   1.00
H991   H     0.04039   0.63141   0.68346   0.00000  Uiso   1.00
H992   H     0.09135   0.61002   0.69079   0.00000  Uiso   1.00
H993   H     0.05683   0.61161   0.73761   0.00000  Uiso   1.00
H994   H     0.16545   0.57575   0.88962   0.00000  Uiso   1.00
H995   H     0.16788   0.42425   0.61038   0.00000  Uiso   1.00
H996   H     0.16475   0.61875   0.95953   0.00000  Uiso   1.00
H997   H     0.16859   0.38125   0.54047   0.00000  Uiso   1.00
H998   H     0.16470   0.61874   0.54072   0.00000  Uiso   1.00
H999   H     0.16863   0.38126   0.95928   0.00000  Uiso   1.00
H1000  H     0.19977   0.37753   0.68943   0.00000  Uiso   1.00
N1001  N     0.16667   0.61736   0.75000   0.00000  Uiso   1.00
N1002  N     0.16667   0.38264   0.75000   0.00000  Uiso   1.00
N1003  N     0.04127   0.42969   0.79832   0.00000  Uiso   1.00
N1004  N     0.29207   0.57031   0.70168   0.00000  Uiso   1.00
N1005  N     0.28839   0.44194   0.81019   0.00000  Uiso   1.00
N1006  N     0.04494   0.55806   0.68981   0.00000  Uiso   1.00
O1007  O     0.10655   0.53958   0.74999   0.00000  Uiso   1.00
O1008  O     0.22679   0.46042   0.75000   0.00000  Uiso   1.00
O1009  O     0.22679   0.53958   0.75000   0.00000  Uiso   1.00
O1010  O     0.10655   0.46042   0.74999   0.00000  Uiso   1.00
O1011  O     0.16666   0.53960   0.68513   0.00000  Uiso   1.00
O1012  O     0.16668   0.46040   0.81487   0.00000  Uiso   1.00
O1013  O     0.16668   0.53960   0.81487   0.00000  Uiso   1.00
O1014  O     0.16666   0.46040   0.68513   0.00000  Uiso   1.00
C1015  C     0.42071   0.49943   0.74933   0.00000  Uiso   1.00
C1016  C     0.37603   0.49828   0.74839   0.00000  Uiso   1.00
C1017  C     0.51825   0.35855   0.71630   0.00000  Uiso   1.00
C1018  C     0.48175   0.64145   0.78370   0.00000  Uiso   1.00
C1019  C     0.48193   0.35774   0.78379   0.00000  Uiso   1.00
C1020  C     0.51807   0.64226   0.71621   0.00000  Uiso   1.00
C1021  C     0.49999   0.49999   0.66425   0.00000  Uiso   1.00
C1022  C     0.50001   0.50001   0.83575   0.00000  Uiso   1.00
C1023  C     0.50074   0.45733   0.90732   0.00000  Uiso   1.00
C1024  C     0.49926   0.54267   0.59268   0.00000  Uiso   1.00
C1025  C     0.50004   0.50002   0.88418   0.00000  Uiso   1.00
C1026  C     0.57929   0.50057   0.75067   0.00000  Uiso   1.00
C1027  C     0.49996   0.49998   0.61582   0.00000  Uiso   1.00
C1028  C     0.49934   0.54270   0.90741   0.00000  Uiso   1.00
C1029  C     0.50066   0.45730   0.59259   0.00000  Uiso   1.00
C1030  C     0.49932   0.54300   0.95360   0.00000  Uiso   1.00
C1031  C     0.50068   0.45700   0.54640   0.00000  Uiso   1.00
C1032  C     0.50001   0.50000   0.97676   0.00000  Uiso   1.00
C1033  C     0.49999   0.50000   0.52324   0.00000  Uiso   1.00
C1034  C     0.50073   0.45702   0.95350   0.00000  Uiso   1.00
C1035  C     0.49927   0.54298   0.54650   0.00000  Uiso   1.00
C1036  C     0.49862   0.58553   0.97698   0.00000  Uiso   1.00
C1037  C     0.49859   0.58552   0.52320   0.00000  Uiso   1.00
C1038  C     0.50138   0.41447   0.52302   0.00000  Uiso   1.00
C1039  C     0.37821   0.38563   0.77457   0.00000  Uiso   1.00
C1040  C     0.62179   0.61437   0.72543   0.00000  Uiso   1.00
C1041  C     0.60783   0.39484   0.79870   0.00000  Uiso   1.00
C1042  C     0.39217   0.60516   0.70130   0.00000  Uiso   1.00
C1043  C     0.50141   0.41448   0.97680   0.00000  Uiso   1.00
C1044  C     0.35376   0.46535   0.77463   0.00000  Uiso   1.00
C1045  C     0.64624   0.53465   0.72537   0.00000  Uiso   1.00
C1046  C     0.64423   0.46827   0.77747   0.00000  Uiso   1.00
C1047  C     0.35577   0.53173   0.72253   0.00000  Uiso   1.00
C1048  C     0.62397   0.50172   0.75160   0.00000  Uiso   1.00
Cu1049 Cu    0.50000   0.54689   0.75000   0.00000  Uiso   1.00
Cu1050 Cu    0.50000   0.45311   0.75000   0.00000  Uiso   1.00
H1051  H     0.50131   0.42429   0.88946   0.00000  Uiso   1.00
H1052  H     0.46690   0.62247   0.81057   0.00000  Uiso   1.00
H1053  H     0.46748   0.37610   0.81089   0.00000  Uiso   1.00
H1054  H     0.53252   0.62390   0.68911   0.00000  Uiso   1.00
H1055  H     0.36483   0.42498   0.83058   0.00000  Uiso   1.00
H1056  H     0.34770   0.37057   0.76617   0.00000  Uiso   1.00
H1057  H     0.39429   0.35992   0.79550   0.00000  Uiso   1.00
H1058  H     0.39564   0.39049   0.74318   0.00000  Uiso   1.00
H1059  H     0.63517   0.57502   0.66942   0.00000  Uiso   1.00
H1060  H     0.65230   0.62943   0.73383   0.00000  Uiso   1.00
H1061  H     0.60436   0.60951   0.75682   0.00000  Uiso   1.00
H1062  H     0.49869   0.57571   0.61054   0.00000  Uiso   1.00
H1063  H     0.60571   0.64008   0.70449   0.00000  Uiso   1.00
H1064  H     0.63198   0.44562   0.84230   0.00000  Uiso   1.00
H1065  H     0.62627   0.36859   0.81654   0.00000  Uiso   1.00
H1066  H     0.60984   0.38839   0.76239   0.00000  Uiso   1.00
H1067  H     0.57532   0.38998   0.80921   0.00000  Uiso   1.00
H1068  H     0.36802   0.55438   0.65770   0.00000  Uiso   1.00
H1069  H     0.37373   0.63141   0.68346   0.00000  Uiso   1.00
H1070  H     0.42468   0.61002   0.69079   0.00000  Uiso   1.00
H1071  H     0.39016   0.61161   0.73761   0.00000  Uiso   1.00
H1072  H     0.49878   0.57575   0.88962   0.00000  Uiso   1.00
H1073  H     0.50122   0.42425   0.61038   0.00000  Uiso   1.00
H1074  H     0.49808   0.61875   0.95953   0.00000  Uiso   1.00
H1075  H     0.50192   0.38125   0.54047   0.00000  Uiso   1.00
H1076  H     0.49804   0.61874   0.54072   0.00000  Uiso   1.00
H1077  H     0.50196   0.38126   0.95928   0.00000  Uiso   1.00
H1078  H     0.53310   0.37753   0.68943   0.00000  Uiso   1.00
N1079  N     0.50000   0.61736   0.75000   0.00000  Uiso   1.00
N1080  N     0.50000   0.38264   0.75000   0.00000  Uiso   1.00
N1081  N     0.37460   0.42969   0.79832   0.00000  Uiso   1.00
N1082  N     0.62540   0.57031   0.70168   0.00000  Uiso   1.00
N1083  N     0.62173   0.44194   0.81019   0.00000  Uiso   1.00
N1084  N     0.37827   0.55806   0.68981   0.00000  Uiso   1.00
O1085  O     0.43988   0.53958   0.74999   0.00000  Uiso   1.00
O1086  O     0.56012   0.46042   0.75000   0.00000  Uiso   1.00
O1087  O     0.56012   0.53958   0.75000   0.00000  Uiso   1.00
O1088  O     0.43988   0.46042   0.74999   0.00000  Uiso   1.00
O1089  O     0.49999   0.53960   0.68513   0.00000  Uiso   1.00
O1090  O     0.50001   0.46040   0.81487   0.00000  Uiso   1.00
O1091  O     0.50001   0.53960   0.81487   0.00000  Uiso   1.00
O1092  O     0.49999   0.46040   0.68513   0.00000  Uiso   1.00
C1093  C     0.75405   0.49943   0.74933   0.00000  Uiso   1.00
C1094  C     0.70936   0.49828   0.74839   0.00000  Uiso   1.00
C1095  C     0.85158   0.35855   0.71630   0.00000  Uiso   1.00
C1096  C     0.81508   0.64145   0.78370   0.00000  Uiso   1.00
C1097  C     0.81527   0.35774   0.78379   0.00000  Uiso   1.00
C1098  C     0.85140   0.64226   0.71621   0.00000  Uiso   1.00
C1099  C     0.83332   0.49999   0.66425   0.00000  Uiso   1.00
C1100  C     0.83335   0.50001   0.83575   0.00000  Uiso   1.00
C1101  C     0.83407   0.45733   0.90732   0.00000  Uiso   1.00
C1102  C     0.83259   0.54267   0.59268   0.00000  Uiso   1.00
C1103  C     0.83337   0.50002   0.88418   0.00000  Uiso   1.00
C1104  C     0.91262   0.50057   0.75067   0.00000  Uiso   1.00
C1105  C     0.83330   0.49998   0.61582   0.00000  Uiso   1.00
C1106  C     0.83268   0.54270   0.90741   0.00000  Uiso   1.00
C1107  C     0.83399   0.45730   0.59259   0.00000  Uiso   1.00
C1108  C     0.83266   0.54300   0.95360   0.00000  Uiso   1.00
C1109  C     0.83401   0.45700   0.54640   0.00000  Uiso   1.00
C1110  C     0.83335   0.50000   0.97676   0.00000  Uiso   1.00
C1111  C     0.83332   0.50000   0.52324   0.00000  Uiso   1.00
C1112  C     0.83406   0.45702   0.95350   0.00000  Uiso   1.00
C1113  C     0.83261   0.54298   0.54650   0.00000  Uiso   1.00
C1114  C     0.83195   0.58553   0.97698   0.00000  Uiso   1.00
C1115  C     0.83192   0.58552   0.52320   0.00000  Uiso   1.00
C1116  C     0.83472   0.41447   0.52302   0.00000  Uiso   1.00
C1117  C     0.71154   0.38563   0.77457   0.00000  Uiso   1.00
C1118  C     0.95513   0.61437   0.72543   0.00000  Uiso   1.00
C1119  C     0.94116   0.39484   0.79870   0.00000  Uiso   1.00
C1120  C     0.72551   0.60516   0.70130   0.00000  Uiso   1.00
C1121  C     0.83474   0.41448   0.97680   0.00000  Uiso   1.00
C1122  C     0.68709   0.46535   0.77463   0.00000  Uiso   1.00
C1123  C     0.97957   0.53465   0.72537   0.00000  Uiso   1.00
C1124  C     0.97756   0.46827   0.77747   0.00000  Uiso   1.00
C1125  C     0.68911   0.53173   0.72253   0.00000  Uiso   1.00
C1126  C     0.95731   0.50172   0.75160   0.00000  Uiso   1.00
Cu1127 Cu    0.83333   0.54689   0.75000   0.00000  Uiso   1.00
Cu1128 Cu    0.83333   0.45311   0.75000   0.00000  Uiso   1.00
H1129  H     0.83464   0.42429   0.88946   0.00000  Uiso   1.00
H1130  H     0.80023   0.62247   0.81057   0.00000  Uiso   1.00
H1131  H     0.80081   0.37610   0.81089   0.00000  Uiso   1.00
H1132  H     0.86585   0.62390   0.68911   0.00000  Uiso   1.00
H1133  H     0.69816   0.42498   0.83058   0.00000  Uiso   1.00
H1134  H     0.68104   0.37057   0.76617   0.00000  Uiso   1.00
H1135  H     0.72763   0.35992   0.79550   0.00000  Uiso   1.00
H1136  H     0.72897   0.39049   0.74318   0.00000  Uiso   1.00
H1137  H     0.96851   0.57502   0.66942   0.00000  Uiso   1.00
H1138  H     0.98563   0.62943   0.73383   0.00000  Uiso   1.00
H1139  H     0.93769   0.60951   0.75682   0.00000  Uiso   1.00
H1140  H     0.83202   0.57571   0.61054   0.00000  Uiso   1.00
H1141  H     0.93904   0.64008   0.70449   0.00000  Uiso   1.00
H1142  H     0.96532   0.44562   0.84230   0.00000  Uiso   1.00
H1143  H     0.95961   0.36859   0.81654   0.00000  Uiso   1.00
H1144  H     0.94317   0.38839   0.76239   0.00000  Uiso   1.00
H1145  H     0.90865   0.38998   0.80921   0.00000  Uiso   1.00
H1146  H     0.70135   0.55438   0.65770   0.00000  Uiso   1.00
H1147  H     0.70706   0.63141   0.68346   0.00000  Uiso   1.00
H1148  H     0.75802   0.61002   0.69079   0.00000  Uiso   1.00
H1149  H     0.72350   0.61161   0.73761   0.00000  Uiso   1.00
H1150  H     0.83212   0.57575   0.88962   0.00000  Uiso   1.00
H1151  H     0.83455   0.42425   0.61038   0.00000  Uiso   1.00
H1152  H     0.83141   0.61875   0.95953   0.00000  Uiso   1.00
H1153  H     0.83525   0.38125   0.54047   0.00000  Uiso   1.00
H1154  H     0.83137   0.61874   0.54072   0.00000  Uiso   1.00
H1155  H     0.83530   0.38126   0.95928   0.00000  Uiso   1.00
H1156  H     0.86643   0.37753   0.68943   0.00000  Uiso   1.00
N1157  N     0.83333   0.61736   0.75000   0.00000  Uiso   1.00
N1158  N     0.83333   0.38264   0.75000   0.00000  Uiso   1.00
N1159  N     0.70793   0.42969   0.79832   0.00000  Uiso   1.00
N1160  N     0.95874   0.57031   0.70168   0.00000  Uiso   1.00
N1161  N     0.95506   0.44194   0.81019   0.00000  Uiso   1.00
N1162  N     0.71161   0.55806   0.68981   0.00000  Uiso   1.00
O1163  O     0.77321   0.53958   0.74999   0.00000  Uiso   1.00
O1164  O     0.89345   0.46042   0.75000   0.00000  Uiso   1.00
O1165  O     0.89345   0.53958   0.75000   0.00000  Uiso   1.00
O1166  O     0.77321   0.46042   0.74999   0.00000  Uiso   1.00
O1167  O     0.83332   0.53960   0.68513   0.00000  Uiso   1.00
O1168  O     0.83334   0.46040   0.81487   0.00000  Uiso   1.00
O1169  O     0.83334   0.53960   0.81487   0.00000  Uiso   1.00
O1170  O     0.83332   0.46040   0.68513   0.00000  Uiso   1.00
C1171  C     0.08738   0.83276   0.74933   0.00000  Uiso   1.00
C1172  C     0.04269   0.83161   0.74839   0.00000  Uiso   1.00
C1173  C     0.18492   0.69188   0.71630   0.00000  Uiso   1.00
C1174  C     0.14842   0.97478   0.78370   0.00000  Uiso   1.00
C1175  C     0.14860   0.69108   0.78379   0.00000  Uiso   1.00
C1176  C     0.18473   0.97559   0.71621   0.00000  Uiso   1.00
C1177  C     0.16665   0.83332   0.66425   0.00000  Uiso   1.00
C1178  C     0.16668   0.83335   0.83575   0.00000  Uiso   1.00
C1179  C     0.16741   0.79066   0.90732   0.00000  Uiso   1.00
C1180  C     0.16593   0.87601   0.59268   0.00000  Uiso   1.00
C1181  C     0.16670   0.83335   0.88418   0.00000  Uiso   1.00
C1182  C     0.24595   0.83390   0.75067   0.00000  Uiso   1.00
C1183  C     0.16663   0.83331   0.61582   0.00000  Uiso   1.00
C1184  C     0.16601   0.87604   0.90741   0.00000  Uiso   1.00
C1185  C     0.16732   0.79063   0.59259   0.00000  Uiso   1.00
C1186  C     0.16599   0.87633   0.95360   0.00000  Uiso   1.00
C1187  C     0.16734   0.79034   0.54640   0.00000  Uiso   1.00
C1188  C     0.16668   0.83334   0.97676   0.00000  Uiso   1.00
C1189  C     0.16665   0.83333   0.52324   0.00000  Uiso   1.00
C1190  C     0.16739   0.79035   0.95350   0.00000  Uiso   1.00
C1191  C     0.16594   0.87632   0.54650   0.00000  Uiso   1.00
C1192  C     0.16528   0.91886   0.97698   0.00000  Uiso   1.00
C1193  C     0.16526   0.91886   0.52320   0.00000  Uiso   1.00
C1194  C     0.16805   0.74780   0.52302   0.00000  Uiso   1.00
C1195  C     0.04487   0.71896   0.77457   0.00000  Uiso   1.00
C1196  C     0.28846   0.94771   0.72543   0.00000  Uiso   1.00
C1197  C     0.27449   0.72817   0.79870   0.00000  Uiso   1.00
C1198  C     0.05884   0.93849   0.70130   0.00000  Uiso   1.00
C1199  C     0.16808   0.74781   0.97680   0.00000  Uiso   1.00
C1200  C     0.02043   0.79868   0.77463   0.00000  Uiso   1.00
C1201  C     0.31291   0.86798   0.72537   0.00000  Uiso   1.00
C1202  C     0.31089   0.80160   0.77747   0.00000  Uiso   1.00
C1203  C     0.02244   0.86506   0.72253   0.00000  Uiso   1.00
C1204  C     0.29064   0.83505   0.75160   0.00000  Uiso   1.00
Cu1205 Cu    0.16667   0.88022   0.75000   0.00000  Uiso   1.00
Cu1206 Cu    0.16667   0.78645   0.75000   0.00000  Uiso   1.00
H1207  H     0.16798   0.75762   0.88946   0.00000  Uiso   1.00
H1208  H     0.13357   0.95580   0.81057   0.00000  Uiso   1.00
H1209  H     0.13415   0.70943   0.81089   0.00000  Uiso   1.00
H1210  H     0.19919   0.95723   0.68911   0.00000  Uiso   1.00
H1211  H     0.03149   0.75831   0.83058   0.00000  Uiso   1.00
H1212  H     0.01437   0.70390   0.76617   0.00000  Uiso   1.00
H1213  H     0.06096   0.69326   0.79550   0.00000  Uiso   1.00
H1214  H     0.06231   0.72382   0.74318   0.00000  Uiso   1.00
H1215  H     0.30184   0.90835   0.66942   0.00000  Uiso   1.00
H1216  H     0.31896   0.96277   0.73383   0.00000  Uiso   1.00
H1217  H     0.27103   0.94285   0.75682   0.00000  Uiso   1.00
H1218  H     0.16536   0.90905   0.61054   0.00000  Uiso   1.00
H1219  H     0.27237   0.97341   0.70449   0.00000  Uiso   1.00
H1220  H     0.29865   0.77895   0.84230   0.00000  Uiso   1.00
H1221  H     0.29294   0.70192   0.81654   0.00000  Uiso   1.00
H1222  H     0.27650   0.72172   0.76239   0.00000  Uiso   1.00
H1223  H     0.24198   0.72331   0.80921   0.00000  Uiso   1.00
H1224  H     0.03468   0.88772   0.65770   0.00000  Uiso   1.00
H1225  H     0.04039   0.96475   0.68346   0.00000  Uiso   1.00
H1226  H     0.09135   0.94335   0.69079   0.00000  Uiso   1.00
H1227  H     0.05683   0.94495   0.73761   0.00000  Uiso   1.00
H1228  H     0.16545   0.90908   0.88962   0.00000  Uiso   1.00
H1229  H     0.16788   0.75759   0.61038   0.00000  Uiso   1.00
H1230  H     0.16475   0.95209   0.95953   0.00000  Uiso   1.00
H1231  H     0.16859   0.71458   0.54047   0.00000  Uiso   1.00
H1232  H     0.16470   0.95207   0.54072   0.00000  Uiso   1.00
H1233  H     0.16863   0.71460   0.95928   0.00000  Uiso   1.00
H1234  H     0.19977   0.71086   0.68943   0.00000  Uiso   1.00
N1235  N     0.16667   0.95069   0.75000   0.00000  Uiso   1.00
N1236  N     0.16667   0.71598   0.75000   0.00000  Uiso   1.00
N1237  N     0.04127   0.76303   0.79832   0.00000  Uiso   1.00
N1238  N     0.29207   0.90364   0.70168   0.00000  Uiso   1.00
N1239  N     0.28839   0.77527   0.81019   0.00000  Uiso   1.00
N1240  N     0.04494   0.89140   0.68981   0.00000  Uiso   1.00
O1241  O     0.10655   0.87291   0.74999   0.00000  Uiso   1.00
O1242  O     0.22679   0.79375   0.75000   0.00000  Uiso   1.00
O1243  O     0.22679   0.87291   0.75000   0.00000  Uiso   1.00
O1244  O     0.10655   0.79375   0.74999   0.00000  Uiso   1.00
O1245  O     0.16666   0.87293   0.68513   0.00000  Uiso   1.00
O1246  O     0.16668   0.79373   0.81487   0.00000  Uiso   1.00
O1247  O     0.16668   0.87293   0.81487   0.00000  Uiso   1.00
O1248  O     0.16666   0.79373   0.68513   0.00000  Uiso   1.00
C1249  C     0.42071   0.83276   0.74933   0.00000  Uiso   1.00
C1250  C     0.37603   0.83161   0.74839   0.00000  Uiso   1.00
C1251  C     0.51825   0.69188   0.71630   0.00000  Uiso   1.00
C1252  C     0.48175   0.97478   0.78370   0.00000  Uiso   1.00
C1253  C     0.48193   0.69108   0.78379   0.00000  Uiso   1.00
C1254  C     0.51807   0.97559   0.71621   0.00000  Uiso   1.00
C1255  C     0.49999   0.83332   0.66425   0.00000  Uiso   1.00
C1256  C     0.50001   0.83335   0.83575   0.00000  Uiso   1.00
C1257  C     0.50074   0.79066   0.90732   0.00000  Uiso   1.00
C1258  C     0.49926   0.87601   0.59268   0.00000  Uiso   1.00
C1259  C     0.50004   0.83335   0.88418   0.00000  Uiso   1.00
C1260  C     0.57929   0.83390   0.75067   0.00000  Uiso   1.00
C1261  C     0.49996   0.83331   0.61582   0.00000  Uiso   1.00
C1262  C     0.49934   0.87604   0.90741   0.00000  Uiso   1.00
C1263  C     0.50066   0.79063   0.59259   0.00000  Uiso   1.00
C1264  C     0.49932   0.87633   0.95360   0.00000  Uiso   1.00
C1265  C     0.50068   0.79034   0.54640   0.00000  Uiso   1.00
C1266  C     0.50001   0.83334   0.97676   0.00000  Uiso   1.00
C1267  C     0.49999   0.83333   0.52324   0.00000  Uiso   1.00
C1268  C     0.50073   0.79035   0.95350   0.00000  Uiso   1.00
C1269  C     0.49927   0.87632   0.54650   0.00000  Uiso   1.00
C1270  C     0.49862   0.91886   0.97698   0.00000  Uiso   1.00
C1271  C     0.49859   0.91886   0.52320   0.00000  Uiso   1.00
C1272  C     0.50138   0.74780   0.52302   0.00000  Uiso   1.00
C1273  C     0.37821   0.71896   0.77457   0.00000  Uiso   1.00
C1274  C     0.62179   0.94771   0.72543   0.00000  Uiso   1.00
C1275  C     0.60783   0.72817   0.79870   0.00000  Uiso   1.00
C1276  C     0.39217   0.93849   0.70130   0.00000  Uiso   1.00
C1277  C     0.50141   0.74781   0.97680   0.00000  Uiso   1.00
C1278  C     0.35376   0.79868   0.77463   0.00000  Uiso   1.00
C1279  C     0.64624   0.86798   0.72537   0.00000  Uiso   1.00
C1280  C     0.64423   0.80160   0.77747   0.00000  Uiso   1.00
C1281  C     0.35577   0.86506   0.72253   0.00000  Uiso   1.00
C1282  C     0.62397   0.83505   0.75160   0.00000  Uiso   1.00
Cu1283 Cu    0.50000   0.88022   0.75000   0.00000  Uiso   1.00
Cu1284 Cu    0.50000   0.78645   0.75000   0.00000  Uiso   1.00
H1285  H     0.50131   0.75762   0.88946   0.00000  Uiso   1.00
H1286  H     0.46690   0.95580   0.81057   0.00000  Uiso   1.00
H1287  H     0.46748   0.70943   0.81089   0.00000  Uiso   1.00
H1288  H     0.53252   0.95723   0.68911   0.00000  Uiso   1.00
H1289  H     0.36483   0.75831   0.83058   0.00000  Uiso   1.00
H1290  H     0.34770   0.70390   0.76617   0.00000  Uiso   1.00
H1291  H     0.39429   0.69326   0.79550   0.00000  Uiso   1.00
H1292  H     0.39564   0.72382   0.74318   0.00000  Uiso   1.00
H1293  H     0.63517   0.90835   0.66942   0.00000  Uiso   1.00
H1294  H     0.65230   0.96277   0.73383   0.00000  Uiso   1.00
H1295  H     0.60436   0.94285   0.75682   0.00000  Uiso   1.00
H1296  H     0.49869   0.90905   0.61054   0.00000  Uiso   1.00
H1297  H     0.60571   0.97341   0.70449   0.00000  Uiso   1.00
H1298  H     0.63198   0.77895   0.84230   0.00000  Uiso   1.00
H1299  H     0.62627   0.70192   0.81654   0.00000  Uiso   1.00
H1300  H     0.60984   0.72172   0.76239   0.00000  Uiso   1.00
H1301  H     0.57532   0.72331   0.80921   0.00000  Uiso   1.00
H1302  H     0.36802   0.88772   0.65770   0.00000  Uiso   1.00
H1303  H     0.37373   0.96475   0.68346   0.00000  Uiso   1.00
H1304  H     0.42468   0.94335   0.69079   0.00000  Uiso   1.00
H1305  H     0.39016   0.94495   0.73761   0.00000  Uiso   1.00
H1306  H     0.49878   0.90908   0.88962   0.00000  Uiso   1.00
H1307  H     0.50122   0.75759   0.61038   0.00000  Uiso   1.00
H1308  H     0.49808   0.95209   0.95953   0.00000  Uiso   1.00
H1309  H     0.50192   0.71458   0.54047   0.00000  Uiso   1.00
H1310  H     0.49804   0.95207   0.54072   0.00000  Uiso   1.00
H1311  H     0.50196   0.71460   0.95928   0.00000  Uiso   1.00
H1312  H     0.53310   0.71086   0.68943   0.00000  Uiso   1.00
N1313  N     0.50000   0.95069   0.75000   0.00000  Uiso   1.00
N1314  N     0.50000   0.71598   0.75000   0.00000  Uiso   1.00
N1315  N     0.37460   0.76303   0.79832   0.00000  Uiso   1.00
N1316  N     0.62540   0.90364   0.70168   0.00000  Uiso   1.00
N1317  N     0.62173   0.77527   0.81019   0.00000  Uiso   1.00
N1318  N     0.37827   0.89140   0.68981   0.00000  Uiso   1.00
O1319  O     0.43988   0.87291   0.74999   0.00000  Uiso   1.00
O1320  O     0.56012   0.79375   0.75000   0.00000  Uiso   1.00
O1321  O     0.56012   0.87291   0.75000   0.00000  Uiso   1.00
O1322  O     0.43988   0.79375   0.74999   0.00000  Uiso   1.00
O1323  O     0.49999   0.87293   0.68513   0.00000  Uiso   1.00
O1324  O     0.50001   0.79373   0.81487   0.00000  Uiso   1.00
O1325  O     0.50001   0.87293   0.81487   0.00000  Uiso   1.00
O1326  O     0.49999   0.79373   0.68513   0.00000  Uiso   1.00
C1327  C     0.75405   0.83276   0.74933   0.00000  Uiso   1.00
C1328  C     0.70936   0.83161   0.74839   0.00000  Uiso   1.00
C1329  C     0.85158   0.69188   0.71630   0.00000  Uiso   1.00
C1330  C     0.81508   0.97478   0.78370   0.00000  Uiso   1.00
C1331  C     0.81527   0.69108   0.78379   0.00000  Uiso   1.00
C1332  C     0.85140   0.97559   0.71621   0.00000  Uiso   1.00
C1333  C     0.83332   0.83332   0.66425   0.00000  Uiso   1.00
C1334  C     0.83335   0.83335   0.83575   0.00000  Uiso   1.00
C1335  C     0.83407   0.79066   0.90732   0.00000  Uiso   1.00
C1336  C     0.83259   0.87601   0.59268   0.00000  Uiso   1.00
C1337  C     0.83337   0.83335   0.88418   0.00000  Uiso   1.00
C1338  C     0.91262   0.83390   0.75067   0.00000  Uiso   1.00
C1339  C     0.83330   0.83331   0.61582   0.00000  Uiso   1.00
C1340  C     0.83268   0.87604   0.90741   0.00000  Uiso   1.00
C1341  C     0.83399   0.79063   0.59259   0.00000  Uiso   1.00
C1342  C     0.83266   0.87633   0.95360   0.00000  Uiso   1.00
C1343  C     0.83401   0.79034   0.54640   0.00000  Uiso   1.00
C1344  C     0.83335   0.83334   0.97676   0.00000  Uiso   1.00
C1345  C     0.83332   0.83333   0.52324   0.00000  Uiso   1.00
C1346  C     0.83406   0.79035   0.95350   0.00000  Uiso   1.00
C1347  C     0.83261   0.87632   0.54650   0.00000  Uiso   1.00
C1348  C     0.83195   0.91886   0.97698   0.00000  Uiso   1.00
C1349  C     0.83192   0.91886   0.52320   0.00000  Uiso   1.00
C1350  C     0.83472   0.74780   0.52302   0.00000  Uiso   1.00
C1351  C     0.71154   0.71896   0.77457   0.00000  Uiso   1.00
C1352  C     0.95513   0.94771   0.72543   0.00000  Uiso   1.00
C1353  C     0.94116   0.72817   0.79870   0.00000  Uiso   1.00
C1354  C     0.72551   0.93849   0.70130   0.00000  Uiso   1.00
C1355  C     0.83474   0.74781   0.97680   0.00000  Uiso   1.00
C1356  C     0.68709   0.79868   0.77463   0.00000  Uiso   1.00
C1357  C     0.97957   0.86798   0.72537   0.00000  Uiso   1.00
C1358  C     0.97756   0.80160   0.77747   0.00000  Uiso   1.00
C1359  C     0.68911   0.86506   0.72253   0.00000  Uiso   1.00
C1360  C     0.95731   0.83505   0.75160   0.00000  Uiso   1.00
Cu1361 Cu    0.83333   0.88022   0.75000   0.00000  Uiso   1.00
Cu1362 Cu    0.83333   0.78645   0.75000   0.00000  Uiso   1.00
H1363  H     0.83464   0.75762   0.88946   0.00000  Uiso   1.00
H1364  H     0.80023   0.95580   0.81057   0.00000  Uiso   1.00
H1365  H     0.80081   0.70943   0.81089   0.00000  Uiso   1.00
H1366  H     0.86585   0.95723   0.68911   0.00000  Uiso   1.00
H1367  H     0.69816   0.75831   0.83058   0.00000  Uiso   1.00
H1368  H     0.68104   0.70390   0.76617   0.00000  Uiso   1.00
H1369  H     0.72763   0.69326   0.79550   0.00000  Uiso   1.00
H1370  H     0.72897   0.72382   0.74318   0.00000  Uiso   1.00
H1371  H     0.96851   0.90835   0.66942   0.00000  Uiso   1.00
H1372  H     0.98563   0.96277   0.73383   0.00000  Uiso   1.00
H1373  H     0.93769   0.94285   0.75682   0.00000  Uiso   1.00
H1374  H     0.83202   0.90905   0.61054   0.00000  Uiso   1.00
H1375  H     0.93904   0.97341   0.70449   0.00000  Uiso   1.00
H1376  H     0.96532   0.77895   0.84230   0.00000  Uiso   1.00
H1377  H     0.95961   0.70192   0.81654   0.00000  Uiso   1.00
H1378  H     0.94317   0.72172   0.76239   0.00000  Uiso   1.00
H1379  H     0.90865   0.72331   0.80921   0.00000  Uiso   1.00
H1380  H     0.70135   0.88772   0.65770   0.00000  Uiso   1.00
H1381  H     0.70706   0.96475   0.68346   0.00000  Uiso   1.00
H1382  H     0.75802   0.94335   0.69079   0.00000  Uiso   1.00
H1383  H     0.72350   0.94495   0.73761   0.00000  Uiso   1.00
H1384  H     0.83212   0.90908   0.88962   0.00000  Uiso   1.00
H1385  H     0.83455   0.75759   0.61038   0.00000  Uiso   1.00
H1386  H     0.83141   0.95209   0.95953   0.00000  Uiso   1.00
H1387  H     0.83525   0.71458   0.54047   0.00000  Uiso   1.00
H1388  H     0.83137   0.95207   0.54072   0.00000  Uiso   1.00
H1389  H     0.83530   0.71460   0.95928   0.00000  Uiso   1.00
H1390  H     0.86643   0.71086   0.68943   0.00000  Uiso   1.00
N1391  N     0.83333   0.95069   0.75000   0.00000  Uiso   1.00
N1392  N     0.83333   0.71598   0.75000   0.00000  Uiso   1.00
N1393  N     0.70793   0.76303   0.79832   0.00000  Uiso   1.00
N1394  N     0.95874   0.90364   0.70168   0.00000  Uiso   1.00
N1395  N     0.95506   0.77527   0.81019   0.00000  Uiso   1.00
N1396  N     0.71161   0.89140   0.68981   0.00000  Uiso   1.00
O1397  O     0.77321   0.87291   0.74999   0.00000  Uiso   1.00
O1398  O     0.89345   0.79375   0.75000   0.00000  Uiso   1.00
O1399  O     0.89345   0.87291   0.75000   0.00000  Uiso   1.00
O1400  O     0.77321   0.79375   0.74999   0.00000  Uiso   1.00
O1401  O     0.83332   0.87293   0.68513   0.00000  Uiso   1.00
O1402  O     0.83334   0.79373   0.81487   0.00000  Uiso   1.00
O1403  O     0.83334   0.87293   0.81487   0.00000  Uiso   1.00
O1404  O     0.83332   0.79373   0.68513   0.00000  Uiso   1.00
loop_
_geom_bond_atom_site_label_1
_geom_bond_atom_site_label_2
_geom_bond_distance
_geom_bond_site_symmetry_2
_ccdc_geom_bond_type
C1     O71     1.291   .     A
C1     O74     1.286   .     A
C1     C2      1.456   .     S
C2     C33     1.409   .     A
C2     C30     1.414   .     A
C3     H64     1.081   .     S
C3     N66     1.366   .     A
C3     C474    1.414   1_545 S
C4     N65     1.366   .     A
C4     H38     1.081   .     S
C4     C239    1.414   .     S
C5     H39     1.081   .     S
C5     N66     1.366   .     A
C5     C472    1.414   1_545 S
C6     N65     1.366   .     A
C6     H40     1.081   .     S
C6     C237    1.414   .     S
C7     O75     1.292   .     A
C7     O78     1.292   .     A
C7     C13     1.461   .     S
C8     O76     1.292   .     A
C8     O77     1.292   .     A
C8     C11     1.461   .     S
C9     C20     1.393   .     A
C9     H37     1.084   .     S
C9     C11     1.403   .     A
C10    C21     1.393   .     A
C10    H48     1.084   .     S
C10    C13     1.403   .     A
C11    C14     1.403   .     A
C12    O72     1.291   .     A
C12    O73     1.286   .     A
C12    C34     1.456   .     S
C13    C15     1.403   .     A
C14    H58     1.084   .     S
C14    C16     1.393   .     A
C15    C17     1.393   .     A
C15    H59     1.084   .     S
C16    C22     1.402   .     A
C16    C18     1.411   .     A
C17    C24     1.402   .     A
C17    C19     1.411   .     A
C18    C20     1.411   .     A
C18    C721    1.402   .     S
C19    C21     1.411   .     A
C19    C720    1.402   1_554 S
C20    C29     1.402   .     A
C21    C23     1.402   .     A
C22    H60     1.084   .     S
C22    C725    1.394   .     S
C23    H62     1.084   .     S
C23    C724    1.394   1_554 S
C24    H61     1.084   .     S
C24    C731    1.394   1_554 S
C25    N67     1.451   .     S
C25    H43     1.109   .     S
C25    H44     1.109   .     S
C25    H42     1.105   .     S
C26    H49     1.109   .     S
C26    H47     1.109   .     S
C26    N68     1.451   .     S
C26    H46     1.105   .     S
C27    N69     1.449   .     S
C27    H51     1.110   .     S
C27    H52     1.112   .     S
C27    H53     1.110   .     S
C28    H56     1.110   .     S
C28    H57     1.112   .     S
C28    H55     1.110   .     S
C28    N70     1.449   .     S
C29    H63     1.084   .     S
C29    C726    1.394   .     S
C30    N67     1.428   .     S
C30    C188    1.403   1_455 S
C31    N68     1.428   .     S
C31    C34     1.414   .     A
C31    C111    1.403   .     S
C32    C34     1.409   .     A
C32    N69     1.430   .     S
C32    C108    1.403   .     S
C33    N70     1.430   .     S
C33    C187    1.403   1_455 S
Cu35   Cu36    2.671   .     S
Cu35   O75     1.967   .     S
Cu35   N65     2.007   .     S
Cu35   O71     1.965   .     S
Cu35   O77     1.968   .     S
Cu35   O73     1.974   .     S
Cu36   N66     2.007   .     S
Cu36   O76     1.967   .     S
Cu36   O74     1.974   .     S
Cu36   O78     1.968   .     S
Cu36   O72     1.965   .     S
H41    N67     1.030   .     S
H45    N68     1.030   .     S
H50    N69     1.031   .     S
H54    N70     1.031   .     S
C79    O149    1.291   .     A
C79    O152    1.286   .     A
C79    C80     1.456   .     S
C80    C111    1.409   .     A
C80    C108    1.414   .     A
C81    H142    1.081   .     S
C81    N144    1.366   .     A
C81    C552    1.414   1_545 S
C82    N143    1.366   .     A
C82    H116    1.081   .     S
C82    C317    1.414   .     S
C83    H117    1.081   .     S
C83    N144    1.366   .     A
C83    C550    1.414   1_545 S
C84    N143    1.366   .     A
C84    H118    1.081   .     S
C84    C315    1.414   .     S
C85    O153    1.292   .     A
C85    O156    1.292   .     A
C85    C91     1.461   .     S
C86    O154    1.292   .     A
C86    O155    1.292   .     A
C86    C89     1.461   .     S
C87    C98     1.393   .     A
C87    H115    1.084   .     S
C87    C89     1.403   .     A
C88    C99     1.393   .     A
C88    H126    1.084   .     S
C88    C91     1.403   .     A
C89    C92     1.403   .     A
C90    O150    1.291   .     A
C90    O151    1.286   .     A
C90    C112    1.456   .     S
C91    C93     1.403   .     A
C92    H136    1.084   .     S
C92    C94     1.393   .     A
C93    C95     1.393   .     A
C93    H137    1.084   .     S
C94    C100    1.402   .     A
C94    C96     1.411   .     A
C95    C102    1.402   .     A
C95    C97     1.411   .     A
C96    C98     1.411   .     A
C96    C799    1.402   .     S
C97    C99     1.411   .     A
C97    C798    1.402   1_554 S
C98    C107    1.402   .     A
C99    C101    1.402   .     A
C100   H138    1.084   .     S
C100   C803    1.394   .     S
C101   H140    1.084   .     S
C101   C802    1.394   1_554 S
C102   H139    1.084   .     S
C102   C809    1.394   1_554 S
C103   N145    1.451   .     S
C103   H121    1.109   .     S
C103   H122    1.109   .     S
C103   H120    1.105   .     S
C104   H127    1.109   .     S
C104   H125    1.109   .     S
C104   N146    1.451   .     S
C104   H124    1.105   .     S
C105   N147    1.449   .     S
C105   H129    1.110   .     S
C105   H130    1.112   .     S
C105   H131    1.110   .     S
C106   H134    1.110   .     S
C106   H135    1.112   .     S
C106   H133    1.110   .     S
C106   N148    1.449   .     S
C107   H141    1.084   .     S
C107   C804    1.394   .     S
C108   N145    1.428   .     S
C109   N146    1.428   .     S
C109   C112    1.414   .     A
C109   C189    1.403   .     S
C110   C112    1.409   .     A
C110   N147    1.430   .     S
C110   C186    1.403   .     S
C111   N148    1.430   .     S
Cu113  Cu114   2.671   .     S
Cu113  O153    1.967   .     S
Cu113  N143    2.007   .     S
Cu113  O149    1.965   .     S
Cu113  O155    1.968   .     S
Cu113  O151    1.974   .     S
Cu114  N144    2.007   .     S
Cu114  O154    1.967   .     S
Cu114  O152    1.974   .     S
Cu114  O156    1.968   .     S
Cu114  O150    1.965   .     S
H119   N145    1.030   .     S
H123   N146    1.030   .     S
H128   N147    1.031   .     S
H132   N148    1.031   .     S
C157   O227    1.291   .     A
C157   O230    1.286   .     A
C157   C158    1.456   .     S
C158   C189    1.409   .     A
C158   C186    1.414   .     A
C159   H220    1.081   .     S
C159   N222    1.366   .     A
C159   C630    1.414   1_545 S
C160   N221    1.366   .     A
C160   H194    1.081   .     S
C160   C395    1.414   .     S
C161   H195    1.081   .     S
C161   N222    1.366   .     A
C161   C628    1.414   1_545 S
C162   N221    1.366   .     A
C162   H196    1.081   .     S
C162   C393    1.414   .     S
C163   O231    1.292   .     A
C163   O234    1.292   .     A
C163   C169    1.461   .     S
C164   O232    1.292   .     A
C164   O233    1.292   .     A
C164   C167    1.461   .     S
C165   C176    1.393   .     A
C165   H193    1.084   .     S
C165   C167    1.403   .     A
C166   C177    1.393   .     A
C166   H204    1.084   .     S
C166   C169    1.403   .     A
C167   C170    1.403   .     A
C168   O228    1.291   .     A
C168   O229    1.286   .     A
C168   C190    1.456   .     S
C169   C171    1.403   .     A
C170   H214    1.084   .     S
C170   C172    1.393   .     A
C171   C173    1.393   .     A
C171   H215    1.084   .     S
C172   C178    1.402   .     A
C172   C174    1.411   .     A
C173   C180    1.402   .     A
C173   C175    1.411   .     A
C174   C176    1.411   .     A
C174   C877    1.402   .     S
C175   C177    1.411   .     A
C175   C876    1.402   1_554 S
C176   C185    1.402   .     A
C177   C179    1.402   .     A
C178   H216    1.084   .     S
C178   C881    1.394   .     S
C179   H218    1.084   .     S
C179   C880    1.394   1_554 S
C180   H217    1.084   .     S
C180   C887    1.394   1_554 S
C181   N223    1.451   .     S
C181   H199    1.109   .     S
C181   H200    1.109   .     S
C181   H198    1.105   .     S
C182   H205    1.109   .     S
C182   H203    1.109   .     S
C182   N224    1.451   .     S
C182   H202    1.105   .     S
C183   N225    1.449   .     S
C183   H207    1.110   .     S
C183   H208    1.112   .     S
C183   H209    1.110   .     S
C184   H212    1.110   .     S
C184   H213    1.112   .     S
C184   H211    1.110   .     S
C184   N226    1.449   .     S
C185   H219    1.084   .     S
C185   C882    1.394   .     S
C186   N223    1.428   .     S
C187   N224    1.428   .     S
C187   C190    1.414   .     A
C187   C33     1.403   1_655 S
C188   C190    1.409   .     A
C188   N225    1.430   .     S
C188   C30     1.403   1_655 S
C189   N226    1.430   .     S
Cu191  Cu192   2.671   .     S
Cu191  O231    1.967   .     S
Cu191  N221    2.007   .     S
Cu191  O227    1.965   .     S
Cu191  O233    1.968   .     S
Cu191  O229    1.974   .     S
Cu192  N222    2.007   .     S
Cu192  O232    1.967   .     S
Cu192  O230    1.974   .     S
Cu192  O234    1.968   .     S
Cu192  O228    1.965   .     S
H197   N223    1.030   .     S
H201   N224    1.030   .     S
H206   N225    1.031   .     S
H210   N226    1.031   .     S
C235   O305    1.291   .     A
C235   O308    1.286   .     A
C235   C236    1.456   .     S
C236   C267    1.409   .     A
C236   C264    1.414   .     A
C237   H298    1.081   .     S
C237   N300    1.366   .     A
C238   N299    1.366   .     A
C238   H272    1.081   .     S
C238   C473    1.414   .     S
C239   H273    1.081   .     S
C239   N300    1.366   .     A
C240   N299    1.366   .     A
C240   H274    1.081   .     S
C240   C471    1.414   .     S
C241   O309    1.292   .     A
C241   O312    1.292   .     A
C241   C247    1.461   .     S
C242   O310    1.292   .     A
C242   O311    1.292   .     A
C242   C245    1.461   .     S
C243   C254    1.393   .     A
C243   H271    1.084   .     S
C243   C245    1.403   .     A
C244   C255    1.393   .     A
C244   H282    1.084   .     S
C244   C247    1.403   .     A
C245   C248    1.403   .     A
C246   O306    1.291   .     A
C246   O307    1.286   .     A
C246   C268    1.456   .     S
C247   C249    1.403   .     A
C248   H292    1.084   .     S
C248   C250    1.393   .     A
C249   C251    1.393   .     A
C249   H293    1.084   .     S
C250   C256    1.402   .     A
C250   C252    1.411   .     A
C251   C258    1.402   .     A
C251   C253    1.411   .     A
C252   C254    1.411   .     A
C252   C955    1.402   .     S
C253   C255    1.411   .     A
C253   C954    1.402   1_554 S
C254   C263    1.402   .     A
C255   C257    1.402   .     A
C256   H294    1.084   .     S
C256   C959    1.394   .     S
C257   H296    1.084   .     S
C257   C958    1.394   1_554 S
C258   H295    1.084   .     S
C258   C965    1.394   1_554 S
C259   N301    1.451   .     S
C259   H277    1.109   .     S
C259   H278    1.109   .     S
C259   H276    1.105   .     S
C260   H283    1.109   .     S
C260   H281    1.109   .     S
C260   N302    1.451   .     S
C260   H280    1.105   .     S
C261   N303    1.449   .     S
C261   H285    1.110   .     S
C261   H286    1.112   .     S
C261   H287    1.110   .     S
C262   H290    1.110   .     S
C262   H291    1.112   .     S
C262   H289    1.110   .     S
C262   N304    1.449   .     S
C263   H297    1.084   .     S
C263   C960    1.394   .     S
C264   N301    1.428   .     S
C264   C422    1.403   1_455 S
C265   N302    1.428   .     S
C265   C268    1.414   .     A
C265   C345    1.403   .     S
C266   C268    1.409   .     A
C266   N303    1.430   .     S
C266   C342    1.403   .     S
C267   N304    1.430   .     S
C267   C421    1.403   1_455 S
Cu269  Cu270   2.671   .     S
Cu269  O309    1.967   .     S
Cu269  N299    2.007   .     S
Cu269  O305    1.965   .     S
Cu269  O311    1.968   .     S
Cu269  O307    1.974   .     S
Cu270  N300    2.007   .     S
Cu270  O310    1.967   .     S
Cu270  O308    1.974   .     S
Cu270  O312    1.968   .     S
Cu270  O306    1.965   .     S
H275   N301    1.030   .     S
H279   N302    1.030   .     S
H284   N303    1.031   .     S
H288   N304    1.031   .     S
C313   O383    1.291   .     A
C313   O386    1.286   .     A
C313   C314    1.456   .     S
C314   C345    1.409   .     A
C314   C342    1.414   .     A
C315   H376    1.081   .     S
C315   N378    1.366   .     A
C316   N377    1.366   .     A
C316   H350    1.081   .     S
C316   C551    1.414   .     S
C317   H351    1.081   .     S
C317   N378    1.366   .     A
C318   N377    1.366   .     A
C318   H352    1.081   .     S
C318   C549    1.414   .     S
C319   O387    1.292   .     A
C319   O390    1.292   .     A
C319   C325    1.461   .     S
C320   O388    1.292   .     A
C320   O389    1.292   .     A
C320   C323    1.461   .     S
C321   C332    1.393   .     A
C321   H349    1.084   .     S
C321   C323    1.403   .     A
C322   C333    1.393   .     A
C322   H360    1.084   .     S
C322   C325    1.403   .     A
C323   C326    1.403   .     A
C324   O384    1.291   .     A
C324   O385    1.286   .     A
C324   C346    1.456   .     S
C325   C327    1.403   .     A
C326   H370    1.084   .     S
C326   C328    1.393   .     A
C327   C329    1.393   .     A
C327   H371    1.084   .     S
C328   C334    1.402   .     A
C328   C330    1.411   .     A
C329   C336    1.402   .     A
C329   C331    1.411   .     A
C330   C332    1.411   .     A
C330   C1033   1.402   .     S
C331   C333    1.411   .     A
C331   C1032   1.402   1_554 S
C332   C341    1.402   .     A
C333   C335    1.402   .     A
C334   H372    1.084   .     S
C334   C1037   1.394   .     S
C335   H374    1.084   .     S
C335   C1036   1.394   1_554 S
C336   H373    1.084   .     S
C336   C1043   1.394   1_554 S
C337   N379    1.451   .     S
C337   H355    1.109   .     S
C337   H356    1.109   .     S
C337   H354    1.105   .     S
C338   H361    1.109   .     S
C338   H359    1.109   .     S
C338   N380    1.451   .     S
C338   H358    1.105   .     S
C339   N381    1.449   .     S
C339   H363    1.110   .     S
C339   H364    1.112   .     S
C339   H365    1.110   .     S
C340   H368    1.110   .     S
C340   H369    1.112   .     S
C340   H367    1.110   .     S
C340   N382    1.449   .     S
C341   H375    1.084   .     S
C341   C1038   1.394   .     S
C342   N379    1.428   .     S
C343   N380    1.428   .     S
C343   C346    1.414   .     A
C343   C423    1.403   .     S
C344   C346    1.409   .     A
C344   N381    1.430   .     S
C344   C420    1.403   .     S
C345   N382    1.430   .     S
Cu347  Cu348   2.671   .     S
Cu347  O387    1.967   .     S
Cu347  N377    2.007   .     S
Cu347  O383    1.965   .     S
Cu347  O389    1.968   .     S
Cu347  O385    1.974   .     S
Cu348  N378    2.007   .     S
Cu348  O388    1.967   .     S
Cu348  O386    1.974   .     S
Cu348  O390    1.968   .     S
Cu348  O384    1.965   .     S
H353   N379    1.030   .     S
H357   N380    1.030   .     S
H362   N381    1.031   .     S
H366   N382    1.031   .     S
C391   O461    1.291   .     A
C391   O464    1.286   .     A
C391   C392    1.456   .     S
C392   C423    1.409   .     A
C392   C420    1.414   .     A
C393   H454    1.081   .     S
C393   N456    1.366   .     A
C394   N455    1.366   .     A
C394   H428    1.081   .     S
C394   C629    1.414   .     S
C395   H429    1.081   .     S
C395   N456    1.366   .     A
C396   N455    1.366   .     A
C396   H430    1.081   .     S
C396   C627    1.414   .     S
C397   O465    1.292   .     A
C397   O468    1.292   .     A
C397   C403    1.461   .     S
C398   O466    1.292   .     A
C398   O467    1.292   .     A
C398   C401    1.461   .     S
C399   C410    1.393   .     A
C399   H427    1.084   .     S
C399   C401    1.403   .     A
C400   C411    1.393   .     A
C400   H438    1.084   .     S
C400   C403    1.403   .     A
C401   C404    1.403   .     A
C402   O462    1.291   .     A
C402   O463    1.286   .     A
C402   C424    1.456   .     S
C403   C405    1.403   .     A
C404   H448    1.084   .     S
C404   C406    1.393   .     A
C405   C407    1.393   .     A
C405   H449    1.084   .     S
C406   C412    1.402   .     A
C406   C408    1.411   .     A
C407   C414    1.402   .     A
C407   C409    1.411   .     A
C408   C410    1.411   .     A
C408   C1111   1.402   .     S
C409   C411    1.411   .     A
C409   C1110   1.402   1_554 S
C410   C419    1.402   .     A
C411   C413    1.402   .     A
C412   H450    1.084   .     S
C412   C1115   1.394   .     S
C413   H452    1.084   .     S
C413   C1114   1.394   1_554 S
C414   H451    1.084   .     S
C414   C1121   1.394   1_554 S
C415   N457    1.451   .     S
C415   H433    1.109   .     S
C415   H434    1.109   .     S
C415   H432    1.105   .     S
C416   H439    1.109   .     S
C416   H437    1.109   .     S
C416   N458    1.451   .     S
C416   H436    1.105   .     S
C417   N459    1.449   .     S
C417   H441    1.110   .     S
C417   H442    1.112   .     S
C417   H443    1.110   .     S
C418   H446    1.110   .     S
C418   H447    1.112   .     S
C418   H445    1.110   .     S
C418   N460    1.449   .     S
C419   H453    1.084   .     S
C419   C1116   1.394   .     S
C420   N457    1.428   .     S
C421   N458    1.428   .     S
C421   C424    1.414   .     A
C421   C267    1.403   1_655 S
C422   C424    1.409   .     A
C422   N459    1.430   .     S
C422   C264    1.403   1_655 S
C423   N460    1.430   .     S
Cu425  Cu426   2.671   .     S
Cu425  O465    1.967   .     S
Cu425  N455    2.007   .     S
Cu425  O461    1.965   .     S
Cu425  O467    1.968   .     S
Cu425  O463    1.974   .     S
Cu426  N456    2.007   .     S
Cu426  O466    1.967   .     S
Cu426  O464    1.974   .     S
Cu426  O468    1.968   .     S
Cu426  O462    1.965   .     S
H431   N457    1.030   .     S
H435   N458    1.030   .     S
H440   N459    1.031   .     S
H444   N460    1.031   .     S
C469   O539    1.291   .     A
C469   O542    1.286   .     A
C469   C470    1.456   .     S
C470   C501    1.409   .     A
C470   C498    1.414   .     A
C471   H532    1.081   .     S
C471   N534    1.366   .     A
C472   N533    1.366   .     A
C472   H506    1.081   .     S
C472   C5      1.414   1_565 S
C473   H507    1.081   .     S
C473   N534    1.366   .     A
C474   N533    1.366   .     A
C474   H508    1.081   .     S
C474   C3      1.414   1_565 S
C475   O543    1.292   .     A
C475   O546    1.292   .     A
C475   C481    1.461   .     S
C476   O544    1.292   .     A
C476   O545    1.292   .     A
C476   C479    1.461   .     S
C477   C488    1.393   .     A
C477   H505    1.084   .     S
C477   C479    1.403   .     A
C478   C489    1.393   .     A
C478   H516    1.084   .     S
C478   C481    1.403   .     A
C479   C482    1.403   .     A
C480   O540    1.291   .     A
C480   O541    1.286   .     A
C480   C502    1.456   .     S
C481   C483    1.403   .     A
C482   H526    1.084   .     S
C482   C484    1.393   .     A
C483   C485    1.393   .     A
C483   H527    1.084   .     S
C484   C490    1.402   .     A
C484   C486    1.411   .     A
C485   C492    1.402   .     A
C485   C487    1.411   .     A
C486   C488    1.411   .     A
C486   C1189   1.402   .     S
C487   C489    1.411   .     A
C487   C1188   1.402   1_554 S
C488   C497    1.402   .     A
C489   C491    1.402   .     A
C490   H528    1.084   .     S
C490   C1193   1.394   .     S
C491   H530    1.084   .     S
C491   C1192   1.394   1_554 S
C492   H529    1.084   .     S
C492   C1199   1.394   1_554 S
C493   N535    1.451   .     S
C493   H511    1.109   .     S
C493   H512    1.109   .     S
C493   H510    1.105   .     S
C494   H517    1.109   .     S
C494   H515    1.109   .     S
C494   N536    1.451   .     S
C494   H514    1.105   .     S
C495   N537    1.449   .     S
C495   H519    1.110   .     S
C495   H520    1.112   .     S
C495   H521    1.110   .     S
C496   H524    1.110   .     S
C496   H525    1.112   .     S
C496   H523    1.110   .     S
C496   N538    1.449   .     S
C497   H531    1.084   .     S
C497   C1194   1.394   .     S
C498   N535    1.428   .     S
C498   C656    1.403   1_455 S
C499   N536    1.428   .     S
C499   C502    1.414   .     A
C499   C579    1.403   .     S
C500   C502    1.409   .     A
C500   N537    1.430   .     S
C500   C576    1.403   .     S
C501   N538    1.430   .     S
C501   C655    1.403   1_455 S
Cu503  Cu504   2.671   .     S
Cu503  O543    1.967   .     S
Cu503  N533    2.007   .     S
Cu503  O539    1.965   .     S
Cu503  O545    1.968   .     S
Cu503  O541    1.974   .     S
Cu504  N534    2.007   .     S
Cu504  O544    1.967   .     S
Cu504  O542    1.974   .     S
Cu504  O546    1.968   .     S
Cu504  O540    1.965   .     S
H509   N535    1.030   .     S
H513   N536    1.030   .     S
H518   N537    1.031   .     S
H522   N538    1.031   .     S
C547   O617    1.291   .     A
C547   O620    1.286   .     A
C547   C548    1.456   .     S
C548   C579    1.409   .     A
C548   C576    1.414   .     A
C549   H610    1.081   .     S
C549   N612    1.366   .     A
C550   N611    1.366   .     A
C550   H584    1.081   .     S
C550   C83     1.414   1_565 S
C551   H585    1.081   .     S
C551   N612    1.366   .     A
C552   N611    1.366   .     A
C552   H586    1.081   .     S
C552   C81     1.414   1_565 S
C553   O621    1.292   .     A
C553   O624    1.292   .     A
C553   C559    1.461   .     S
C554   O622    1.292   .     A
C554   O623    1.292   .     A
C554   C557    1.461   .     S
C555   C566    1.393   .     A
C555   H583    1.084   .     S
C555   C557    1.403   .     A
C556   C567    1.393   .     A
C556   H594    1.084   .     S
C556   C559    1.403   .     A
C557   C560    1.403   .     A
C558   O618    1.291   .     A
C558   O619    1.286   .     A
C558   C580    1.456   .     S
C559   C561    1.403   .     A
C560   H604    1.084   .     S
C560   C562    1.393   .     A
C561   C563    1.393   .     A
C561   H605    1.084   .     S
C562   C568    1.402   .     A
C562   C564    1.411   .     A
C563   C570    1.402   .     A
C563   C565    1.411   .     A
C564   C566    1.411   .     A
C564   C1267   1.402   .     S
C565   C567    1.411   .     A
C565   C1266   1.402   1_554 S
C566   C575    1.402   .     A
C567   C569    1.402   .     A
C568   H606    1.084   .     S
C568   C1271   1.394   .     S
C569   H608    1.084   .     S
C569   C1270   1.394   1_554 S
C570   H607    1.084   .     S
C570   C1277   1.394   1_554 S
C571   N613    1.451   .     S
C571   H589    1.109   .     S
C571   H590    1.109   .     S
C571   H588    1.105   .     S
C572   H595    1.109   .     S
C572   H593    1.109   .     S
C572   N614    1.451   .     S
C572   H592    1.105   .     S
C573   N615    1.449   .     S
C573   H597    1.110   .     S
C573   H598    1.112   .     S
C573   H599    1.110   .     S
C574   H602    1.110   .     S
C574   H603    1.112   .     S
C574   H601    1.110   .     S
C574   N616    1.449   .     S
C575   H609    1.084   .     S
C575   C1272   1.394   .     S
C576   N613    1.428   .     S
C577   N614    1.428   .     S
C577   C580    1.414   .     A
C577   C657    1.403   .     S
C578   C580    1.409   .     A
C578   N615    1.430   .     S
C578   C654    1.403   .     S
C579   N616    1.430   .     S
Cu581  Cu582   2.671   .     S
Cu581  O621    1.967   .     S
Cu581  N611    2.007   .     S
Cu581  O617    1.965   .     S
Cu581  O623    1.968   .     S
Cu581  O619    1.974   .     S
Cu582  N612    2.007   .     S
Cu582  O622    1.967   .     S
Cu582  O620    1.974   .     S
Cu582  O624    1.968   .     S
Cu582  O618    1.965   .     S
H587   N613    1.030   .     S
H591   N614    1.030   .     S
H596   N615    1.031   .     S
H600   N616    1.031   .     S
C625   O695    1.291   .     A
C625   O698    1.286   .     A
C625   C626    1.456   .     S
C626   C657    1.409   .     A
C626   C654    1.414   .     A
C627   H688    1.081   .     S
C627   N690    1.366   .     A
C628   N689    1.366   .     A
C628   H662    1.081   .     S
C628   C161    1.414   1_565 S
C629   H663    1.081   .     S
C629   N690    1.366   .     A
C630   N689    1.366   .     A
C630   H664    1.081   .     S
C630   C159    1.414   1_565 S
C631   O699    1.292   .     A
C631   O702    1.292   .     A
C631   C637    1.461   .     S
C632   O700    1.292   .     A
C632   O701    1.292   .     A
C632   C635    1.461   .     S
C633   C644    1.393   .     A
C633   H661    1.084   .     S
C633   C635    1.403   .     A
C634   C645    1.393   .     A
C634   H672    1.084   .     S
C634   C637    1.403   .     A
C635   C638    1.403   .     A
C636   O696    1.291   .     A
C636   O697    1.286   .     A
C636   C658    1.456   .     S
C637   C639    1.403   .     A
C638   H682    1.084   .     S
C638   C640    1.393   .     A
C639   C641    1.393   .     A
C639   H683    1.084   .     S
C640   C646    1.402   .     A
C640   C642    1.411   .     A
C641   C648    1.402   .     A
C641   C643    1.411   .     A
C642   C644    1.411   .     A
C642   C1345   1.402   .     S
C643   C645    1.411   .     A
C643   C1344   1.402   1_554 S
C644   C653    1.402   .     A
C645   C647    1.402   .     A
C646   H684    1.084   .     S
C646   C1349   1.394   .     S
C647   H686    1.084   .     S
C647   C1348   1.394   1_554 S
C648   H685    1.084   .     S
C648   C1355   1.394   1_554 S
C649   N691    1.451   .     S
C649   H667    1.109   .     S
C649   H668    1.109   .     S
C649   H666    1.105   .     S
C650   H673    1.109   .     S
C650   H671    1.109   .     S
C650   N692    1.451   .     S
C650   H670    1.105   .     S
C651   N693    1.449   .     S
C651   H675    1.110   .     S
C651   H676    1.112   .     S
C651   H677    1.110   .     S
C652   H680    1.110   .     S
C652   H681    1.112   .     S
C652   H679    1.110   .     S
C652   N694    1.449   .     S
C653   H687    1.084   .     S
C653   C1350   1.394   .     S
C654   N691    1.428   .     S
C655   N692    1.428   .     S
C655   C658    1.414   .     A
C655   C501    1.403   1_655 S
C656   C658    1.409   .     A
C656   N693    1.430   .     S
C656   C498    1.403   1_655 S
C657   N694    1.430   .     S
Cu659  Cu660   2.671   .     S
Cu659  O699    1.967   .     S
Cu659  N689    2.007   .     S
Cu659  O695    1.965   .     S
Cu659  O701    1.968   .     S
Cu659  O697    1.974   .     S
Cu660  N690    2.007   .     S
Cu660  O700    1.967   .     S
Cu660  O698    1.974   .     S
Cu660  O702    1.968   .     S
Cu660  O696    1.965   .     S
H665   N691    1.030   .     S
H669   N692    1.030   .     S
H674   N693    1.031   .     S
H678   N694    1.031   .     S
C703   O773    1.291   .     A
C703   O776    1.286   .     A
C703   C704    1.456   .     S
C704   C735    1.409   .     A
C704   C732    1.414   .     A
C705   H766    1.081   .     S
C705   N768    1.366   .     A
C705   C1176   1.414   1_545 S
C706   N767    1.366   .     A
C706   H740    1.081   .     S
C706   C941    1.414   .     S
C707   H741    1.081   .     S
C707   N768    1.366   .     A
C707   C1174   1.414   1_545 S
C708   N767    1.366   .     A
C708   H742    1.081   .     S
C708   C939    1.414   .     S
C709   O777    1.292   .     A
C709   O780    1.292   .     A
C709   C715    1.461   .     S
C710   O778    1.292   .     A
C710   O779    1.292   .     A
C710   C713    1.461   .     S
C711   C722    1.393   .     A
C711   H739    1.084   .     S
C711   C713    1.403   .     A
C712   C723    1.393   .     A
C712   H750    1.084   .     S
C712   C715    1.403   .     A
C713   C716    1.403   .     A
C714   O774    1.291   .     A
C714   O775    1.286   .     A
C714   C736    1.456   .     S
C715   C717    1.403   .     A
C716   H760    1.084   .     S
C716   C718    1.393   .     A
C717   C719    1.393   .     A
C717   H761    1.084   .     S
C718   C724    1.402   .     A
C718   C720    1.411   .     A
C719   C726    1.402   .     A
C719   C721    1.411   .     A
C720   C722    1.411   .     A
C720   C19     1.402   1_556 S
C721   C723    1.411   .     A
C722   C731    1.402   .     A
C723   C725    1.402   .     A
C724   H762    1.084   .     S
C724   C23     1.394   1_556 S
C725   H764    1.084   .     S
C726   H763    1.084   .     S
C727   N769    1.451   .     S
C727   H745    1.109   .     S
C727   H746    1.109   .     S
C727   H744    1.105   .     S
C728   H751    1.109   .     S
C728   H749    1.109   .     S
C728   N770    1.451   .     S
C728   H748    1.105   .     S
C729   N771    1.449   .     S
C729   H753    1.110   .     S
C729   H754    1.112   .     S
C729   H755    1.110   .     S
C730   H758    1.110   .     S
C730   H759    1.112   .     S
C730   H757    1.110   .     S
C730   N772    1.449   .     S
C731   H765    1.084   .     S
C731   C24     1.394   1_556 S
C732   N769    1.428   .     S
C732   C890    1.403   1_455 S
C733   N770    1.428   .     S
C733   C736    1.414   .     A
C733   C813    1.403   .     S
C734   C736    1.409   .     A
C734   N771    1.430   .     S
C734   C810    1.403   .     S
C735   N772    1.430   .     S
C735   C889    1.403   1_455 S
Cu737  Cu738   2.671   .     S
Cu737  O777    1.967   .     S
Cu737  N767    2.007   .     S
Cu737  O773    1.965   .     S
Cu737  O779    1.968   .     S
Cu737  O775    1.974   .     S
Cu738  N768    2.007   .     S
Cu738  O778    1.967   .     S
Cu738  O776    1.974   .     S
Cu738  O780    1.968   .     S
Cu738  O774    1.965   .     S
H743   N769    1.030   .     S
H747   N770    1.030   .     S
H752   N771    1.031   .     S
H756   N772    1.031   .     S
C781   O851    1.291   .     A
C781   O854    1.286   .     A
C781   C782    1.456   .     S
C782   C813    1.409   .     A
C782   C810    1.414   .     A
C783   H844    1.081   .     S
C783   N846    1.366   .     A
C783   C1254   1.414   1_545 S
C784   N845    1.366   .     A
C784   H818    1.081   .     S
C784   C1019   1.414   .     S
C785   H819    1.081   .     S
C785   N846    1.366   .     A
C785   C1252   1.414   1_545 S
C786   N845    1.366   .     A
C786   H820    1.081   .     S
C786   C1017   1.414   .     S
C787   O855    1.292   .     A
C787   O858    1.292   .     A
C787   C793    1.461   .     S
C788   O856    1.292   .     A
C788   O857    1.292   .     A
C788   C791    1.461   .     S
C789   C800    1.393   .     A
C789   H817    1.084   .     S
C789   C791    1.403   .     A
C790   C801    1.393   .     A
C790   H828    1.084   .     S
C790   C793    1.403   .     A
C791   C794    1.403   .     A
C792   O852    1.291   .     A
C792   O853    1.286   .     A
C792   C814    1.456   .     S
C793   C795    1.403   .     A
C794   H838    1.084   .     S
C794   C796    1.393   .     A
C795   C797    1.393   .     A
C795   H839    1.084   .     S
C796   C802    1.402   .     A
C796   C798    1.411   .     A
C797   C804    1.402   .     A
C797   C799    1.411   .     A
C798   C800    1.411   .     A
C798   C97     1.402   1_556 S
C799   C801    1.411   .     A
C800   C809    1.402   .     A
C801   C803    1.402   .     A
C802   H840    1.084   .     S
C802   C101    1.394   1_556 S
C803   H842    1.084   .     S
C804   H841    1.084   .     S
C805   N847    1.451   .     S
C805   H823    1.109   .     S
C805   H824    1.109   .     S
C805   H822    1.105   .     S
C806   H829    1.109   .     S
C806   H827    1.109   .     S
C806   N848    1.451   .     S
C806   H826    1.105   .     S
C807   N849    1.449   .     S
C807   H831    1.110   .     S
C807   H832    1.112   .     S
C807   H833    1.110   .     S
C808   H836    1.110   .     S
C808   H837    1.112   .     S
C808   H835    1.110   .     S
C808   N850    1.449   .     S
C809   H843    1.084   .     S
C809   C102    1.394   1_556 S
C810   N847    1.428   .     S
C811   N848    1.428   .     S
C811   C814    1.414   .     A
C811   C891    1.403   .     S
C812   C814    1.409   .     A
C812   N849    1.430   .     S
C812   C888    1.403   .     S
C813   N850    1.430   .     S
Cu815  Cu816   2.671   .     S
Cu815  O855    1.967   .     S
Cu815  N845    2.007   .     S
Cu815  O851    1.965   .     S
Cu815  O857    1.968   .     S
Cu815  O853    1.974   .     S
Cu816  N846    2.007   .     S
Cu816  O856    1.967   .     S
Cu816  O854    1.974   .     S
Cu816  O858    1.968   .     S
Cu816  O852    1.965   .     S
H821   N847    1.030   .     S
H825   N848    1.030   .     S
H830   N849    1.031   .     S
H834   N850    1.031   .     S
C859   O929    1.291   .     A
C859   O932    1.286   .     A
C859   C860    1.456   .     S
C860   C891    1.409   .     A
C860   C888    1.414   .     A
C861   H922    1.081   .     S
C861   N924    1.366   .     A
C861   C1332   1.414   1_545 S
C862   N923    1.366   .     A
C862   H896    1.081   .     S
C862   C1097   1.414   .     S
C863   H897    1.081   .     S
C863   N924    1.366   .     A
C863   C1330   1.414   1_545 S
C864   N923    1.366   .     A
C864   H898    1.081   .     S
C864   C1095   1.414   .     S
C865   O933    1.292   .     A
C865   O936    1.292   .     A
C865   C871    1.461   .     S
C866   O934    1.292   .     A
C866   O935    1.292   .     A
C866   C869    1.461   .     S
C867   C878    1.393   .     A
C867   H895    1.084   .     S
C867   C869    1.403   .     A
C868   C879    1.393   .     A
C868   H906    1.084   .     S
C868   C871    1.403   .     A
C869   C872    1.403   .     A
C870   O930    1.291   .     A
C870   O931    1.286   .     A
C870   C892    1.456   .     S
C871   C873    1.403   .     A
C872   H916    1.084   .     S
C872   C874    1.393   .     A
C873   C875    1.393   .     A
C873   H917    1.084   .     S
C874   C880    1.402   .     A
C874   C876    1.411   .     A
C875   C882    1.402   .     A
C875   C877    1.411   .     A
C876   C878    1.411   .     A
C876   C175    1.402   1_556 S
C877   C879    1.411   .     A
C878   C887    1.402   .     A
C879   C881    1.402   .     A
C880   H918    1.084   .     S
C880   C179    1.394   1_556 S
C881   H920    1.084   .     S
C882   H919    1.084   .     S
C883   N925    1.451   .     S
C883   H901    1.109   .     S
C883   H902    1.109   .     S
C883   H900    1.105   .     S
C884   H907    1.109   .     S
C884   H905    1.109   .     S
C884   N926    1.451   .     S
C884   H904    1.105   .     S
C885   N927    1.449   .     S
C885   H909    1.110   .     S
C885   H910    1.112   .     S
C885   H911    1.110   .     S
C886   H914    1.110   .     S
C886   H915    1.112   .     S
C886   H913    1.110   .     S
C886   N928    1.449   .     S
C887   H921    1.084   .     S
C887   C180    1.394   1_556 S
C888   N925    1.428   .     S
C889   N926    1.428   .     S
C889   C892    1.414   .     A
C889   C735    1.403   1_655 S
C890   C892    1.409   .     A
C890   N927    1.430   .     S
C890   C732    1.403   1_655 S
C891   N928    1.430   .     S
Cu893  Cu894   2.671   .     S
Cu893  O933    1.967   .     S
Cu893  N923    2.007   .     S
Cu893  O929    1.965   .     S
Cu893  O935    1.968   .     S
Cu893  O931    1.974   .     S
Cu894  N924    2.007   .     S
Cu894  O934    1.967   .     S
Cu894  O932    1.974   .     S
Cu894  O936    1.968   .     S
Cu894  O930    1.965   .     S
H899   N925    1.030   .     S
H903   N926    1.030   .     S
H908   N927    1.031   .     S
H912   N928    1.031   .     S
C937   O1007   1.291   .     A
C937   O1010   1.286   .     A
C937   C938    1.456   .     S
C938   C969    1.409   .     A
C938   C966    1.414   .     A
C939   H1000   1.081   .     S
C939   N1002   1.366   .     A
C940   N1001   1.366   .     A
C940   H974    1.081   .     S
C940   C1175   1.414   .     S
C941   H975    1.081   .     S
C941   N1002   1.366   .     A
C942   N1001   1.366   .     A
C942   H976    1.081   .     S
C942   C1173   1.414   .     S
C943   O1011   1.292   .     A
C943   O1014   1.292   .     A
C943   C949    1.461   .     S
C944   O1012   1.292   .     A
C944   O1013   1.292   .     A
C944   C947    1.461   .     S
C945   C956    1.393   .     A
C945   H973    1.084   .     S
C945   C947    1.403   .     A
C946   C957    1.393   .     A
C946   H984    1.084   .     S
C946   C949    1.403   .     A
C947   C950    1.403   .     A
C948   O1008   1.291   .     A
C948   O1009   1.286   .     A
C948   C970    1.456   .     S
C949   C951    1.403   .     A
C950   H994    1.084   .     S
C950   C952    1.393   .     A
C951   C953    1.393   .     A
C951   H995    1.084   .     S
C952   C958    1.402   .     A
C952   C954    1.411   .     A
C953   C960    1.402   .     A
C953   C955    1.411   .     A
C954   C956    1.411   .     A
C954   C253    1.402   1_556 S
C955   C957    1.411   .     A
C956   C965    1.402   .     A
C957   C959    1.402   .     A
C958   H996    1.084   .     S
C958   C257    1.394   1_556 S
C959   H998    1.084   .     S
C960   H997    1.084   .     S
C961   N1003   1.451   .     S
C961   H979    1.109   .     S
C961   H980    1.109   .     S
C961   H978    1.105   .     S
C962   H985    1.109   .     S
C962   H983    1.109   .     S
C962   N1004   1.451   .     S
C962   H982    1.105   .     S
C963   N1005   1.449   .     S
C963   H987    1.110   .     S
C963   H988    1.112   .     S
C963   H989    1.110   .     S
C964   H992    1.110   .     S
C964   H993    1.112   .     S
C964   H991    1.110   .     S
C964   N1006   1.449   .     S
C965   H999    1.084   .     S
C965   C258    1.394   1_556 S
C966   N1003   1.428   .     S
C966   C1124   1.403   1_455 S
C967   N1004   1.428   .     S
C967   C970    1.414   .     A
C967   C1047   1.403   .     S
C968   C970    1.409   .     A
C968   N1005   1.430   .     S
C968   C1044   1.403   .     S
C969   N1006   1.430   .     S
C969   C1123   1.403   1_455 S
Cu971  Cu972   2.671   .     S
Cu971  O1011   1.967   .     S
Cu971  N1001   2.007   .     S
Cu971  O1007   1.965   .     S
Cu971  O1013   1.968   .     S
Cu971  O1009   1.974   .     S
Cu972  N1002   2.007   .     S
Cu972  O1012   1.967   .     S
Cu972  O1010   1.974   .     S
Cu972  O1014   1.968   .     S
Cu972  O1008   1.965   .     S
H977   N1003   1.030   .     S
H981   N1004   1.030   .     S
H986   N1005   1.031   .     S
H990   N1006   1.031   .     S
C1015  O1085   1.291   .     A
C1015  O1088   1.286   .     A
C1015  C1016   1.456   .     S
C1016  C1047   1.409   .     A
C1016  C1044   1.414   .     A
C1017  H1078   1.081   .     S
C1017  N1080   1.366   .     A
C1018  N1079   1.366   .     A
C1018  H1052   1.081   .     S
C1018  C1253   1.414   .     S
C1019  H1053   1.081   .     S
C1019  N1080   1.366   .     A
C1020  N1079   1.366   .     A
C1020  H1054   1.081   .     S
C1020  C1251   1.414   .     S
C1021  O1089   1.292   .     A
C1021  O1092   1.292   .     A
C1021  C1027   1.461   .     S
C1022  O1090   1.292   .     A
C1022  O1091   1.292   .     A
C1022  C1025   1.461   .     S
C1023  C1034   1.393   .     A
C1023  H1051   1.084   .     S
C1023  C1025   1.403   .     A
C1024  C1035   1.393   .     A
C1024  H1062   1.084   .     S
C1024  C1027   1.403   .     A
C1025  C1028   1.403   .     A
C1026  O1086   1.291   .     A
C1026  O1087   1.286   .     A
C1026  C1048   1.456   .     S
C1027  C1029   1.403   .     A
C1028  H1072   1.084   .     S
C1028  C1030   1.393   .     A
C1029  C1031   1.393   .     A
C1029  H1073   1.084   .     S
C1030  C1036   1.402   .     A
C1030  C1032   1.411   .     A
C1031  C1038   1.402   .     A
C1031  C1033   1.411   .     A
C1032  C1034   1.411   .     A
C1032  C331    1.402   1_556 S
C1033  C1035   1.411   .     A
C1034  C1043   1.402   .     A
C1035  C1037   1.402   .     A
C1036  H1074   1.084   .     S
C1036  C335    1.394   1_556 S
C1037  H1076   1.084   .     S
C1038  H1075   1.084   .     S
C1039  N1081   1.451   .     S
C1039  H1057   1.109   .     S
C1039  H1058   1.109   .     S
C1039  H1056   1.105   .     S
C1040  H1063   1.109   .     S
C1040  H1061   1.109   .     S
C1040  N1082   1.451   .     S
C1040  H1060   1.105   .     S
C1041  N1083   1.449   .     S
C1041  H1065   1.110   .     S
C1041  H1066   1.112   .     S
C1041  H1067   1.110   .     S
C1042  H1070   1.110   .     S
C1042  H1071   1.112   .     S
C1042  H1069   1.110   .     S
C1042  N1084   1.449   .     S
C1043  H1077   1.084   .     S
C1043  C336    1.394   1_556 S
C1044  N1081   1.428   .     S
C1045  N1082   1.428   .     S
C1045  C1048   1.414   .     A
C1045  C1125   1.403   .     S
C1046  C1048   1.409   .     A
C1046  N1083   1.430   .     S
C1046  C1122   1.403   .     S
C1047  N1084   1.430   .     S
Cu1049 Cu1050  2.671   .     S
Cu1049 O1089   1.967   .     S
Cu1049 N1079   2.007   .     S
Cu1049 O1085   1.965   .     S
Cu1049 O1091   1.968   .     S
Cu1049 O1087   1.974   .     S
Cu1050 N1080   2.007   .     S
Cu1050 O1090   1.967   .     S
Cu1050 O1088   1.974   .     S
Cu1050 O1092   1.968   .     S
Cu1050 O1086   1.965   .     S
H1055  N1081   1.030   .     S
H1059  N1082   1.030   .     S
H1064  N1083   1.031   .     S
H1068  N1084   1.031   .     S
C1093  O1163   1.291   .     A
C1093  O1166   1.286   .     A
C1093  C1094   1.456   .     S
C1094  C1125   1.409   .     A
C1094  C1122   1.414   .     A
C1095  H1156   1.081   .     S
C1095  N1158   1.366   .     A
C1096  N1157   1.366   .     A
C1096  H1130   1.081   .     S
C1096  C1331   1.414   .     S
C1097  H1131   1.081   .     S
C1097  N1158   1.366   .     A
C1098  N1157   1.366   .     A
C1098  H1132   1.081   .     S
C1098  C1329   1.414   .     S
C1099  O1167   1.292   .     A
C1099  O1170   1.292   .     A
C1099  C1105   1.461   .     S
C1100  O1168   1.292   .     A
C1100  O1169   1.292   .     A
C1100  C1103   1.461   .     S
C1101  C1112   1.393   .     A
C1101  H1129   1.084   .     S
C1101  C1103   1.403   .     A
C1102  C1113   1.393   .     A
C1102  H1140   1.084   .     S
C1102  C1105   1.403   .     A
C1103  C1106   1.403   .     A
C1104  O1164   1.291   .     A
C1104  O1165   1.286   .     A
C1104  C1126   1.456   .     S
C1105  C1107   1.403   .     A
C1106  H1150   1.084   .     S
C1106  C1108   1.393   .     A
C1107  C1109   1.393   .     A
C1107  H1151   1.084   .     S
C1108  C1114   1.402   .     A
C1108  C1110   1.411   .     A
C1109  C1116   1.402   .     A
C1109  C1111   1.411   .     A
C1110  C1112   1.411   .     A
C1110  C409    1.402   1_556 S
C1111  C1113   1.411   .     A
C1112  C1121   1.402   .     A
C1113  C1115   1.402   .     A
C1114  H1152   1.084   .     S
C1114  C413    1.394   1_556 S
C1115  H1154   1.084   .     S
C1116  H1153   1.084   .     S
C1117  N1159   1.451   .     S
C1117  H1135   1.109   .     S
C1117  H1136   1.109   .     S
C1117  H1134   1.105   .     S
C1118  H1141   1.109   .     S
C1118  H1139   1.109   .     S
C1118  N1160   1.451   .     S
C1118  H1138   1.105   .     S
C1119  N1161   1.449   .     S
C1119  H1143   1.110   .     S
C1119  H1144   1.112   .     S
C1119  H1145   1.110   .     S
C1120  H1148   1.110   .     S
C1120  H1149   1.112   .     S
C1120  H1147   1.110   .     S
C1120  N1162   1.449   .     S
C1121  H1155   1.084   .     S
C1121  C414    1.394   1_556 S
C1122  N1159   1.428   .     S
C1123  N1160   1.428   .     S
C1123  C1126   1.414   .     A
C1123  C969    1.403   1_655 S
C1124  C1126   1.409   .     A
C1124  N1161   1.430   .     S
C1124  C966    1.403   1_655 S
C1125  N1162   1.430   .     S
Cu1127 Cu1128  2.671   .     S
Cu1127 O1167   1.967   .     S
Cu1127 N1157   2.007   .     S
Cu1127 O1163   1.965   .     S
Cu1127 O1169   1.968   .     S
Cu1127 O1165   1.974   .     S
Cu1128 N1158   2.007   .     S
Cu1128 O1168   1.967   .     S
Cu1128 O1166   1.974   .     S
Cu1128 O1170   1.968   .     S
Cu1128 O1164   1.965   .     S
H1133  N1159   1.030   .     S
H1137  N1160   1.030   .     S
H1142  N1161   1.031   .     S
H1146  N1162   1.031   .     S
C1171  O1241   1.291   .     A
C1171  O1244   1.286   .     A
C1171  C1172   1.456   .     S
C1172  C1203   1.409   .     A
C1172  C1200   1.414   .     A
C1173  H1234   1.081   .     S
C1173  N1236   1.366   .     A
C1174  N1235   1.366   .     A
C1174  H1208   1.081   .     S
C1174  C707    1.414   1_565 S
C1175  H1209   1.081   .     S
C1175  N1236   1.366   .     A
C1176  N1235   1.366   .     A
C1176  H1210   1.081   .     S
C1176  C705    1.414   1_565 S
C1177  O1245   1.292   .     A
C1177  O1248   1.292   .     A
C1177  C1183   1.461   .     S
C1178  O1246   1.292   .     A
C1178  O1247   1.292   .     A
C1178  C1181   1.461   .     S
C1179  C1190   1.393   .     A
C1179  H1207   1.084   .     S
C1179  C1181   1.403   .     A
C1180  C1191   1.393   .     A
C1180  H1218   1.084   .     S
C1180  C1183   1.403   .     A
C1181  C1184   1.403   .     A
C1182  O1242   1.291   .     A
C1182  O1243   1.286   .     A
C1182  C1204   1.456   .     S
C1183  C1185   1.403   .     A
C1184  H1228   1.084   .     S
C1184  C1186   1.393   .     A
C1185  C1187   1.393   .     A
C1185  H1229   1.084   .     S
C1186  C1192   1.402   .     A
C1186  C1188   1.411   .     A
C1187  C1194   1.402   .     A
C1187  C1189   1.411   .     A
C1188  C1190   1.411   .     A
C1188  C487    1.402   1_556 S
C1189  C1191   1.411   .     A
C1190  C1199   1.402   .     A
C1191  C1193   1.402   .     A
C1192  H1230   1.084   .     S
C1192  C491    1.394   1_556 S
C1193  H1232   1.084   .     S
C1194  H1231   1.084   .     S
C1195  N1237   1.451   .     S
C1195  H1213   1.109   .     S
C1195  H1214   1.109   .     S
C1195  H1212   1.105   .     S
C1196  H1219   1.109   .     S
C1196  H1217   1.109   .     S
C1196  N1238   1.451   .     S
C1196  H1216   1.105   .     S
C1197  N1239   1.449   .     S
C1197  H1221   1.110   .     S
C1197  H1222   1.112   .     S
C1197  H1223   1.110   .     S
C1198  H1226   1.110   .     S
C1198  H1227   1.112   .     S
C1198  H1225   1.110   .     S
C1198  N1240   1.449   .     S
C1199  H1233   1.084   .     S
C1199  C492    1.394   1_556 S
C1200  N1237   1.428   .     S
C1200  C1358   1.403   1_455 S
C1201  N1238   1.428   .     S
C1201  C1204   1.414   .     A
C1201  C1281   1.403   .     S
C1202  C1204   1.409   .     A
C1202  N1239   1.430   .     S
C1202  C1278   1.403   .     S
C1203  N1240   1.430   .     S
C1203  C1357   1.403   1_455 S
Cu1205 Cu1206  2.671   .     S
Cu1205 O1245   1.967   .     S
Cu1205 N1235   2.007   .     S
Cu1205 O1241   1.965   .     S
Cu1205 O1247   1.968   .     S
Cu1205 O1243   1.974   .     S
Cu1206 N1236   2.007   .     S
Cu1206 O1246   1.967   .     S
Cu1206 O1244   1.974   .     S
Cu1206 O1248   1.968   .     S
Cu1206 O1242   1.965   .     S
H1211  N1237   1.030   .     S
H1215  N1238   1.030   .     S
H1220  N1239   1.031   .     S
H1224  N1240   1.031   .     S
C1249  O1319   1.291   .     A
C1249  O1322   1.286   .     A
C1249  C1250   1.456   .     S
C1250  C1281   1.409   .     A
C1250  C1278   1.414   .     A
C1251  H1312   1.081   .     S
C1251  N1314   1.366   .     A
C1252  N1313   1.366   .     A
C1252  H1286   1.081   .     S
C1252  C785    1.414   1_565 S
C1253  H1287   1.081   .     S
C1253  N1314   1.366   .     A
C1254  N1313   1.366   .     A
C1254  H1288   1.081   .     S
C1254  C783    1.414   1_565 S
C1255  O1323   1.292   .     A
C1255  O1326   1.292   .     A
C1255  C1261   1.461   .     S
C1256  O1324   1.292   .     A
C1256  O1325   1.292   .     A
C1256  C1259   1.461   .     S
C1257  C1268   1.393   .     A
C1257  H1285   1.084   .     S
C1257  C1259   1.403   .     A
C1258  C1269   1.393   .     A
C1258  H1296   1.084   .     S
C1258  C1261   1.403   .     A
C1259  C1262   1.403   .     A
C1260  O1320   1.291   .     A
C1260  O1321   1.286   .     A
C1260  C1282   1.456   .     S
C1261  C1263   1.403   .     A
C1262  H1306   1.084   .     S
C1262  C1264   1.393   .     A
C1263  C1265   1.393   .     A
C1263  H1307   1.084   .     S
C1264  C1270   1.402   .     A
C1264  C1266   1.411   .     A
C1265  C1272   1.402   .     A
C1265  C1267   1.411   .     A
C1266  C1268   1.411   .     A
C1266  C565    1.402   1_556 S
C1267  C1269   1.411   .     A
C1268  C1277   1.402   .     A
C1269  C1271   1.402   .     A
C1270  H1308   1.084   .     S
C1270  C569    1.394   1_556 S
C1271  H1310   1.084   .     S
C1272  H1309   1.084   .     S
C1273  N1315   1.451   .     S
C1273  H1291   1.109   .     S
C1273  H1292   1.109   .     S
C1273  H1290   1.105   .     S
C1274  H1297   1.109   .     S
C1274  H1295   1.109   .     S
C1274  N1316   1.451   .     S
C1274  H1294   1.105   .     S
C1275  N1317   1.449   .     S
C1275  H1299   1.110   .     S
C1275  H1300   1.112   .     S
C1275  H1301   1.110   .     S
C1276  H1304   1.110   .     S
C1276  H1305   1.112   .     S
C1276  H1303   1.110   .     S
C1276  N1318   1.449   .     S
C1277  H1311   1.084   .     S
C1277  C570    1.394   1_556 S
C1278  N1315   1.428   .     S
C1279  N1316   1.428   .     S
C1279  C1282   1.414   .     A
C1279  C1359   1.403   .     S
C1280  C1282   1.409   .     A
C1280  N1317   1.430   .     S
C1280  C1356   1.403   .     S
C1281  N1318   1.430   .     S
Cu1283 Cu1284  2.671   .     S
Cu1283 O1323   1.967   .     S
Cu1283 N1313   2.007   .     S
Cu1283 O1319   1.965   .     S
Cu1283 O1325   1.968   .     S
Cu1283 O1321   1.974   .     S
Cu1284 N1314   2.007   .     S
Cu1284 O1324   1.967   .     S
Cu1284 O1322   1.974   .     S
Cu1284 O1326   1.968   .     S
Cu1284 O1320   1.965   .     S
H1289  N1315   1.030   .     S
H1293  N1316   1.030   .     S
H1298  N1317   1.031   .     S
H1302  N1318   1.031   .     S
C1327  O1397   1.291   .     A
C1327  O1400   1.286   .     A
C1327  C1328   1.456   .     S
C1328  C1359   1.409   .     A
C1328  C1356   1.414   .     A
C1329  H1390   1.081   .     S
C1329  N1392   1.366   .     A
C1330  N1391   1.366   .     A
C1330  H1364   1.081   .     S
C1330  C863    1.414   1_565 S
C1331  H1365   1.081   .     S
C1331  N1392   1.366   .     A
C1332  N1391   1.366   .     A
C1332  H1366   1.081   .     S
C1332  C861    1.414   1_565 S
C1333  O1401   1.292   .     A
C1333  O1404   1.292   .     A
C1333  C1339   1.461   .     S
C1334  O1402   1.292   .     A
C1334  O1403   1.292   .     A
C1334  C1337   1.461   .     S
C1335  C1346   1.393   .     A
C1335  H1363   1.084   .     S
C1335  C1337   1.403   .     A
C1336  C1347   1.393   .     A
C1336  H1374   1.084   .     S
C1336  C1339   1.403   .     A
C1337  C1340   1.403   .     A
C1338  O1398   1.291   .     A
C1338  O1399   1.286   .     A
C1338  C1360   1.456   .     S
C1339  C1341   1.403   .     A
C1340  H1384   1.084   .     S
C1340  C1342   1.393   .     A
C1341  C1343   1.393   .     A
C1341  H1385   1.084   .     S
C1342  C1348   1.402   .     A
C1342  C1344   1.411   .     A
C1343  C1350   1.402   .     A
C1343  C1345   1.411   .     A
C1344  C1346   1.411   .     A
C1344  C643    1.402   1_556 S
C1345  C1347   1.411   .     A
C1346  C1355   1.402   .     A
C1347  C1349   1.402   .     A
C1348  H1386   1.084   .     S
C1348  C647    1.394   1_556 S
C1349  H1388   1.084   .     S
C1350  H1387   1.084   .     S
C1351  N1393   1.451   .     S
C1351  H1369   1.109   .     S
C1351  H1370   1.109   .     S
C1351  H1368   1.105   .     S
C1352  H1375   1.109   .     S
C1352  H1373   1.109   .     S
C1352  N1394   1.451   .     S
C1352  H1372   1.105   .     S
C1353  N1395   1.449   .     S
C1353  H1377   1.110   .     S
C1353  H1378   1.112   .     S
C1353  H1379   1.110   .     S
C1354  H1382   1.110   .     S
C1354  H1383   1.112   .     S
C1354  H1381   1.110   .     S
C1354  N1396   1.449   .     S
C1355  H1389   1.084   .     S
C1355  C648    1.394   1_556 S
C1356  N1393   1.428   .     S
C1357  N1394   1.428   .     S
C1357  C1360   1.414   .     A
C1357  C1203   1.403   1_655 S
C1358  C1360   1.409   .     A
C1358  N1395   1.430   .     S
C1358  C1200   1.403   1_655 S
C1359  N1396   1.430   .     S
Cu1361 Cu1362  2.671   .     S
Cu1361 O1401   1.967   .     S
Cu1361 N1391   2.007   .     S
Cu1361 O1397   1.965   .     S
Cu1361 O1403   1.968   .     S
Cu1361 O1399   1.974   .     S
Cu1362 N1392   2.007   .     S
Cu1362 O1402   1.967   .     S
Cu1362 O1400   1.974   .     S
Cu1362 O1404   1.968   .     S
Cu1362 O1398   1.965   .     S
H1367  N1393   1.030   .     S
H1371  N1394   1.030   .     S
H1376  N1395   1.031   .     S
H1380  N1396   1.031   .     S
