data_str_m2_o1_o2_pcu_sym.97
_audit_creation_date              2020-01-03
_audit_creation_method            'Materials Studio'
_symmetry_space_group_name_H-M    'P1'
_symmetry_Int_Tables_number       1
_symmetry_cell_setting            triclinic
loop_
_symmetry_equiv_pos_as_xyz
  x,y,z
_cell_length_a                    32.7028
_cell_length_b                    28.7948
_cell_length_c                    30.4821
_cell_angle_alpha                 90.0447
_cell_angle_beta                  93.4503
_cell_angle_gamma                 88.4711
loop_
_atom_site_label
_atom_site_type_symbol
_atom_site_fract_x
_atom_site_fract_y
_atom_site_fract_z
_atom_site_U_iso_or_equiv
_atom_site_adp_type
_atom_site_occupancy
C1     C     0.08757   0.16747   0.25287   0.00000  Uiso   1.00
C2     C     0.31030   0.20509   0.23189   0.00000  Uiso   1.00
C3     C     0.31428   0.12429   0.25785   0.00000  Uiso   1.00
C4     C     0.01905   0.20905   0.24213   0.00000  Uiso   1.00
C5     C     0.18096   0.20638   0.04926   0.00000  Uiso   1.00
C6     C     0.15237   0.12695   0.45074   0.00000  Uiso   1.00
C7     C     0.16107   0.20955   0.45139   0.00000  Uiso   1.00
C8     C     0.17226   0.12378   0.04861   0.00000  Uiso   1.00
C9     C     0.17892   0.20689   0.09469   0.00000  Uiso   1.00
C10    C     0.15441   0.12644   0.40531   0.00000  Uiso   1.00
C11    C     0.16320   0.20938   0.40601   0.00000  Uiso   1.00
C12    C     0.24576   0.16587   0.24713   0.00000  Uiso   1.00
C13    C     0.17013   0.12396   0.09399   0.00000  Uiso   1.00
C14    C     0.17092   0.16604   0.11729   0.00000  Uiso   1.00
C15    C     0.16241   0.16729   0.38271   0.00000  Uiso   1.00
C16    C     0.17100   0.16599   0.02465   0.00000  Uiso   1.00
C17    C     0.16233   0.16734   0.47535   0.00000  Uiso   1.00
C18    C     0.29060   0.16413   0.24349   0.00000  Uiso   1.00
C19    C     0.04273   0.16921   0.25650   0.00000  Uiso   1.00
C20    C     0.10584   0.05071   0.19715   0.00000  Uiso   1.00
C21    C     0.22750   0.28263   0.30285   0.00000  Uiso   1.00
C22    C     0.21494   0.04777   0.31608   0.00000  Uiso   1.00
C23    C     0.16773   0.16655   0.16517   0.00000  Uiso   1.00
C24    C     0.11840   0.28556   0.18391   0.00000  Uiso   1.00
C25    C     0.04573   0.08994   0.29291   0.00000  Uiso   1.00
C26    C     0.28760   0.24339   0.20709   0.00000  Uiso   1.00
C27    C     0.29641   0.07763   0.26111   0.00000  Uiso   1.00
C28    C     0.03693   0.25570   0.23885   0.00000  Uiso   1.00
C29    C     0.16561   0.16678   0.33483   0.00000  Uiso   1.00
C30    C     0.13983   0.02554   0.22226   0.00000  Uiso   1.00
C31    C     0.19350   0.30779   0.27774   0.00000  Uiso   1.00
C32    C     0.19191   0.02404   0.27942   0.00000  Uiso   1.00
C33    C     0.14142   0.30929   0.22058   0.00000  Uiso   1.00
C34    C     0.02303   0.12825   0.26810   0.00000  Uiso   1.00
Cu35   Cu    0.16667   0.21355   0.25000   0.00000  Uiso   1.00
Cu36   Cu    0.16667   0.11978   0.25000   0.00000  Uiso   1.00
F37    F     0.19807   0.24359   0.03118   0.00000  Uiso   1.00
F38    F     0.13526   0.08974   0.46882   0.00000  Uiso   1.00
F39    F     0.15234   0.25106   0.47007   0.00000  Uiso   1.00
F40    F     0.18099   0.08227   0.02993   0.00000  Uiso   1.00
F41    F     0.18715   0.24704   0.11647   0.00000  Uiso   1.00
F42    F     0.14619   0.08629   0.38353   0.00000  Uiso   1.00
F43    F     0.16430   0.25092   0.38509   0.00000  Uiso   1.00
F44    F     0.16903   0.08241   0.11491   0.00000  Uiso   1.00
H45    H     0.11079   0.08104   0.17785   0.00000  Uiso   1.00
H46    H     0.22254   0.25230   0.32215   0.00000  Uiso   1.00
H47    H     0.22907   0.08052   0.31169   0.00000  Uiso   1.00
H48    H     0.10427   0.25281   0.18830   0.00000  Uiso   1.00
H49    H     0.03962   0.05386   0.28541   0.00000  Uiso   1.00
H50    H     0.29371   0.27948   0.21459   0.00000  Uiso   1.00
H51    H     0.30059   0.05788   0.29142   0.00000  Uiso   1.00
H52    H     0.03273   0.27543   0.20853   0.00000  Uiso   1.00
N53    N     0.16667   0.28402   0.25000   0.00000  Uiso   1.00
N54    N     0.16667   0.04931   0.25000   0.00000  Uiso   1.00
O55    O     0.10655   0.20625   0.25000   0.00000  Uiso   1.00
O56    O     0.26255   0.29607   0.30193   0.00000  Uiso   1.00
O57    O     0.21764   0.03088   0.35293   0.00000  Uiso   1.00
O58    O     0.11570   0.30245   0.14707   0.00000  Uiso   1.00
O59    O     0.07064   0.09865   0.32304   0.00000  Uiso   1.00
O60    O     0.26269   0.23468   0.17695   0.00000  Uiso   1.00
O61    O     0.27887   0.05996   0.22903   0.00000  Uiso   1.00
O62    O     0.05448   0.27339   0.27091   0.00000  Uiso   1.00
O63    O     0.22679   0.12709   0.25001   0.00000  Uiso   1.00
O64    O     0.22679   0.20625   0.25001   0.00000  Uiso   1.00
O65    O     0.10655   0.12709   0.25000   0.00000  Uiso   1.00
O66    O     0.16666   0.20626   0.18573   0.00000  Uiso   1.00
O67    O     0.16667   0.12707   0.31427   0.00000  Uiso   1.00
O68    O     0.16667   0.20626   0.31427   0.00000  Uiso   1.00
O69    O     0.16666   0.12707   0.18573   0.00000  Uiso   1.00
O70    O     0.07079   0.03725   0.19806   0.00000  Uiso   1.00
C71    C     0.42091   0.16747   0.25287   0.00000  Uiso   1.00
C72    C     0.64363   0.20509   0.23189   0.00000  Uiso   1.00
C73    C     0.64762   0.12429   0.25785   0.00000  Uiso   1.00
C74    C     0.35238   0.20905   0.24213   0.00000  Uiso   1.00
C75    C     0.51429   0.20638   0.04926   0.00000  Uiso   1.00
C76    C     0.48570   0.12695   0.45074   0.00000  Uiso   1.00
C77    C     0.49440   0.20955   0.45139   0.00000  Uiso   1.00
C78    C     0.50560   0.12378   0.04861   0.00000  Uiso   1.00
C79    C     0.51226   0.20689   0.09469   0.00000  Uiso   1.00
C80    C     0.48774   0.12644   0.40531   0.00000  Uiso   1.00
C81    C     0.49653   0.20938   0.40601   0.00000  Uiso   1.00
C82    C     0.57909   0.16587   0.24713   0.00000  Uiso   1.00
C83    C     0.50346   0.12396   0.09399   0.00000  Uiso   1.00
C84    C     0.50425   0.16604   0.11729   0.00000  Uiso   1.00
C85    C     0.49575   0.16729   0.38271   0.00000  Uiso   1.00
C86    C     0.50434   0.16599   0.02465   0.00000  Uiso   1.00
C87    C     0.49566   0.16734   0.47535   0.00000  Uiso   1.00
C88    C     0.62393   0.16413   0.24349   0.00000  Uiso   1.00
C89    C     0.37607   0.16921   0.25650   0.00000  Uiso   1.00
C90    C     0.43917   0.05071   0.19715   0.00000  Uiso   1.00
C91    C     0.56083   0.28263   0.30285   0.00000  Uiso   1.00
C92    C     0.54827   0.04777   0.31608   0.00000  Uiso   1.00
C93    C     0.50106   0.16655   0.16517   0.00000  Uiso   1.00
C94    C     0.45173   0.28556   0.18391   0.00000  Uiso   1.00
C95    C     0.37906   0.08994   0.29291   0.00000  Uiso   1.00
C96    C     0.62094   0.24339   0.20709   0.00000  Uiso   1.00
C97    C     0.62974   0.07763   0.26111   0.00000  Uiso   1.00
C98    C     0.37026   0.25570   0.23885   0.00000  Uiso   1.00
C99    C     0.49894   0.16678   0.33483   0.00000  Uiso   1.00
C100   C     0.47317   0.02554   0.22226   0.00000  Uiso   1.00
C101   C     0.52683   0.30779   0.27774   0.00000  Uiso   1.00
C102   C     0.52525   0.02404   0.27942   0.00000  Uiso   1.00
C103   C     0.47476   0.30929   0.22058   0.00000  Uiso   1.00
C104   C     0.35636   0.12825   0.26810   0.00000  Uiso   1.00
Cu105  Cu    0.50000   0.21355   0.25000   0.00000  Uiso   1.00
Cu106  Cu    0.50000   0.11978   0.25000   0.00000  Uiso   1.00
F107   F     0.53141   0.24359   0.03118   0.00000  Uiso   1.00
F108   F     0.46859   0.08974   0.46882   0.00000  Uiso   1.00
F109   F     0.48567   0.25106   0.47007   0.00000  Uiso   1.00
F110   F     0.51432   0.08227   0.02993   0.00000  Uiso   1.00
F111   F     0.52048   0.24704   0.11647   0.00000  Uiso   1.00
F112   F     0.47952   0.08629   0.38353   0.00000  Uiso   1.00
F113   F     0.49764   0.25092   0.38509   0.00000  Uiso   1.00
F114   F     0.50236   0.08241   0.11491   0.00000  Uiso   1.00
H115   H     0.44412   0.08104   0.17785   0.00000  Uiso   1.00
H116   H     0.55587   0.25230   0.32215   0.00000  Uiso   1.00
H117   H     0.56240   0.08052   0.31169   0.00000  Uiso   1.00
H118   H     0.43760   0.25281   0.18830   0.00000  Uiso   1.00
H119   H     0.37295   0.05386   0.28541   0.00000  Uiso   1.00
H120   H     0.62704   0.27948   0.21459   0.00000  Uiso   1.00
H121   H     0.63393   0.05788   0.29142   0.00000  Uiso   1.00
H122   H     0.36607   0.27543   0.20853   0.00000  Uiso   1.00
N123   N     0.50000   0.28402   0.25000   0.00000  Uiso   1.00
N124   N     0.50000   0.04931   0.25000   0.00000  Uiso   1.00
O125   O     0.43988   0.20625   0.25000   0.00000  Uiso   1.00
O126   O     0.59588   0.29607   0.30193   0.00000  Uiso   1.00
O127   O     0.55097   0.03088   0.35293   0.00000  Uiso   1.00
O128   O     0.44904   0.30245   0.14707   0.00000  Uiso   1.00
O129   O     0.40397   0.09865   0.32304   0.00000  Uiso   1.00
O130   O     0.59602   0.23468   0.17695   0.00000  Uiso   1.00
O131   O     0.61220   0.05996   0.22903   0.00000  Uiso   1.00
O132   O     0.38781   0.27339   0.27091   0.00000  Uiso   1.00
O133   O     0.56012   0.12709   0.25001   0.00000  Uiso   1.00
O134   O     0.56012   0.20625   0.25001   0.00000  Uiso   1.00
O135   O     0.43988   0.12709   0.25000   0.00000  Uiso   1.00
O136   O     0.50000   0.20626   0.18573   0.00000  Uiso   1.00
O137   O     0.50000   0.12707   0.31427   0.00000  Uiso   1.00
O138   O     0.50000   0.20626   0.31427   0.00000  Uiso   1.00
O139   O     0.50000   0.12707   0.18573   0.00000  Uiso   1.00
O140   O     0.40412   0.03725   0.19806   0.00000  Uiso   1.00
C141   C     0.75424   0.16747   0.25287   0.00000  Uiso   1.00
C142   C     0.97697   0.20509   0.23189   0.00000  Uiso   1.00
C143   C     0.98095   0.12429   0.25785   0.00000  Uiso   1.00
C144   C     0.68572   0.20905   0.24213   0.00000  Uiso   1.00
C145   C     0.84763   0.20638   0.04926   0.00000  Uiso   1.00
C146   C     0.81904   0.12695   0.45074   0.00000  Uiso   1.00
C147   C     0.82773   0.20955   0.45139   0.00000  Uiso   1.00
C148   C     0.83893   0.12378   0.04861   0.00000  Uiso   1.00
C149   C     0.84559   0.20689   0.09469   0.00000  Uiso   1.00
C150   C     0.82108   0.12644   0.40531   0.00000  Uiso   1.00
C151   C     0.82987   0.20938   0.40601   0.00000  Uiso   1.00
C152   C     0.91242   0.16587   0.24713   0.00000  Uiso   1.00
C153   C     0.83680   0.12396   0.09399   0.00000  Uiso   1.00
C154   C     0.83758   0.16604   0.11729   0.00000  Uiso   1.00
C155   C     0.82908   0.16729   0.38271   0.00000  Uiso   1.00
C156   C     0.83767   0.16599   0.02465   0.00000  Uiso   1.00
C157   C     0.82900   0.16734   0.47535   0.00000  Uiso   1.00
C158   C     0.95726   0.16413   0.24349   0.00000  Uiso   1.00
C159   C     0.70940   0.16921   0.25650   0.00000  Uiso   1.00
C160   C     0.77250   0.05071   0.19715   0.00000  Uiso   1.00
C161   C     0.89416   0.28263   0.30285   0.00000  Uiso   1.00
C162   C     0.88160   0.04777   0.31608   0.00000  Uiso   1.00
C163   C     0.83439   0.16655   0.16517   0.00000  Uiso   1.00
C164   C     0.78507   0.28556   0.18391   0.00000  Uiso   1.00
C165   C     0.71239   0.08994   0.29291   0.00000  Uiso   1.00
C166   C     0.95427   0.24339   0.20709   0.00000  Uiso   1.00
C167   C     0.96307   0.07763   0.26111   0.00000  Uiso   1.00
C168   C     0.70359   0.25570   0.23885   0.00000  Uiso   1.00
C169   C     0.83227   0.16678   0.33483   0.00000  Uiso   1.00
C170   C     0.80650   0.02554   0.22226   0.00000  Uiso   1.00
C171   C     0.86017   0.30779   0.27774   0.00000  Uiso   1.00
C172   C     0.85858   0.02404   0.27942   0.00000  Uiso   1.00
C173   C     0.80809   0.30929   0.22058   0.00000  Uiso   1.00
C174   C     0.68970   0.12825   0.26810   0.00000  Uiso   1.00
Cu175  Cu    0.83333   0.21355   0.25000   0.00000  Uiso   1.00
Cu176  Cu    0.83333   0.11978   0.25000   0.00000  Uiso   1.00
F177   F     0.86474   0.24359   0.03118   0.00000  Uiso   1.00
F178   F     0.80192   0.08974   0.46882   0.00000  Uiso   1.00
F179   F     0.81901   0.25106   0.47007   0.00000  Uiso   1.00
F180   F     0.84766   0.08227   0.02993   0.00000  Uiso   1.00
F181   F     0.85381   0.24704   0.11647   0.00000  Uiso   1.00
F182   F     0.81285   0.08629   0.38353   0.00000  Uiso   1.00
F183   F     0.83097   0.25092   0.38509   0.00000  Uiso   1.00
F184   F     0.83570   0.08241   0.11491   0.00000  Uiso   1.00
H185   H     0.77746   0.08104   0.17785   0.00000  Uiso   1.00
H186   H     0.88921   0.25230   0.32215   0.00000  Uiso   1.00
H187   H     0.89574   0.08052   0.31169   0.00000  Uiso   1.00
H188   H     0.77093   0.25281   0.18830   0.00000  Uiso   1.00
H189   H     0.70629   0.05386   0.28541   0.00000  Uiso   1.00
H190   H     0.96038   0.27948   0.21459   0.00000  Uiso   1.00
H191   H     0.96726   0.05788   0.29142   0.00000  Uiso   1.00
H192   H     0.69940   0.27543   0.20853   0.00000  Uiso   1.00
N193   N     0.83333   0.28402   0.25000   0.00000  Uiso   1.00
N194   N     0.83333   0.04931   0.25000   0.00000  Uiso   1.00
O195   O     0.77321   0.20625   0.25000   0.00000  Uiso   1.00
O196   O     0.92921   0.29607   0.30193   0.00000  Uiso   1.00
O197   O     0.88431   0.03088   0.35293   0.00000  Uiso   1.00
O198   O     0.78237   0.30245   0.14707   0.00000  Uiso   1.00
O199   O     0.73731   0.09865   0.32304   0.00000  Uiso   1.00
O200   O     0.92935   0.23468   0.17695   0.00000  Uiso   1.00
O201   O     0.94553   0.05996   0.22903   0.00000  Uiso   1.00
O202   O     0.72115   0.27339   0.27091   0.00000  Uiso   1.00
O203   O     0.89345   0.12709   0.25001   0.00000  Uiso   1.00
O204   O     0.89345   0.20625   0.25001   0.00000  Uiso   1.00
O205   O     0.77321   0.12709   0.25000   0.00000  Uiso   1.00
O206   O     0.83333   0.20626   0.18573   0.00000  Uiso   1.00
O207   O     0.83334   0.12707   0.31427   0.00000  Uiso   1.00
O208   O     0.83334   0.20626   0.31427   0.00000  Uiso   1.00
O209   O     0.83333   0.12707   0.18573   0.00000  Uiso   1.00
O210   O     0.73746   0.03725   0.19806   0.00000  Uiso   1.00
C211   C     0.08757   0.50080   0.25287   0.00000  Uiso   1.00
C212   C     0.31030   0.53842   0.23189   0.00000  Uiso   1.00
C213   C     0.31428   0.45762   0.25785   0.00000  Uiso   1.00
C214   C     0.01905   0.54238   0.24213   0.00000  Uiso   1.00
C215   C     0.18096   0.53971   0.04926   0.00000  Uiso   1.00
C216   C     0.15237   0.46028   0.45074   0.00000  Uiso   1.00
C217   C     0.16107   0.54288   0.45139   0.00000  Uiso   1.00
C218   C     0.17226   0.45712   0.04861   0.00000  Uiso   1.00
C219   C     0.17892   0.54022   0.09469   0.00000  Uiso   1.00
C220   C     0.15441   0.45978   0.40531   0.00000  Uiso   1.00
C221   C     0.16320   0.54271   0.40601   0.00000  Uiso   1.00
C222   C     0.24576   0.49920   0.24713   0.00000  Uiso   1.00
C223   C     0.17013   0.45729   0.09399   0.00000  Uiso   1.00
C224   C     0.17092   0.49938   0.11729   0.00000  Uiso   1.00
C225   C     0.16241   0.50062   0.38271   0.00000  Uiso   1.00
C226   C     0.17100   0.49932   0.02465   0.00000  Uiso   1.00
C227   C     0.16233   0.50068   0.47535   0.00000  Uiso   1.00
C228   C     0.29060   0.49746   0.24349   0.00000  Uiso   1.00
C229   C     0.04273   0.50254   0.25650   0.00000  Uiso   1.00
C230   C     0.10584   0.38404   0.19715   0.00000  Uiso   1.00
C231   C     0.22750   0.61596   0.30285   0.00000  Uiso   1.00
C232   C     0.21494   0.38110   0.31608   0.00000  Uiso   1.00
C233   C     0.16773   0.49989   0.16517   0.00000  Uiso   1.00
C234   C     0.11840   0.61890   0.18391   0.00000  Uiso   1.00
C235   C     0.04573   0.42328   0.29291   0.00000  Uiso   1.00
C236   C     0.28760   0.57672   0.20709   0.00000  Uiso   1.00
C237   C     0.29641   0.41097   0.26111   0.00000  Uiso   1.00
C238   C     0.03693   0.58903   0.23885   0.00000  Uiso   1.00
C239   C     0.16561   0.50011   0.33483   0.00000  Uiso   1.00
C240   C     0.13983   0.35888   0.22226   0.00000  Uiso   1.00
C241   C     0.19350   0.64112   0.27774   0.00000  Uiso   1.00
C242   C     0.19191   0.35738   0.27942   0.00000  Uiso   1.00
C243   C     0.14142   0.64262   0.22058   0.00000  Uiso   1.00
C244   C     0.02303   0.46158   0.26810   0.00000  Uiso   1.00
Cu245  Cu    0.16667   0.54689   0.25000   0.00000  Uiso   1.00
Cu246  Cu    0.16667   0.45311   0.25000   0.00000  Uiso   1.00
F247   F     0.19807   0.57693   0.03118   0.00000  Uiso   1.00
F248   F     0.13526   0.42307   0.46882   0.00000  Uiso   1.00
F249   F     0.15234   0.58440   0.47007   0.00000  Uiso   1.00
F250   F     0.18099   0.41560   0.02993   0.00000  Uiso   1.00
F251   F     0.18715   0.58038   0.11647   0.00000  Uiso   1.00
F252   F     0.14619   0.41962   0.38353   0.00000  Uiso   1.00
F253   F     0.16430   0.58425   0.38509   0.00000  Uiso   1.00
F254   F     0.16903   0.41575   0.11491   0.00000  Uiso   1.00
H255   H     0.11079   0.41437   0.17785   0.00000  Uiso   1.00
H256   H     0.22254   0.58563   0.32215   0.00000  Uiso   1.00
H257   H     0.22907   0.41386   0.31169   0.00000  Uiso   1.00
H258   H     0.10427   0.58614   0.18830   0.00000  Uiso   1.00
H259   H     0.03962   0.38719   0.28541   0.00000  Uiso   1.00
H260   H     0.29371   0.61281   0.21459   0.00000  Uiso   1.00
H261   H     0.30059   0.39122   0.29142   0.00000  Uiso   1.00
H262   H     0.03273   0.60876   0.20853   0.00000  Uiso   1.00
N263   N     0.16667   0.61736   0.25000   0.00000  Uiso   1.00
N264   N     0.16667   0.38264   0.25000   0.00000  Uiso   1.00
O265   O     0.10655   0.53958   0.25000   0.00000  Uiso   1.00
O266   O     0.26255   0.62941   0.30193   0.00000  Uiso   1.00
O267   O     0.21764   0.36422   0.35293   0.00000  Uiso   1.00
O268   O     0.11570   0.63578   0.14707   0.00000  Uiso   1.00
O269   O     0.07064   0.43199   0.32304   0.00000  Uiso   1.00
O270   O     0.26269   0.56801   0.17695   0.00000  Uiso   1.00
O271   O     0.27887   0.39329   0.22903   0.00000  Uiso   1.00
O272   O     0.05448   0.60672   0.27091   0.00000  Uiso   1.00
O273   O     0.22679   0.46042   0.25001   0.00000  Uiso   1.00
O274   O     0.22679   0.53958   0.25001   0.00000  Uiso   1.00
O275   O     0.10655   0.46042   0.25000   0.00000  Uiso   1.00
O276   O     0.16666   0.53959   0.18573   0.00000  Uiso   1.00
O277   O     0.16667   0.46041   0.31427   0.00000  Uiso   1.00
O278   O     0.16667   0.53959   0.31427   0.00000  Uiso   1.00
O279   O     0.16666   0.46041   0.18573   0.00000  Uiso   1.00
O280   O     0.07079   0.37059   0.19806   0.00000  Uiso   1.00
C281   C     0.42091   0.50080   0.25287   0.00000  Uiso   1.00
C282   C     0.64363   0.53842   0.23189   0.00000  Uiso   1.00
C283   C     0.64762   0.45762   0.25785   0.00000  Uiso   1.00
C284   C     0.35238   0.54238   0.24213   0.00000  Uiso   1.00
C285   C     0.51429   0.53971   0.04926   0.00000  Uiso   1.00
C286   C     0.48570   0.46028   0.45074   0.00000  Uiso   1.00
C287   C     0.49440   0.54288   0.45139   0.00000  Uiso   1.00
C288   C     0.50560   0.45712   0.04861   0.00000  Uiso   1.00
C289   C     0.51226   0.54022   0.09469   0.00000  Uiso   1.00
C290   C     0.48774   0.45978   0.40531   0.00000  Uiso   1.00
C291   C     0.49653   0.54271   0.40601   0.00000  Uiso   1.00
C292   C     0.57909   0.49920   0.24713   0.00000  Uiso   1.00
C293   C     0.50346   0.45729   0.09399   0.00000  Uiso   1.00
C294   C     0.50425   0.49938   0.11729   0.00000  Uiso   1.00
C295   C     0.49575   0.50062   0.38271   0.00000  Uiso   1.00
C296   C     0.50434   0.49932   0.02465   0.00000  Uiso   1.00
C297   C     0.49566   0.50068   0.47535   0.00000  Uiso   1.00
C298   C     0.62393   0.49746   0.24349   0.00000  Uiso   1.00
C299   C     0.37607   0.50254   0.25650   0.00000  Uiso   1.00
C300   C     0.43917   0.38404   0.19715   0.00000  Uiso   1.00
C301   C     0.56083   0.61596   0.30285   0.00000  Uiso   1.00
C302   C     0.54827   0.38110   0.31608   0.00000  Uiso   1.00
C303   C     0.50106   0.49989   0.16517   0.00000  Uiso   1.00
C304   C     0.45173   0.61890   0.18391   0.00000  Uiso   1.00
C305   C     0.37906   0.42328   0.29291   0.00000  Uiso   1.00
C306   C     0.62094   0.57672   0.20709   0.00000  Uiso   1.00
C307   C     0.62974   0.41097   0.26111   0.00000  Uiso   1.00
C308   C     0.37026   0.58903   0.23885   0.00000  Uiso   1.00
C309   C     0.49894   0.50011   0.33483   0.00000  Uiso   1.00
C310   C     0.47317   0.35888   0.22226   0.00000  Uiso   1.00
C311   C     0.52683   0.64112   0.27774   0.00000  Uiso   1.00
C312   C     0.52525   0.35738   0.27942   0.00000  Uiso   1.00
C313   C     0.47476   0.64262   0.22058   0.00000  Uiso   1.00
C314   C     0.35636   0.46158   0.26810   0.00000  Uiso   1.00
Cu315  Cu    0.50000   0.54689   0.25000   0.00000  Uiso   1.00
Cu316  Cu    0.50000   0.45311   0.25000   0.00000  Uiso   1.00
F317   F     0.53141   0.57693   0.03118   0.00000  Uiso   1.00
F318   F     0.46859   0.42307   0.46882   0.00000  Uiso   1.00
F319   F     0.48567   0.58440   0.47007   0.00000  Uiso   1.00
F320   F     0.51432   0.41560   0.02993   0.00000  Uiso   1.00
F321   F     0.52048   0.58038   0.11647   0.00000  Uiso   1.00
F322   F     0.47952   0.41962   0.38353   0.00000  Uiso   1.00
F323   F     0.49764   0.58425   0.38509   0.00000  Uiso   1.00
F324   F     0.50236   0.41575   0.11491   0.00000  Uiso   1.00
H325   H     0.44412   0.41437   0.17785   0.00000  Uiso   1.00
H326   H     0.55587   0.58563   0.32215   0.00000  Uiso   1.00
H327   H     0.56240   0.41386   0.31169   0.00000  Uiso   1.00
H328   H     0.43760   0.58614   0.18830   0.00000  Uiso   1.00
H329   H     0.37295   0.38719   0.28541   0.00000  Uiso   1.00
H330   H     0.62704   0.61281   0.21459   0.00000  Uiso   1.00
H331   H     0.63393   0.39122   0.29142   0.00000  Uiso   1.00
H332   H     0.36607   0.60876   0.20853   0.00000  Uiso   1.00
N333   N     0.50000   0.61736   0.25000   0.00000  Uiso   1.00
N334   N     0.50000   0.38264   0.25000   0.00000  Uiso   1.00
O335   O     0.43988   0.53958   0.25000   0.00000  Uiso   1.00
O336   O     0.59588   0.62941   0.30193   0.00000  Uiso   1.00
O337   O     0.55097   0.36422   0.35293   0.00000  Uiso   1.00
O338   O     0.44904   0.63578   0.14707   0.00000  Uiso   1.00
O339   O     0.40397   0.43199   0.32304   0.00000  Uiso   1.00
O340   O     0.59602   0.56801   0.17695   0.00000  Uiso   1.00
O341   O     0.61220   0.39329   0.22903   0.00000  Uiso   1.00
O342   O     0.38781   0.60672   0.27091   0.00000  Uiso   1.00
O343   O     0.56012   0.46042   0.25001   0.00000  Uiso   1.00
O344   O     0.56012   0.53958   0.25001   0.00000  Uiso   1.00
O345   O     0.43988   0.46042   0.25000   0.00000  Uiso   1.00
O346   O     0.50000   0.53959   0.18573   0.00000  Uiso   1.00
O347   O     0.50000   0.46041   0.31427   0.00000  Uiso   1.00
O348   O     0.50000   0.53959   0.31427   0.00000  Uiso   1.00
O349   O     0.50000   0.46041   0.18573   0.00000  Uiso   1.00
O350   O     0.40412   0.37059   0.19806   0.00000  Uiso   1.00
C351   C     0.75424   0.50080   0.25287   0.00000  Uiso   1.00
C352   C     0.97697   0.53842   0.23189   0.00000  Uiso   1.00
C353   C     0.98095   0.45762   0.25785   0.00000  Uiso   1.00
C354   C     0.68572   0.54238   0.24213   0.00000  Uiso   1.00
C355   C     0.84763   0.53971   0.04926   0.00000  Uiso   1.00
C356   C     0.81904   0.46028   0.45074   0.00000  Uiso   1.00
C357   C     0.82773   0.54288   0.45139   0.00000  Uiso   1.00
C358   C     0.83893   0.45712   0.04861   0.00000  Uiso   1.00
C359   C     0.84559   0.54022   0.09469   0.00000  Uiso   1.00
C360   C     0.82108   0.45978   0.40531   0.00000  Uiso   1.00
C361   C     0.82987   0.54271   0.40601   0.00000  Uiso   1.00
C362   C     0.91242   0.49920   0.24713   0.00000  Uiso   1.00
C363   C     0.83680   0.45729   0.09399   0.00000  Uiso   1.00
C364   C     0.83758   0.49938   0.11729   0.00000  Uiso   1.00
C365   C     0.82908   0.50062   0.38271   0.00000  Uiso   1.00
C366   C     0.83767   0.49932   0.02465   0.00000  Uiso   1.00
C367   C     0.82900   0.50068   0.47535   0.00000  Uiso   1.00
C368   C     0.95726   0.49746   0.24349   0.00000  Uiso   1.00
C369   C     0.70940   0.50254   0.25650   0.00000  Uiso   1.00
C370   C     0.77250   0.38404   0.19715   0.00000  Uiso   1.00
C371   C     0.89416   0.61596   0.30285   0.00000  Uiso   1.00
C372   C     0.88160   0.38110   0.31608   0.00000  Uiso   1.00
C373   C     0.83439   0.49989   0.16517   0.00000  Uiso   1.00
C374   C     0.78507   0.61890   0.18391   0.00000  Uiso   1.00
C375   C     0.71239   0.42328   0.29291   0.00000  Uiso   1.00
C376   C     0.95427   0.57672   0.20709   0.00000  Uiso   1.00
C377   C     0.96307   0.41097   0.26111   0.00000  Uiso   1.00
C378   C     0.70359   0.58903   0.23885   0.00000  Uiso   1.00
C379   C     0.83227   0.50011   0.33483   0.00000  Uiso   1.00
C380   C     0.80650   0.35888   0.22226   0.00000  Uiso   1.00
C381   C     0.86017   0.64112   0.27774   0.00000  Uiso   1.00
C382   C     0.85858   0.35738   0.27942   0.00000  Uiso   1.00
C383   C     0.80809   0.64262   0.22058   0.00000  Uiso   1.00
C384   C     0.68970   0.46158   0.26810   0.00000  Uiso   1.00
Cu385  Cu    0.83333   0.54689   0.25000   0.00000  Uiso   1.00
Cu386  Cu    0.83333   0.45311   0.25000   0.00000  Uiso   1.00
F387   F     0.86474   0.57693   0.03118   0.00000  Uiso   1.00
F388   F     0.80192   0.42307   0.46882   0.00000  Uiso   1.00
F389   F     0.81901   0.58440   0.47007   0.00000  Uiso   1.00
F390   F     0.84766   0.41560   0.02993   0.00000  Uiso   1.00
F391   F     0.85381   0.58038   0.11647   0.00000  Uiso   1.00
F392   F     0.81285   0.41962   0.38353   0.00000  Uiso   1.00
F393   F     0.83097   0.58425   0.38509   0.00000  Uiso   1.00
F394   F     0.83570   0.41575   0.11491   0.00000  Uiso   1.00
H395   H     0.77746   0.41437   0.17785   0.00000  Uiso   1.00
H396   H     0.88921   0.58563   0.32215   0.00000  Uiso   1.00
H397   H     0.89574   0.41386   0.31169   0.00000  Uiso   1.00
H398   H     0.77093   0.58614   0.18830   0.00000  Uiso   1.00
H399   H     0.70629   0.38719   0.28541   0.00000  Uiso   1.00
H400   H     0.96038   0.61281   0.21459   0.00000  Uiso   1.00
H401   H     0.96726   0.39122   0.29142   0.00000  Uiso   1.00
H402   H     0.69940   0.60876   0.20853   0.00000  Uiso   1.00
N403   N     0.83333   0.61736   0.25000   0.00000  Uiso   1.00
N404   N     0.83333   0.38264   0.25000   0.00000  Uiso   1.00
O405   O     0.77321   0.53958   0.25000   0.00000  Uiso   1.00
O406   O     0.92921   0.62941   0.30193   0.00000  Uiso   1.00
O407   O     0.88431   0.36422   0.35293   0.00000  Uiso   1.00
O408   O     0.78237   0.63578   0.14707   0.00000  Uiso   1.00
O409   O     0.73731   0.43199   0.32304   0.00000  Uiso   1.00
O410   O     0.92935   0.56801   0.17695   0.00000  Uiso   1.00
O411   O     0.94553   0.39329   0.22903   0.00000  Uiso   1.00
O412   O     0.72115   0.60672   0.27091   0.00000  Uiso   1.00
O413   O     0.89345   0.46042   0.25001   0.00000  Uiso   1.00
O414   O     0.89345   0.53958   0.25001   0.00000  Uiso   1.00
O415   O     0.77321   0.46042   0.25000   0.00000  Uiso   1.00
O416   O     0.83333   0.53959   0.18573   0.00000  Uiso   1.00
O417   O     0.83334   0.46041   0.31427   0.00000  Uiso   1.00
O418   O     0.83334   0.53959   0.31427   0.00000  Uiso   1.00
O419   O     0.83333   0.46041   0.18573   0.00000  Uiso   1.00
O420   O     0.73746   0.37059   0.19806   0.00000  Uiso   1.00
C421   C     0.08757   0.83413   0.25287   0.00000  Uiso   1.00
C422   C     0.31030   0.87175   0.23189   0.00000  Uiso   1.00
C423   C     0.31428   0.79095   0.25785   0.00000  Uiso   1.00
C424   C     0.01905   0.87571   0.24213   0.00000  Uiso   1.00
C425   C     0.18096   0.87305   0.04926   0.00000  Uiso   1.00
C426   C     0.15237   0.79362   0.45074   0.00000  Uiso   1.00
C427   C     0.16107   0.87622   0.45139   0.00000  Uiso   1.00
C428   C     0.17226   0.79045   0.04861   0.00000  Uiso   1.00
C429   C     0.17892   0.87356   0.09469   0.00000  Uiso   1.00
C430   C     0.15441   0.79311   0.40531   0.00000  Uiso   1.00
C431   C     0.16320   0.87604   0.40601   0.00000  Uiso   1.00
C432   C     0.24576   0.83253   0.24713   0.00000  Uiso   1.00
C433   C     0.17013   0.79062   0.09399   0.00000  Uiso   1.00
C434   C     0.17092   0.83271   0.11729   0.00000  Uiso   1.00
C435   C     0.16241   0.83396   0.38271   0.00000  Uiso   1.00
C436   C     0.17100   0.83266   0.02465   0.00000  Uiso   1.00
C437   C     0.16233   0.83401   0.47535   0.00000  Uiso   1.00
C438   C     0.29060   0.83079   0.24349   0.00000  Uiso   1.00
C439   C     0.04273   0.83587   0.25650   0.00000  Uiso   1.00
C440   C     0.10584   0.71737   0.19715   0.00000  Uiso   1.00
C441   C     0.22750   0.94929   0.30285   0.00000  Uiso   1.00
C442   C     0.21494   0.71444   0.31608   0.00000  Uiso   1.00
C443   C     0.16773   0.83322   0.16517   0.00000  Uiso   1.00
C444   C     0.11840   0.95223   0.18391   0.00000  Uiso   1.00
C445   C     0.04573   0.75661   0.29291   0.00000  Uiso   1.00
C446   C     0.28760   0.91006   0.20709   0.00000  Uiso   1.00
C447   C     0.29641   0.74430   0.26111   0.00000  Uiso   1.00
C448   C     0.03693   0.92236   0.23885   0.00000  Uiso   1.00
C449   C     0.16561   0.83345   0.33483   0.00000  Uiso   1.00
C450   C     0.13983   0.69221   0.22226   0.00000  Uiso   1.00
C451   C     0.19350   0.97446   0.27774   0.00000  Uiso   1.00
C452   C     0.19191   0.69071   0.27942   0.00000  Uiso   1.00
C453   C     0.14142   0.97596   0.22058   0.00000  Uiso   1.00
C454   C     0.02303   0.79491   0.26810   0.00000  Uiso   1.00
Cu455  Cu    0.16667   0.88022   0.25000   0.00000  Uiso   1.00
Cu456  Cu    0.16667   0.78645   0.25000   0.00000  Uiso   1.00
F457   F     0.19807   0.91026   0.03118   0.00000  Uiso   1.00
F458   F     0.13526   0.75640   0.46882   0.00000  Uiso   1.00
F459   F     0.15234   0.91773   0.47007   0.00000  Uiso   1.00
F460   F     0.18099   0.74893   0.02993   0.00000  Uiso   1.00
F461   F     0.18715   0.91371   0.11647   0.00000  Uiso   1.00
F462   F     0.14619   0.75296   0.38353   0.00000  Uiso   1.00
F463   F     0.16430   0.91759   0.38509   0.00000  Uiso   1.00
F464   F     0.16903   0.74908   0.11491   0.00000  Uiso   1.00
H465   H     0.11079   0.74771   0.17785   0.00000  Uiso   1.00
H466   H     0.22254   0.91896   0.32215   0.00000  Uiso   1.00
H467   H     0.22907   0.74719   0.31169   0.00000  Uiso   1.00
H468   H     0.10427   0.91948   0.18830   0.00000  Uiso   1.00
H469   H     0.03962   0.72052   0.28541   0.00000  Uiso   1.00
H470   H     0.29371   0.94614   0.21459   0.00000  Uiso   1.00
H471   H     0.30059   0.72455   0.29142   0.00000  Uiso   1.00
H472   H     0.03273   0.94209   0.20853   0.00000  Uiso   1.00
N473   N     0.16667   0.95069   0.25000   0.00000  Uiso   1.00
N474   N     0.16667   0.71598   0.25000   0.00000  Uiso   1.00
O475   O     0.10655   0.87291   0.25000   0.00000  Uiso   1.00
O476   O     0.26255   0.96274   0.30193   0.00000  Uiso   1.00
O477   O     0.21764   0.69755   0.35293   0.00000  Uiso   1.00
O478   O     0.11570   0.96912   0.14707   0.00000  Uiso   1.00
O479   O     0.07064   0.76532   0.32304   0.00000  Uiso   1.00
O480   O     0.26269   0.90135   0.17695   0.00000  Uiso   1.00
O481   O     0.27887   0.72662   0.22903   0.00000  Uiso   1.00
O482   O     0.05448   0.94006   0.27091   0.00000  Uiso   1.00
O483   O     0.22679   0.79375   0.25001   0.00000  Uiso   1.00
O484   O     0.22679   0.87291   0.25001   0.00000  Uiso   1.00
O485   O     0.10655   0.79375   0.25000   0.00000  Uiso   1.00
O486   O     0.16666   0.87293   0.18573   0.00000  Uiso   1.00
O487   O     0.16667   0.79374   0.31427   0.00000  Uiso   1.00
O488   O     0.16667   0.87293   0.31427   0.00000  Uiso   1.00
O489   O     0.16666   0.79374   0.18573   0.00000  Uiso   1.00
O490   O     0.07079   0.70392   0.19806   0.00000  Uiso   1.00
C491   C     0.42091   0.83413   0.25287   0.00000  Uiso   1.00
C492   C     0.64363   0.87175   0.23189   0.00000  Uiso   1.00
C493   C     0.64762   0.79095   0.25785   0.00000  Uiso   1.00
C494   C     0.35238   0.87571   0.24213   0.00000  Uiso   1.00
C495   C     0.51429   0.87305   0.04926   0.00000  Uiso   1.00
C496   C     0.48570   0.79362   0.45074   0.00000  Uiso   1.00
C497   C     0.49440   0.87622   0.45139   0.00000  Uiso   1.00
C498   C     0.50560   0.79045   0.04861   0.00000  Uiso   1.00
C499   C     0.51226   0.87356   0.09469   0.00000  Uiso   1.00
C500   C     0.48774   0.79311   0.40531   0.00000  Uiso   1.00
C501   C     0.49653   0.87604   0.40601   0.00000  Uiso   1.00
C502   C     0.57909   0.83253   0.24713   0.00000  Uiso   1.00
C503   C     0.50346   0.79062   0.09399   0.00000  Uiso   1.00
C504   C     0.50425   0.83271   0.11729   0.00000  Uiso   1.00
C505   C     0.49575   0.83396   0.38271   0.00000  Uiso   1.00
C506   C     0.50434   0.83266   0.02465   0.00000  Uiso   1.00
C507   C     0.49566   0.83401   0.47535   0.00000  Uiso   1.00
C508   C     0.62393   0.83079   0.24349   0.00000  Uiso   1.00
C509   C     0.37607   0.83587   0.25650   0.00000  Uiso   1.00
C510   C     0.43917   0.71737   0.19715   0.00000  Uiso   1.00
C511   C     0.56083   0.94929   0.30285   0.00000  Uiso   1.00
C512   C     0.54827   0.71444   0.31608   0.00000  Uiso   1.00
C513   C     0.50106   0.83322   0.16517   0.00000  Uiso   1.00
C514   C     0.45173   0.95223   0.18391   0.00000  Uiso   1.00
C515   C     0.37906   0.75661   0.29291   0.00000  Uiso   1.00
C516   C     0.62094   0.91006   0.20709   0.00000  Uiso   1.00
C517   C     0.62974   0.74430   0.26111   0.00000  Uiso   1.00
C518   C     0.37026   0.92236   0.23885   0.00000  Uiso   1.00
C519   C     0.49894   0.83345   0.33483   0.00000  Uiso   1.00
C520   C     0.47317   0.69221   0.22226   0.00000  Uiso   1.00
C521   C     0.52683   0.97446   0.27774   0.00000  Uiso   1.00
C522   C     0.52525   0.69071   0.27942   0.00000  Uiso   1.00
C523   C     0.47476   0.97596   0.22058   0.00000  Uiso   1.00
C524   C     0.35636   0.79491   0.26810   0.00000  Uiso   1.00
Cu525  Cu    0.50000   0.88022   0.25000   0.00000  Uiso   1.00
Cu526  Cu    0.50000   0.78645   0.25000   0.00000  Uiso   1.00
F527   F     0.53141   0.91026   0.03118   0.00000  Uiso   1.00
F528   F     0.46859   0.75640   0.46882   0.00000  Uiso   1.00
F529   F     0.48567   0.91773   0.47007   0.00000  Uiso   1.00
F530   F     0.51432   0.74893   0.02993   0.00000  Uiso   1.00
F531   F     0.52048   0.91371   0.11647   0.00000  Uiso   1.00
F532   F     0.47952   0.75296   0.38353   0.00000  Uiso   1.00
F533   F     0.49764   0.91759   0.38509   0.00000  Uiso   1.00
F534   F     0.50236   0.74908   0.11491   0.00000  Uiso   1.00
H535   H     0.44412   0.74771   0.17785   0.00000  Uiso   1.00
H536   H     0.55587   0.91896   0.32215   0.00000  Uiso   1.00
H537   H     0.56240   0.74719   0.31169   0.00000  Uiso   1.00
H538   H     0.43760   0.91948   0.18830   0.00000  Uiso   1.00
H539   H     0.37295   0.72052   0.28541   0.00000  Uiso   1.00
H540   H     0.62704   0.94614   0.21459   0.00000  Uiso   1.00
H541   H     0.63393   0.72455   0.29142   0.00000  Uiso   1.00
H542   H     0.36607   0.94209   0.20853   0.00000  Uiso   1.00
N543   N     0.50000   0.95069   0.25000   0.00000  Uiso   1.00
N544   N     0.50000   0.71598   0.25000   0.00000  Uiso   1.00
O545   O     0.43988   0.87291   0.25000   0.00000  Uiso   1.00
O546   O     0.59588   0.96274   0.30193   0.00000  Uiso   1.00
O547   O     0.55097   0.69755   0.35293   0.00000  Uiso   1.00
O548   O     0.44904   0.96912   0.14707   0.00000  Uiso   1.00
O549   O     0.40397   0.76532   0.32304   0.00000  Uiso   1.00
O550   O     0.59602   0.90135   0.17695   0.00000  Uiso   1.00
O551   O     0.61220   0.72662   0.22903   0.00000  Uiso   1.00
O552   O     0.38781   0.94006   0.27091   0.00000  Uiso   1.00
O553   O     0.56012   0.79375   0.25001   0.00000  Uiso   1.00
O554   O     0.56012   0.87291   0.25001   0.00000  Uiso   1.00
O555   O     0.43988   0.79375   0.25000   0.00000  Uiso   1.00
O556   O     0.50000   0.87293   0.18573   0.00000  Uiso   1.00
O557   O     0.50000   0.79374   0.31427   0.00000  Uiso   1.00
O558   O     0.50000   0.87293   0.31427   0.00000  Uiso   1.00
O559   O     0.50000   0.79374   0.18573   0.00000  Uiso   1.00
O560   O     0.40412   0.70392   0.19806   0.00000  Uiso   1.00
C561   C     0.75424   0.83413   0.25287   0.00000  Uiso   1.00
C562   C     0.97697   0.87175   0.23189   0.00000  Uiso   1.00
C563   C     0.98095   0.79095   0.25785   0.00000  Uiso   1.00
C564   C     0.68572   0.87571   0.24213   0.00000  Uiso   1.00
C565   C     0.84763   0.87305   0.04926   0.00000  Uiso   1.00
C566   C     0.81904   0.79362   0.45074   0.00000  Uiso   1.00
C567   C     0.82773   0.87622   0.45139   0.00000  Uiso   1.00
C568   C     0.83893   0.79045   0.04861   0.00000  Uiso   1.00
C569   C     0.84559   0.87356   0.09469   0.00000  Uiso   1.00
C570   C     0.82108   0.79311   0.40531   0.00000  Uiso   1.00
C571   C     0.82987   0.87604   0.40601   0.00000  Uiso   1.00
C572   C     0.91242   0.83253   0.24713   0.00000  Uiso   1.00
C573   C     0.83680   0.79062   0.09399   0.00000  Uiso   1.00
C574   C     0.83758   0.83271   0.11729   0.00000  Uiso   1.00
C575   C     0.82908   0.83396   0.38271   0.00000  Uiso   1.00
C576   C     0.83767   0.83266   0.02465   0.00000  Uiso   1.00
C577   C     0.82900   0.83401   0.47535   0.00000  Uiso   1.00
C578   C     0.95726   0.83079   0.24349   0.00000  Uiso   1.00
C579   C     0.70940   0.83587   0.25650   0.00000  Uiso   1.00
C580   C     0.77250   0.71737   0.19715   0.00000  Uiso   1.00
C581   C     0.89416   0.94929   0.30285   0.00000  Uiso   1.00
C582   C     0.88160   0.71444   0.31608   0.00000  Uiso   1.00
C583   C     0.83439   0.83322   0.16517   0.00000  Uiso   1.00
C584   C     0.78507   0.95223   0.18391   0.00000  Uiso   1.00
C585   C     0.71239   0.75661   0.29291   0.00000  Uiso   1.00
C586   C     0.95427   0.91006   0.20709   0.00000  Uiso   1.00
C587   C     0.96307   0.74430   0.26111   0.00000  Uiso   1.00
C588   C     0.70359   0.92236   0.23885   0.00000  Uiso   1.00
C589   C     0.83227   0.83345   0.33483   0.00000  Uiso   1.00
C590   C     0.80650   0.69221   0.22226   0.00000  Uiso   1.00
C591   C     0.86017   0.97446   0.27774   0.00000  Uiso   1.00
C592   C     0.85858   0.69071   0.27942   0.00000  Uiso   1.00
C593   C     0.80809   0.97596   0.22058   0.00000  Uiso   1.00
C594   C     0.68970   0.79491   0.26810   0.00000  Uiso   1.00
Cu595  Cu    0.83333   0.88022   0.25000   0.00000  Uiso   1.00
Cu596  Cu    0.83333   0.78645   0.25000   0.00000  Uiso   1.00
F597   F     0.86474   0.91026   0.03118   0.00000  Uiso   1.00
F598   F     0.80192   0.75640   0.46882   0.00000  Uiso   1.00
F599   F     0.81901   0.91773   0.47007   0.00000  Uiso   1.00
F600   F     0.84766   0.74893   0.02993   0.00000  Uiso   1.00
F601   F     0.85381   0.91371   0.11647   0.00000  Uiso   1.00
F602   F     0.81285   0.75296   0.38353   0.00000  Uiso   1.00
F603   F     0.83097   0.91759   0.38509   0.00000  Uiso   1.00
F604   F     0.83570   0.74908   0.11491   0.00000  Uiso   1.00
H605   H     0.77746   0.74771   0.17785   0.00000  Uiso   1.00
H606   H     0.88921   0.91896   0.32215   0.00000  Uiso   1.00
H607   H     0.89574   0.74719   0.31169   0.00000  Uiso   1.00
H608   H     0.77093   0.91948   0.18830   0.00000  Uiso   1.00
H609   H     0.70629   0.72052   0.28541   0.00000  Uiso   1.00
H610   H     0.96038   0.94614   0.21459   0.00000  Uiso   1.00
H611   H     0.96726   0.72455   0.29142   0.00000  Uiso   1.00
H612   H     0.69940   0.94209   0.20853   0.00000  Uiso   1.00
N613   N     0.83333   0.95069   0.25000   0.00000  Uiso   1.00
N614   N     0.83333   0.71598   0.25000   0.00000  Uiso   1.00
O615   O     0.77321   0.87291   0.25000   0.00000  Uiso   1.00
O616   O     0.92921   0.96274   0.30193   0.00000  Uiso   1.00
O617   O     0.88431   0.69755   0.35293   0.00000  Uiso   1.00
O618   O     0.78237   0.96912   0.14707   0.00000  Uiso   1.00
O619   O     0.73731   0.76532   0.32304   0.00000  Uiso   1.00
O620   O     0.92935   0.90135   0.17695   0.00000  Uiso   1.00
O621   O     0.94553   0.72662   0.22903   0.00000  Uiso   1.00
O622   O     0.72115   0.94006   0.27091   0.00000  Uiso   1.00
O623   O     0.89345   0.79375   0.25001   0.00000  Uiso   1.00
O624   O     0.89345   0.87291   0.25001   0.00000  Uiso   1.00
O625   O     0.77321   0.79375   0.25000   0.00000  Uiso   1.00
O626   O     0.83333   0.87293   0.18573   0.00000  Uiso   1.00
O627   O     0.83334   0.79374   0.31427   0.00000  Uiso   1.00
O628   O     0.83334   0.87293   0.31427   0.00000  Uiso   1.00
O629   O     0.83333   0.79374   0.18573   0.00000  Uiso   1.00
O630   O     0.73746   0.70392   0.19806   0.00000  Uiso   1.00
C631   C     0.08757   0.16747   0.75287   0.00000  Uiso   1.00
C632   C     0.31030   0.20509   0.73189   0.00000  Uiso   1.00
C633   C     0.31428   0.12429   0.75785   0.00000  Uiso   1.00
C634   C     0.01905   0.20905   0.74213   0.00000  Uiso   1.00
C635   C     0.18096   0.20638   0.54926   0.00000  Uiso   1.00
C636   C     0.15237   0.12695   0.95074   0.00000  Uiso   1.00
C637   C     0.16107   0.20955   0.95139   0.00000  Uiso   1.00
C638   C     0.17226   0.12378   0.54861   0.00000  Uiso   1.00
C639   C     0.17892   0.20689   0.59469   0.00000  Uiso   1.00
C640   C     0.15441   0.12644   0.90531   0.00000  Uiso   1.00
C641   C     0.16320   0.20938   0.90601   0.00000  Uiso   1.00
C642   C     0.24576   0.16587   0.74713   0.00000  Uiso   1.00
C643   C     0.17013   0.12396   0.59399   0.00000  Uiso   1.00
C644   C     0.17092   0.16604   0.61729   0.00000  Uiso   1.00
C645   C     0.16241   0.16729   0.88271   0.00000  Uiso   1.00
C646   C     0.17100   0.16599   0.52465   0.00000  Uiso   1.00
C647   C     0.16233   0.16734   0.97535   0.00000  Uiso   1.00
C648   C     0.29060   0.16413   0.74349   0.00000  Uiso   1.00
C649   C     0.04273   0.16921   0.75650   0.00000  Uiso   1.00
C650   C     0.10584   0.05071   0.69715   0.00000  Uiso   1.00
C651   C     0.22750   0.28263   0.80285   0.00000  Uiso   1.00
C652   C     0.21494   0.04777   0.81608   0.00000  Uiso   1.00
C653   C     0.16773   0.16655   0.66517   0.00000  Uiso   1.00
C654   C     0.11840   0.28556   0.68391   0.00000  Uiso   1.00
C655   C     0.04573   0.08994   0.79291   0.00000  Uiso   1.00
C656   C     0.28760   0.24339   0.70709   0.00000  Uiso   1.00
C657   C     0.29641   0.07763   0.76111   0.00000  Uiso   1.00
C658   C     0.03693   0.25570   0.73885   0.00000  Uiso   1.00
C659   C     0.16561   0.16678   0.83483   0.00000  Uiso   1.00
C660   C     0.13983   0.02554   0.72226   0.00000  Uiso   1.00
C661   C     0.19350   0.30779   0.77774   0.00000  Uiso   1.00
C662   C     0.19191   0.02404   0.77942   0.00000  Uiso   1.00
C663   C     0.14142   0.30929   0.72058   0.00000  Uiso   1.00
C664   C     0.02303   0.12825   0.76810   0.00000  Uiso   1.00
Cu665  Cu    0.16667   0.21355   0.75000   0.00000  Uiso   1.00
Cu666  Cu    0.16667   0.11978   0.75000   0.00000  Uiso   1.00
F667   F     0.19807   0.24359   0.53118   0.00000  Uiso   1.00
F668   F     0.13526   0.08974   0.96882   0.00000  Uiso   1.00
F669   F     0.15234   0.25106   0.97007   0.00000  Uiso   1.00
F670   F     0.18099   0.08227   0.52993   0.00000  Uiso   1.00
F671   F     0.18715   0.24704   0.61647   0.00000  Uiso   1.00
F672   F     0.14619   0.08629   0.88353   0.00000  Uiso   1.00
F673   F     0.16430   0.25092   0.88509   0.00000  Uiso   1.00
F674   F     0.16903   0.08241   0.61491   0.00000  Uiso   1.00
H675   H     0.11079   0.08104   0.67785   0.00000  Uiso   1.00
H676   H     0.22254   0.25230   0.82215   0.00000  Uiso   1.00
H677   H     0.22907   0.08052   0.81169   0.00000  Uiso   1.00
H678   H     0.10427   0.25281   0.68830   0.00000  Uiso   1.00
H679   H     0.03962   0.05386   0.78541   0.00000  Uiso   1.00
H680   H     0.29371   0.27948   0.71459   0.00000  Uiso   1.00
H681   H     0.30059   0.05788   0.79142   0.00000  Uiso   1.00
H682   H     0.03273   0.27543   0.70853   0.00000  Uiso   1.00
N683   N     0.16667   0.28402   0.75000   0.00000  Uiso   1.00
N684   N     0.16667   0.04931   0.75000   0.00000  Uiso   1.00
O685   O     0.10655   0.20625   0.75000   0.00000  Uiso   1.00
O686   O     0.26255   0.29607   0.80193   0.00000  Uiso   1.00
O687   O     0.21764   0.03088   0.85293   0.00000  Uiso   1.00
O688   O     0.11570   0.30245   0.64707   0.00000  Uiso   1.00
O689   O     0.07064   0.09865   0.82304   0.00000  Uiso   1.00
O690   O     0.26269   0.23468   0.67695   0.00000  Uiso   1.00
O691   O     0.27887   0.05996   0.72903   0.00000  Uiso   1.00
O692   O     0.05448   0.27339   0.77091   0.00000  Uiso   1.00
O693   O     0.22679   0.12709   0.75001   0.00000  Uiso   1.00
O694   O     0.22679   0.20625   0.75001   0.00000  Uiso   1.00
O695   O     0.10655   0.12709   0.75000   0.00000  Uiso   1.00
O696   O     0.16666   0.20626   0.68573   0.00000  Uiso   1.00
O697   O     0.16667   0.12707   0.81427   0.00000  Uiso   1.00
O698   O     0.16667   0.20626   0.81427   0.00000  Uiso   1.00
O699   O     0.16666   0.12707   0.68573   0.00000  Uiso   1.00
O700   O     0.07079   0.03725   0.69806   0.00000  Uiso   1.00
C701   C     0.42091   0.16747   0.75287   0.00000  Uiso   1.00
C702   C     0.64363   0.20509   0.73189   0.00000  Uiso   1.00
C703   C     0.64762   0.12429   0.75785   0.00000  Uiso   1.00
C704   C     0.35238   0.20905   0.74213   0.00000  Uiso   1.00
C705   C     0.51429   0.20638   0.54926   0.00000  Uiso   1.00
C706   C     0.48570   0.12695   0.95074   0.00000  Uiso   1.00
C707   C     0.49440   0.20955   0.95139   0.00000  Uiso   1.00
C708   C     0.50560   0.12378   0.54861   0.00000  Uiso   1.00
C709   C     0.51226   0.20689   0.59469   0.00000  Uiso   1.00
C710   C     0.48774   0.12644   0.90531   0.00000  Uiso   1.00
C711   C     0.49653   0.20938   0.90601   0.00000  Uiso   1.00
C712   C     0.57909   0.16587   0.74713   0.00000  Uiso   1.00
C713   C     0.50346   0.12396   0.59399   0.00000  Uiso   1.00
C714   C     0.50425   0.16604   0.61729   0.00000  Uiso   1.00
C715   C     0.49575   0.16729   0.88271   0.00000  Uiso   1.00
C716   C     0.50434   0.16599   0.52465   0.00000  Uiso   1.00
C717   C     0.49566   0.16734   0.97535   0.00000  Uiso   1.00
C718   C     0.62393   0.16413   0.74349   0.00000  Uiso   1.00
C719   C     0.37607   0.16921   0.75650   0.00000  Uiso   1.00
C720   C     0.43917   0.05071   0.69715   0.00000  Uiso   1.00
C721   C     0.56083   0.28263   0.80285   0.00000  Uiso   1.00
C722   C     0.54827   0.04777   0.81608   0.00000  Uiso   1.00
C723   C     0.50106   0.16655   0.66517   0.00000  Uiso   1.00
C724   C     0.45173   0.28556   0.68391   0.00000  Uiso   1.00
C725   C     0.37906   0.08994   0.79291   0.00000  Uiso   1.00
C726   C     0.62094   0.24339   0.70709   0.00000  Uiso   1.00
C727   C     0.62974   0.07763   0.76111   0.00000  Uiso   1.00
C728   C     0.37026   0.25570   0.73885   0.00000  Uiso   1.00
C729   C     0.49894   0.16678   0.83483   0.00000  Uiso   1.00
C730   C     0.47317   0.02554   0.72226   0.00000  Uiso   1.00
C731   C     0.52683   0.30779   0.77774   0.00000  Uiso   1.00
C732   C     0.52525   0.02404   0.77942   0.00000  Uiso   1.00
C733   C     0.47476   0.30929   0.72058   0.00000  Uiso   1.00
C734   C     0.35636   0.12825   0.76810   0.00000  Uiso   1.00
Cu735  Cu    0.50000   0.21355   0.75000   0.00000  Uiso   1.00
Cu736  Cu    0.50000   0.11978   0.75000   0.00000  Uiso   1.00
F737   F     0.53141   0.24359   0.53118   0.00000  Uiso   1.00
F738   F     0.46859   0.08974   0.96882   0.00000  Uiso   1.00
F739   F     0.48567   0.25106   0.97007   0.00000  Uiso   1.00
F740   F     0.51432   0.08227   0.52993   0.00000  Uiso   1.00
F741   F     0.52048   0.24704   0.61647   0.00000  Uiso   1.00
F742   F     0.47952   0.08629   0.88353   0.00000  Uiso   1.00
F743   F     0.49764   0.25092   0.88509   0.00000  Uiso   1.00
F744   F     0.50236   0.08241   0.61491   0.00000  Uiso   1.00
H745   H     0.44412   0.08104   0.67785   0.00000  Uiso   1.00
H746   H     0.55587   0.25230   0.82215   0.00000  Uiso   1.00
H747   H     0.56240   0.08052   0.81169   0.00000  Uiso   1.00
H748   H     0.43760   0.25281   0.68830   0.00000  Uiso   1.00
H749   H     0.37295   0.05386   0.78541   0.00000  Uiso   1.00
H750   H     0.62704   0.27948   0.71459   0.00000  Uiso   1.00
H751   H     0.63393   0.05788   0.79142   0.00000  Uiso   1.00
H752   H     0.36607   0.27543   0.70853   0.00000  Uiso   1.00
N753   N     0.50000   0.28402   0.75000   0.00000  Uiso   1.00
N754   N     0.50000   0.04931   0.75000   0.00000  Uiso   1.00
O755   O     0.43988   0.20625   0.75000   0.00000  Uiso   1.00
O756   O     0.59588   0.29607   0.80193   0.00000  Uiso   1.00
O757   O     0.55097   0.03088   0.85293   0.00000  Uiso   1.00
O758   O     0.44904   0.30245   0.64707   0.00000  Uiso   1.00
O759   O     0.40397   0.09865   0.82304   0.00000  Uiso   1.00
O760   O     0.59602   0.23468   0.67695   0.00000  Uiso   1.00
O761   O     0.61220   0.05996   0.72903   0.00000  Uiso   1.00
O762   O     0.38781   0.27339   0.77091   0.00000  Uiso   1.00
O763   O     0.56012   0.12709   0.75001   0.00000  Uiso   1.00
O764   O     0.56012   0.20625   0.75001   0.00000  Uiso   1.00
O765   O     0.43988   0.12709   0.75000   0.00000  Uiso   1.00
O766   O     0.50000   0.20626   0.68573   0.00000  Uiso   1.00
O767   O     0.50000   0.12707   0.81427   0.00000  Uiso   1.00
O768   O     0.50000   0.20626   0.81427   0.00000  Uiso   1.00
O769   O     0.50000   0.12707   0.68573   0.00000  Uiso   1.00
O770   O     0.40412   0.03725   0.69806   0.00000  Uiso   1.00
C771   C     0.75424   0.16747   0.75287   0.00000  Uiso   1.00
C772   C     0.97697   0.20509   0.73189   0.00000  Uiso   1.00
C773   C     0.98095   0.12429   0.75785   0.00000  Uiso   1.00
C774   C     0.68572   0.20905   0.74213   0.00000  Uiso   1.00
C775   C     0.84763   0.20638   0.54926   0.00000  Uiso   1.00
C776   C     0.81904   0.12695   0.95074   0.00000  Uiso   1.00
C777   C     0.82773   0.20955   0.95139   0.00000  Uiso   1.00
C778   C     0.83893   0.12378   0.54861   0.00000  Uiso   1.00
C779   C     0.84559   0.20689   0.59469   0.00000  Uiso   1.00
C780   C     0.82108   0.12644   0.90531   0.00000  Uiso   1.00
C781   C     0.82987   0.20938   0.90601   0.00000  Uiso   1.00
C782   C     0.91242   0.16587   0.74713   0.00000  Uiso   1.00
C783   C     0.83680   0.12396   0.59399   0.00000  Uiso   1.00
C784   C     0.83758   0.16604   0.61729   0.00000  Uiso   1.00
C785   C     0.82908   0.16729   0.88271   0.00000  Uiso   1.00
C786   C     0.83767   0.16599   0.52465   0.00000  Uiso   1.00
C787   C     0.82900   0.16734   0.97535   0.00000  Uiso   1.00
C788   C     0.95726   0.16413   0.74349   0.00000  Uiso   1.00
C789   C     0.70940   0.16921   0.75650   0.00000  Uiso   1.00
C790   C     0.77250   0.05071   0.69715   0.00000  Uiso   1.00
C791   C     0.89416   0.28263   0.80285   0.00000  Uiso   1.00
C792   C     0.88160   0.04777   0.81608   0.00000  Uiso   1.00
C793   C     0.83439   0.16655   0.66517   0.00000  Uiso   1.00
C794   C     0.78507   0.28556   0.68391   0.00000  Uiso   1.00
C795   C     0.71239   0.08994   0.79291   0.00000  Uiso   1.00
C796   C     0.95427   0.24339   0.70709   0.00000  Uiso   1.00
C797   C     0.96307   0.07763   0.76111   0.00000  Uiso   1.00
C798   C     0.70359   0.25570   0.73885   0.00000  Uiso   1.00
C799   C     0.83227   0.16678   0.83483   0.00000  Uiso   1.00
C800   C     0.80650   0.02554   0.72226   0.00000  Uiso   1.00
C801   C     0.86017   0.30779   0.77774   0.00000  Uiso   1.00
C802   C     0.85858   0.02404   0.77942   0.00000  Uiso   1.00
C803   C     0.80809   0.30929   0.72058   0.00000  Uiso   1.00
C804   C     0.68970   0.12825   0.76810   0.00000  Uiso   1.00
Cu805  Cu    0.83333   0.21355   0.75000   0.00000  Uiso   1.00
Cu806  Cu    0.83333   0.11978   0.75000   0.00000  Uiso   1.00
F807   F     0.86474   0.24359   0.53118   0.00000  Uiso   1.00
F808   F     0.80192   0.08974   0.96882   0.00000  Uiso   1.00
F809   F     0.81901   0.25106   0.97007   0.00000  Uiso   1.00
F810   F     0.84766   0.08227   0.52993   0.00000  Uiso   1.00
F811   F     0.85381   0.24704   0.61647   0.00000  Uiso   1.00
F812   F     0.81285   0.08629   0.88353   0.00000  Uiso   1.00
F813   F     0.83097   0.25092   0.88509   0.00000  Uiso   1.00
F814   F     0.83570   0.08241   0.61491   0.00000  Uiso   1.00
H815   H     0.77746   0.08104   0.67785   0.00000  Uiso   1.00
H816   H     0.88921   0.25230   0.82215   0.00000  Uiso   1.00
H817   H     0.89574   0.08052   0.81169   0.00000  Uiso   1.00
H818   H     0.77093   0.25281   0.68830   0.00000  Uiso   1.00
H819   H     0.70629   0.05386   0.78541   0.00000  Uiso   1.00
H820   H     0.96038   0.27948   0.71459   0.00000  Uiso   1.00
H821   H     0.96726   0.05788   0.79142   0.00000  Uiso   1.00
H822   H     0.69940   0.27543   0.70853   0.00000  Uiso   1.00
N823   N     0.83333   0.28402   0.75000   0.00000  Uiso   1.00
N824   N     0.83333   0.04931   0.75000   0.00000  Uiso   1.00
O825   O     0.77321   0.20625   0.75000   0.00000  Uiso   1.00
O826   O     0.92921   0.29607   0.80193   0.00000  Uiso   1.00
O827   O     0.88431   0.03088   0.85293   0.00000  Uiso   1.00
O828   O     0.78237   0.30245   0.64707   0.00000  Uiso   1.00
O829   O     0.73731   0.09865   0.82304   0.00000  Uiso   1.00
O830   O     0.92935   0.23468   0.67695   0.00000  Uiso   1.00
O831   O     0.94553   0.05996   0.72903   0.00000  Uiso   1.00
O832   O     0.72115   0.27339   0.77091   0.00000  Uiso   1.00
O833   O     0.89345   0.12709   0.75001   0.00000  Uiso   1.00
O834   O     0.89345   0.20625   0.75001   0.00000  Uiso   1.00
O835   O     0.77321   0.12709   0.75000   0.00000  Uiso   1.00
O836   O     0.83333   0.20626   0.68573   0.00000  Uiso   1.00
O837   O     0.83334   0.12707   0.81427   0.00000  Uiso   1.00
O838   O     0.83334   0.20626   0.81427   0.00000  Uiso   1.00
O839   O     0.83333   0.12707   0.68573   0.00000  Uiso   1.00
O840   O     0.73746   0.03725   0.69806   0.00000  Uiso   1.00
C841   C     0.08757   0.50080   0.75287   0.00000  Uiso   1.00
C842   C     0.31030   0.53842   0.73189   0.00000  Uiso   1.00
C843   C     0.31428   0.45762   0.75785   0.00000  Uiso   1.00
C844   C     0.01905   0.54238   0.74213   0.00000  Uiso   1.00
C845   C     0.18096   0.53971   0.54926   0.00000  Uiso   1.00
C846   C     0.15237   0.46028   0.95074   0.00000  Uiso   1.00
C847   C     0.16107   0.54288   0.95139   0.00000  Uiso   1.00
C848   C     0.17226   0.45712   0.54861   0.00000  Uiso   1.00
C849   C     0.17892   0.54022   0.59469   0.00000  Uiso   1.00
C850   C     0.15441   0.45978   0.90531   0.00000  Uiso   1.00
C851   C     0.16320   0.54271   0.90601   0.00000  Uiso   1.00
C852   C     0.24576   0.49920   0.74713   0.00000  Uiso   1.00
C853   C     0.17013   0.45729   0.59399   0.00000  Uiso   1.00
C854   C     0.17092   0.49938   0.61729   0.00000  Uiso   1.00
C855   C     0.16241   0.50062   0.88271   0.00000  Uiso   1.00
C856   C     0.17100   0.49932   0.52465   0.00000  Uiso   1.00
C857   C     0.16233   0.50068   0.97535   0.00000  Uiso   1.00
C858   C     0.29060   0.49746   0.74349   0.00000  Uiso   1.00
C859   C     0.04273   0.50254   0.75650   0.00000  Uiso   1.00
C860   C     0.10584   0.38404   0.69715   0.00000  Uiso   1.00
C861   C     0.22750   0.61596   0.80285   0.00000  Uiso   1.00
C862   C     0.21494   0.38110   0.81608   0.00000  Uiso   1.00
C863   C     0.16773   0.49989   0.66517   0.00000  Uiso   1.00
C864   C     0.11840   0.61890   0.68391   0.00000  Uiso   1.00
C865   C     0.04573   0.42328   0.79291   0.00000  Uiso   1.00
C866   C     0.28760   0.57672   0.70709   0.00000  Uiso   1.00
C867   C     0.29641   0.41097   0.76111   0.00000  Uiso   1.00
C868   C     0.03693   0.58903   0.73885   0.00000  Uiso   1.00
C869   C     0.16561   0.50011   0.83483   0.00000  Uiso   1.00
C870   C     0.13983   0.35888   0.72226   0.00000  Uiso   1.00
C871   C     0.19350   0.64112   0.77774   0.00000  Uiso   1.00
C872   C     0.19191   0.35738   0.77942   0.00000  Uiso   1.00
C873   C     0.14142   0.64262   0.72058   0.00000  Uiso   1.00
C874   C     0.02303   0.46158   0.76810   0.00000  Uiso   1.00
Cu875  Cu    0.16667   0.54689   0.75000   0.00000  Uiso   1.00
Cu876  Cu    0.16667   0.45311   0.75000   0.00000  Uiso   1.00
F877   F     0.19807   0.57693   0.53118   0.00000  Uiso   1.00
F878   F     0.13526   0.42307   0.96882   0.00000  Uiso   1.00
F879   F     0.15234   0.58440   0.97007   0.00000  Uiso   1.00
F880   F     0.18099   0.41560   0.52993   0.00000  Uiso   1.00
F881   F     0.18715   0.58038   0.61647   0.00000  Uiso   1.00
F882   F     0.14619   0.41962   0.88353   0.00000  Uiso   1.00
F883   F     0.16430   0.58425   0.88509   0.00000  Uiso   1.00
F884   F     0.16903   0.41575   0.61491   0.00000  Uiso   1.00
H885   H     0.11079   0.41437   0.67785   0.00000  Uiso   1.00
H886   H     0.22254   0.58563   0.82215   0.00000  Uiso   1.00
H887   H     0.22907   0.41386   0.81169   0.00000  Uiso   1.00
H888   H     0.10427   0.58614   0.68830   0.00000  Uiso   1.00
H889   H     0.03962   0.38719   0.78541   0.00000  Uiso   1.00
H890   H     0.29371   0.61281   0.71459   0.00000  Uiso   1.00
H891   H     0.30059   0.39122   0.79142   0.00000  Uiso   1.00
H892   H     0.03273   0.60876   0.70853   0.00000  Uiso   1.00
N893   N     0.16667   0.61736   0.75000   0.00000  Uiso   1.00
N894   N     0.16667   0.38264   0.75000   0.00000  Uiso   1.00
O895   O     0.10655   0.53958   0.75000   0.00000  Uiso   1.00
O896   O     0.26255   0.62941   0.80193   0.00000  Uiso   1.00
O897   O     0.21764   0.36422   0.85293   0.00000  Uiso   1.00
O898   O     0.11570   0.63578   0.64707   0.00000  Uiso   1.00
O899   O     0.07064   0.43199   0.82304   0.00000  Uiso   1.00
O900   O     0.26269   0.56801   0.67695   0.00000  Uiso   1.00
O901   O     0.27887   0.39329   0.72903   0.00000  Uiso   1.00
O902   O     0.05448   0.60672   0.77091   0.00000  Uiso   1.00
O903   O     0.22679   0.46042   0.75001   0.00000  Uiso   1.00
O904   O     0.22679   0.53958   0.75001   0.00000  Uiso   1.00
O905   O     0.10655   0.46042   0.75000   0.00000  Uiso   1.00
O906   O     0.16666   0.53959   0.68573   0.00000  Uiso   1.00
O907   O     0.16667   0.46041   0.81427   0.00000  Uiso   1.00
O908   O     0.16667   0.53959   0.81427   0.00000  Uiso   1.00
O909   O     0.16666   0.46041   0.68573   0.00000  Uiso   1.00
O910   O     0.07079   0.37059   0.69806   0.00000  Uiso   1.00
C911   C     0.42091   0.50080   0.75287   0.00000  Uiso   1.00
C912   C     0.64363   0.53842   0.73189   0.00000  Uiso   1.00
C913   C     0.64762   0.45762   0.75785   0.00000  Uiso   1.00
C914   C     0.35238   0.54238   0.74213   0.00000  Uiso   1.00
C915   C     0.51429   0.53971   0.54926   0.00000  Uiso   1.00
C916   C     0.48570   0.46028   0.95074   0.00000  Uiso   1.00
C917   C     0.49440   0.54288   0.95139   0.00000  Uiso   1.00
C918   C     0.50560   0.45712   0.54861   0.00000  Uiso   1.00
C919   C     0.51226   0.54022   0.59469   0.00000  Uiso   1.00
C920   C     0.48774   0.45978   0.90531   0.00000  Uiso   1.00
C921   C     0.49653   0.54271   0.90601   0.00000  Uiso   1.00
C922   C     0.57909   0.49920   0.74713   0.00000  Uiso   1.00
C923   C     0.50346   0.45729   0.59399   0.00000  Uiso   1.00
C924   C     0.50425   0.49938   0.61729   0.00000  Uiso   1.00
C925   C     0.49575   0.50062   0.88271   0.00000  Uiso   1.00
C926   C     0.50434   0.49932   0.52465   0.00000  Uiso   1.00
C927   C     0.49566   0.50068   0.97535   0.00000  Uiso   1.00
C928   C     0.62393   0.49746   0.74349   0.00000  Uiso   1.00
C929   C     0.37607   0.50254   0.75650   0.00000  Uiso   1.00
C930   C     0.43917   0.38404   0.69715   0.00000  Uiso   1.00
C931   C     0.56083   0.61596   0.80285   0.00000  Uiso   1.00
C932   C     0.54827   0.38110   0.81608   0.00000  Uiso   1.00
C933   C     0.50106   0.49989   0.66517   0.00000  Uiso   1.00
C934   C     0.45173   0.61890   0.68391   0.00000  Uiso   1.00
C935   C     0.37906   0.42328   0.79291   0.00000  Uiso   1.00
C936   C     0.62094   0.57672   0.70709   0.00000  Uiso   1.00
C937   C     0.62974   0.41097   0.76111   0.00000  Uiso   1.00
C938   C     0.37026   0.58903   0.73885   0.00000  Uiso   1.00
C939   C     0.49894   0.50011   0.83483   0.00000  Uiso   1.00
C940   C     0.47317   0.35888   0.72226   0.00000  Uiso   1.00
C941   C     0.52683   0.64112   0.77774   0.00000  Uiso   1.00
C942   C     0.52525   0.35738   0.77942   0.00000  Uiso   1.00
C943   C     0.47476   0.64262   0.72058   0.00000  Uiso   1.00
C944   C     0.35636   0.46158   0.76810   0.00000  Uiso   1.00
Cu945  Cu    0.50000   0.54689   0.75000   0.00000  Uiso   1.00
Cu946  Cu    0.50000   0.45311   0.75000   0.00000  Uiso   1.00
F947   F     0.53141   0.57693   0.53118   0.00000  Uiso   1.00
F948   F     0.46859   0.42307   0.96882   0.00000  Uiso   1.00
F949   F     0.48567   0.58440   0.97007   0.00000  Uiso   1.00
F950   F     0.51432   0.41560   0.52993   0.00000  Uiso   1.00
F951   F     0.52048   0.58038   0.61647   0.00000  Uiso   1.00
F952   F     0.47952   0.41962   0.88353   0.00000  Uiso   1.00
F953   F     0.49764   0.58425   0.88509   0.00000  Uiso   1.00
F954   F     0.50236   0.41575   0.61491   0.00000  Uiso   1.00
H955   H     0.44412   0.41437   0.67785   0.00000  Uiso   1.00
H956   H     0.55587   0.58563   0.82215   0.00000  Uiso   1.00
H957   H     0.56240   0.41386   0.81169   0.00000  Uiso   1.00
H958   H     0.43760   0.58614   0.68830   0.00000  Uiso   1.00
H959   H     0.37295   0.38719   0.78541   0.00000  Uiso   1.00
H960   H     0.62704   0.61281   0.71459   0.00000  Uiso   1.00
H961   H     0.63393   0.39122   0.79142   0.00000  Uiso   1.00
H962   H     0.36607   0.60876   0.70853   0.00000  Uiso   1.00
N963   N     0.50000   0.61736   0.75000   0.00000  Uiso   1.00
N964   N     0.50000   0.38264   0.75000   0.00000  Uiso   1.00
O965   O     0.43988   0.53958   0.75000   0.00000  Uiso   1.00
O966   O     0.59588   0.62941   0.80193   0.00000  Uiso   1.00
O967   O     0.55097   0.36422   0.85293   0.00000  Uiso   1.00
O968   O     0.44904   0.63578   0.64707   0.00000  Uiso   1.00
O969   O     0.40397   0.43199   0.82304   0.00000  Uiso   1.00
O970   O     0.59602   0.56801   0.67695   0.00000  Uiso   1.00
O971   O     0.61220   0.39329   0.72903   0.00000  Uiso   1.00
O972   O     0.38781   0.60672   0.77091   0.00000  Uiso   1.00
O973   O     0.56012   0.46042   0.75001   0.00000  Uiso   1.00
O974   O     0.56012   0.53958   0.75001   0.00000  Uiso   1.00
O975   O     0.43988   0.46042   0.75000   0.00000  Uiso   1.00
O976   O     0.50000   0.53959   0.68573   0.00000  Uiso   1.00
O977   O     0.50000   0.46041   0.81427   0.00000  Uiso   1.00
O978   O     0.50000   0.53959   0.81427   0.00000  Uiso   1.00
O979   O     0.50000   0.46041   0.68573   0.00000  Uiso   1.00
O980   O     0.40412   0.37059   0.69806   0.00000  Uiso   1.00
C981   C     0.75424   0.50080   0.75287   0.00000  Uiso   1.00
C982   C     0.97697   0.53842   0.73189   0.00000  Uiso   1.00
C983   C     0.98095   0.45762   0.75785   0.00000  Uiso   1.00
C984   C     0.68572   0.54238   0.74213   0.00000  Uiso   1.00
C985   C     0.84763   0.53971   0.54926   0.00000  Uiso   1.00
C986   C     0.81904   0.46028   0.95074   0.00000  Uiso   1.00
C987   C     0.82773   0.54288   0.95139   0.00000  Uiso   1.00
C988   C     0.83893   0.45712   0.54861   0.00000  Uiso   1.00
C989   C     0.84559   0.54022   0.59469   0.00000  Uiso   1.00
C990   C     0.82108   0.45978   0.90531   0.00000  Uiso   1.00
C991   C     0.82987   0.54271   0.90601   0.00000  Uiso   1.00
C992   C     0.91242   0.49920   0.74713   0.00000  Uiso   1.00
C993   C     0.83680   0.45729   0.59399   0.00000  Uiso   1.00
C994   C     0.83758   0.49938   0.61729   0.00000  Uiso   1.00
C995   C     0.82908   0.50062   0.88271   0.00000  Uiso   1.00
C996   C     0.83767   0.49932   0.52465   0.00000  Uiso   1.00
C997   C     0.82900   0.50068   0.97535   0.00000  Uiso   1.00
C998   C     0.95726   0.49746   0.74349   0.00000  Uiso   1.00
C999   C     0.70940   0.50254   0.75650   0.00000  Uiso   1.00
C1000  C     0.77250   0.38404   0.69715   0.00000  Uiso   1.00
C1001  C     0.89416   0.61596   0.80285   0.00000  Uiso   1.00
C1002  C     0.88160   0.38110   0.81608   0.00000  Uiso   1.00
C1003  C     0.83439   0.49989   0.66517   0.00000  Uiso   1.00
C1004  C     0.78507   0.61890   0.68391   0.00000  Uiso   1.00
C1005  C     0.71239   0.42328   0.79291   0.00000  Uiso   1.00
C1006  C     0.95427   0.57672   0.70709   0.00000  Uiso   1.00
C1007  C     0.96307   0.41097   0.76111   0.00000  Uiso   1.00
C1008  C     0.70359   0.58903   0.73885   0.00000  Uiso   1.00
C1009  C     0.83227   0.50011   0.83483   0.00000  Uiso   1.00
C1010  C     0.80650   0.35888   0.72226   0.00000  Uiso   1.00
C1011  C     0.86017   0.64112   0.77774   0.00000  Uiso   1.00
C1012  C     0.85858   0.35738   0.77942   0.00000  Uiso   1.00
C1013  C     0.80809   0.64262   0.72058   0.00000  Uiso   1.00
C1014  C     0.68970   0.46158   0.76810   0.00000  Uiso   1.00
Cu1015 Cu    0.83333   0.54689   0.75000   0.00000  Uiso   1.00
Cu1016 Cu    0.83333   0.45311   0.75000   0.00000  Uiso   1.00
F1017  F     0.86474   0.57693   0.53118   0.00000  Uiso   1.00
F1018  F     0.80192   0.42307   0.96882   0.00000  Uiso   1.00
F1019  F     0.81901   0.58440   0.97007   0.00000  Uiso   1.00
F1020  F     0.84766   0.41560   0.52993   0.00000  Uiso   1.00
F1021  F     0.85381   0.58038   0.61647   0.00000  Uiso   1.00
F1022  F     0.81285   0.41962   0.88353   0.00000  Uiso   1.00
F1023  F     0.83097   0.58425   0.88509   0.00000  Uiso   1.00
F1024  F     0.83570   0.41575   0.61491   0.00000  Uiso   1.00
H1025  H     0.77746   0.41437   0.67785   0.00000  Uiso   1.00
H1026  H     0.88921   0.58563   0.82215   0.00000  Uiso   1.00
H1027  H     0.89574   0.41386   0.81169   0.00000  Uiso   1.00
H1028  H     0.77093   0.58614   0.68830   0.00000  Uiso   1.00
H1029  H     0.70629   0.38719   0.78541   0.00000  Uiso   1.00
H1030  H     0.96038   0.61281   0.71459   0.00000  Uiso   1.00
H1031  H     0.96726   0.39122   0.79142   0.00000  Uiso   1.00
H1032  H     0.69940   0.60876   0.70853   0.00000  Uiso   1.00
N1033  N     0.83333   0.61736   0.75000   0.00000  Uiso   1.00
N1034  N     0.83333   0.38264   0.75000   0.00000  Uiso   1.00
O1035  O     0.77321   0.53958   0.75000   0.00000  Uiso   1.00
O1036  O     0.92921   0.62941   0.80193   0.00000  Uiso   1.00
O1037  O     0.88431   0.36422   0.85293   0.00000  Uiso   1.00
O1038  O     0.78237   0.63578   0.64707   0.00000  Uiso   1.00
O1039  O     0.73731   0.43199   0.82304   0.00000  Uiso   1.00
O1040  O     0.92935   0.56801   0.67695   0.00000  Uiso   1.00
O1041  O     0.94553   0.39329   0.72903   0.00000  Uiso   1.00
O1042  O     0.72115   0.60672   0.77091   0.00000  Uiso   1.00
O1043  O     0.89345   0.46042   0.75001   0.00000  Uiso   1.00
O1044  O     0.89345   0.53958   0.75001   0.00000  Uiso   1.00
O1045  O     0.77321   0.46042   0.75000   0.00000  Uiso   1.00
O1046  O     0.83333   0.53959   0.68573   0.00000  Uiso   1.00
O1047  O     0.83334   0.46041   0.81427   0.00000  Uiso   1.00
O1048  O     0.83334   0.53959   0.81427   0.00000  Uiso   1.00
O1049  O     0.83333   0.46041   0.68573   0.00000  Uiso   1.00
O1050  O     0.73746   0.37059   0.69806   0.00000  Uiso   1.00
C1051  C     0.08757   0.83413   0.75287   0.00000  Uiso   1.00
C1052  C     0.31030   0.87175   0.73189   0.00000  Uiso   1.00
C1053  C     0.31428   0.79095   0.75785   0.00000  Uiso   1.00
C1054  C     0.01905   0.87571   0.74213   0.00000  Uiso   1.00
C1055  C     0.18096   0.87305   0.54926   0.00000  Uiso   1.00
C1056  C     0.15237   0.79362   0.95074   0.00000  Uiso   1.00
C1057  C     0.16107   0.87622   0.95139   0.00000  Uiso   1.00
C1058  C     0.17226   0.79045   0.54861   0.00000  Uiso   1.00
C1059  C     0.17892   0.87356   0.59469   0.00000  Uiso   1.00
C1060  C     0.15441   0.79311   0.90531   0.00000  Uiso   1.00
C1061  C     0.16320   0.87604   0.90601   0.00000  Uiso   1.00
C1062  C     0.24576   0.83253   0.74713   0.00000  Uiso   1.00
C1063  C     0.17013   0.79062   0.59399   0.00000  Uiso   1.00
C1064  C     0.17092   0.83271   0.61729   0.00000  Uiso   1.00
C1065  C     0.16241   0.83396   0.88271   0.00000  Uiso   1.00
C1066  C     0.17100   0.83266   0.52465   0.00000  Uiso   1.00
C1067  C     0.16233   0.83401   0.97535   0.00000  Uiso   1.00
C1068  C     0.29060   0.83079   0.74349   0.00000  Uiso   1.00
C1069  C     0.04273   0.83587   0.75650   0.00000  Uiso   1.00
C1070  C     0.10584   0.71737   0.69715   0.00000  Uiso   1.00
C1071  C     0.22750   0.94929   0.80285   0.00000  Uiso   1.00
C1072  C     0.21494   0.71444   0.81608   0.00000  Uiso   1.00
C1073  C     0.16773   0.83322   0.66517   0.00000  Uiso   1.00
C1074  C     0.11840   0.95223   0.68391   0.00000  Uiso   1.00
C1075  C     0.04573   0.75661   0.79291   0.00000  Uiso   1.00
C1076  C     0.28760   0.91006   0.70709   0.00000  Uiso   1.00
C1077  C     0.29641   0.74430   0.76111   0.00000  Uiso   1.00
C1078  C     0.03693   0.92236   0.73885   0.00000  Uiso   1.00
C1079  C     0.16561   0.83345   0.83483   0.00000  Uiso   1.00
C1080  C     0.13983   0.69221   0.72226   0.00000  Uiso   1.00
C1081  C     0.19350   0.97446   0.77774   0.00000  Uiso   1.00
C1082  C     0.19191   0.69071   0.77942   0.00000  Uiso   1.00
C1083  C     0.14142   0.97596   0.72058   0.00000  Uiso   1.00
C1084  C     0.02303   0.79491   0.76810   0.00000  Uiso   1.00
Cu1085 Cu    0.16667   0.88022   0.75000   0.00000  Uiso   1.00
Cu1086 Cu    0.16667   0.78645   0.75000   0.00000  Uiso   1.00
F1087  F     0.19807   0.91026   0.53118   0.00000  Uiso   1.00
F1088  F     0.13526   0.75640   0.96882   0.00000  Uiso   1.00
F1089  F     0.15234   0.91773   0.97007   0.00000  Uiso   1.00
F1090  F     0.18099   0.74893   0.52993   0.00000  Uiso   1.00
F1091  F     0.18715   0.91371   0.61647   0.00000  Uiso   1.00
F1092  F     0.14619   0.75296   0.88353   0.00000  Uiso   1.00
F1093  F     0.16430   0.91759   0.88509   0.00000  Uiso   1.00
F1094  F     0.16903   0.74908   0.61491   0.00000  Uiso   1.00
H1095  H     0.11079   0.74771   0.67785   0.00000  Uiso   1.00
H1096  H     0.22254   0.91896   0.82215   0.00000  Uiso   1.00
H1097  H     0.22907   0.74719   0.81169   0.00000  Uiso   1.00
H1098  H     0.10427   0.91948   0.68830   0.00000  Uiso   1.00
H1099  H     0.03962   0.72052   0.78541   0.00000  Uiso   1.00
H1100  H     0.29371   0.94614   0.71459   0.00000  Uiso   1.00
H1101  H     0.30059   0.72455   0.79142   0.00000  Uiso   1.00
H1102  H     0.03273   0.94209   0.70853   0.00000  Uiso   1.00
N1103  N     0.16667   0.95069   0.75000   0.00000  Uiso   1.00
N1104  N     0.16667   0.71598   0.75000   0.00000  Uiso   1.00
O1105  O     0.10655   0.87291   0.75000   0.00000  Uiso   1.00
O1106  O     0.26255   0.96274   0.80193   0.00000  Uiso   1.00
O1107  O     0.21764   0.69755   0.85293   0.00000  Uiso   1.00
O1108  O     0.11570   0.96912   0.64707   0.00000  Uiso   1.00
O1109  O     0.07064   0.76532   0.82304   0.00000  Uiso   1.00
O1110  O     0.26269   0.90135   0.67695   0.00000  Uiso   1.00
O1111  O     0.27887   0.72662   0.72903   0.00000  Uiso   1.00
O1112  O     0.05448   0.94006   0.77091   0.00000  Uiso   1.00
O1113  O     0.22679   0.79375   0.75001   0.00000  Uiso   1.00
O1114  O     0.22679   0.87291   0.75001   0.00000  Uiso   1.00
O1115  O     0.10655   0.79375   0.75000   0.00000  Uiso   1.00
O1116  O     0.16666   0.87293   0.68573   0.00000  Uiso   1.00
O1117  O     0.16667   0.79374   0.81427   0.00000  Uiso   1.00
O1118  O     0.16667   0.87293   0.81427   0.00000  Uiso   1.00
O1119  O     0.16666   0.79374   0.68573   0.00000  Uiso   1.00
O1120  O     0.07079   0.70392   0.69806   0.00000  Uiso   1.00
C1121  C     0.42091   0.83413   0.75287   0.00000  Uiso   1.00
C1122  C     0.64363   0.87175   0.73189   0.00000  Uiso   1.00
C1123  C     0.64762   0.79095   0.75785   0.00000  Uiso   1.00
C1124  C     0.35238   0.87571   0.74213   0.00000  Uiso   1.00
C1125  C     0.51429   0.87305   0.54926   0.00000  Uiso   1.00
C1126  C     0.48570   0.79362   0.95074   0.00000  Uiso   1.00
C1127  C     0.49440   0.87622   0.95139   0.00000  Uiso   1.00
C1128  C     0.50560   0.79045   0.54861   0.00000  Uiso   1.00
C1129  C     0.51226   0.87356   0.59469   0.00000  Uiso   1.00
C1130  C     0.48774   0.79311   0.90531   0.00000  Uiso   1.00
C1131  C     0.49653   0.87604   0.90601   0.00000  Uiso   1.00
C1132  C     0.57909   0.83253   0.74713   0.00000  Uiso   1.00
C1133  C     0.50346   0.79062   0.59399   0.00000  Uiso   1.00
C1134  C     0.50425   0.83271   0.61729   0.00000  Uiso   1.00
C1135  C     0.49575   0.83396   0.88271   0.00000  Uiso   1.00
C1136  C     0.50434   0.83266   0.52465   0.00000  Uiso   1.00
C1137  C     0.49566   0.83401   0.97535   0.00000  Uiso   1.00
C1138  C     0.62393   0.83079   0.74349   0.00000  Uiso   1.00
C1139  C     0.37607   0.83587   0.75650   0.00000  Uiso   1.00
C1140  C     0.43917   0.71737   0.69715   0.00000  Uiso   1.00
C1141  C     0.56083   0.94929   0.80285   0.00000  Uiso   1.00
C1142  C     0.54827   0.71444   0.81608   0.00000  Uiso   1.00
C1143  C     0.50106   0.83322   0.66517   0.00000  Uiso   1.00
C1144  C     0.45173   0.95223   0.68391   0.00000  Uiso   1.00
C1145  C     0.37906   0.75661   0.79291   0.00000  Uiso   1.00
C1146  C     0.62094   0.91006   0.70709   0.00000  Uiso   1.00
C1147  C     0.62974   0.74430   0.76111   0.00000  Uiso   1.00
C1148  C     0.37026   0.92236   0.73885   0.00000  Uiso   1.00
C1149  C     0.49894   0.83345   0.83483   0.00000  Uiso   1.00
C1150  C     0.47317   0.69221   0.72226   0.00000  Uiso   1.00
C1151  C     0.52683   0.97446   0.77774   0.00000  Uiso   1.00
C1152  C     0.52525   0.69071   0.77942   0.00000  Uiso   1.00
C1153  C     0.47476   0.97596   0.72058   0.00000  Uiso   1.00
C1154  C     0.35636   0.79491   0.76810   0.00000  Uiso   1.00
Cu1155 Cu    0.50000   0.88022   0.75000   0.00000  Uiso   1.00
Cu1156 Cu    0.50000   0.78645   0.75000   0.00000  Uiso   1.00
F1157  F     0.53141   0.91026   0.53118   0.00000  Uiso   1.00
F1158  F     0.46859   0.75640   0.96882   0.00000  Uiso   1.00
F1159  F     0.48567   0.91773   0.97007   0.00000  Uiso   1.00
F1160  F     0.51432   0.74893   0.52993   0.00000  Uiso   1.00
F1161  F     0.52048   0.91371   0.61647   0.00000  Uiso   1.00
F1162  F     0.47952   0.75296   0.88353   0.00000  Uiso   1.00
F1163  F     0.49764   0.91759   0.88509   0.00000  Uiso   1.00
F1164  F     0.50236   0.74908   0.61491   0.00000  Uiso   1.00
H1165  H     0.44412   0.74771   0.67785   0.00000  Uiso   1.00
H1166  H     0.55587   0.91896   0.82215   0.00000  Uiso   1.00
H1167  H     0.56240   0.74719   0.81169   0.00000  Uiso   1.00
H1168  H     0.43760   0.91948   0.68830   0.00000  Uiso   1.00
H1169  H     0.37295   0.72052   0.78541   0.00000  Uiso   1.00
H1170  H     0.62704   0.94614   0.71459   0.00000  Uiso   1.00
H1171  H     0.63393   0.72455   0.79142   0.00000  Uiso   1.00
H1172  H     0.36607   0.94209   0.70853   0.00000  Uiso   1.00
N1173  N     0.50000   0.95069   0.75000   0.00000  Uiso   1.00
N1174  N     0.50000   0.71598   0.75000   0.00000  Uiso   1.00
O1175  O     0.43988   0.87291   0.75000   0.00000  Uiso   1.00
O1176  O     0.59588   0.96274   0.80193   0.00000  Uiso   1.00
O1177  O     0.55097   0.69755   0.85293   0.00000  Uiso   1.00
O1178  O     0.44904   0.96912   0.64707   0.00000  Uiso   1.00
O1179  O     0.40397   0.76532   0.82304   0.00000  Uiso   1.00
O1180  O     0.59602   0.90135   0.67695   0.00000  Uiso   1.00
O1181  O     0.61220   0.72662   0.72903   0.00000  Uiso   1.00
O1182  O     0.38781   0.94006   0.77091   0.00000  Uiso   1.00
O1183  O     0.56012   0.79375   0.75001   0.00000  Uiso   1.00
O1184  O     0.56012   0.87291   0.75001   0.00000  Uiso   1.00
O1185  O     0.43988   0.79375   0.75000   0.00000  Uiso   1.00
O1186  O     0.50000   0.87293   0.68573   0.00000  Uiso   1.00
O1187  O     0.50000   0.79374   0.81427   0.00000  Uiso   1.00
O1188  O     0.50000   0.87293   0.81427   0.00000  Uiso   1.00
O1189  O     0.50000   0.79374   0.68573   0.00000  Uiso   1.00
O1190  O     0.40412   0.70392   0.69806   0.00000  Uiso   1.00
C1191  C     0.75424   0.83413   0.75287   0.00000  Uiso   1.00
C1192  C     0.97697   0.87175   0.73189   0.00000  Uiso   1.00
C1193  C     0.98095   0.79095   0.75785   0.00000  Uiso   1.00
C1194  C     0.68572   0.87571   0.74213   0.00000  Uiso   1.00
C1195  C     0.84763   0.87305   0.54926   0.00000  Uiso   1.00
C1196  C     0.81904   0.79362   0.95074   0.00000  Uiso   1.00
C1197  C     0.82773   0.87622   0.95139   0.00000  Uiso   1.00
C1198  C     0.83893   0.79045   0.54861   0.00000  Uiso   1.00
C1199  C     0.84559   0.87356   0.59469   0.00000  Uiso   1.00
C1200  C     0.82108   0.79311   0.90531   0.00000  Uiso   1.00
C1201  C     0.82987   0.87604   0.90601   0.00000  Uiso   1.00
C1202  C     0.91242   0.83253   0.74713   0.00000  Uiso   1.00
C1203  C     0.83680   0.79062   0.59399   0.00000  Uiso   1.00
C1204  C     0.83758   0.83271   0.61729   0.00000  Uiso   1.00
C1205  C     0.82908   0.83396   0.88271   0.00000  Uiso   1.00
C1206  C     0.83767   0.83266   0.52465   0.00000  Uiso   1.00
C1207  C     0.82900   0.83401   0.97535   0.00000  Uiso   1.00
C1208  C     0.95726   0.83079   0.74349   0.00000  Uiso   1.00
C1209  C     0.70940   0.83587   0.75650   0.00000  Uiso   1.00
C1210  C     0.77250   0.71737   0.69715   0.00000  Uiso   1.00
C1211  C     0.89416   0.94929   0.80285   0.00000  Uiso   1.00
C1212  C     0.88160   0.71444   0.81608   0.00000  Uiso   1.00
C1213  C     0.83439   0.83322   0.66517   0.00000  Uiso   1.00
C1214  C     0.78507   0.95223   0.68391   0.00000  Uiso   1.00
C1215  C     0.71239   0.75661   0.79291   0.00000  Uiso   1.00
C1216  C     0.95427   0.91006   0.70709   0.00000  Uiso   1.00
C1217  C     0.96307   0.74430   0.76111   0.00000  Uiso   1.00
C1218  C     0.70359   0.92236   0.73885   0.00000  Uiso   1.00
C1219  C     0.83227   0.83345   0.83483   0.00000  Uiso   1.00
C1220  C     0.80650   0.69221   0.72226   0.00000  Uiso   1.00
C1221  C     0.86017   0.97446   0.77774   0.00000  Uiso   1.00
C1222  C     0.85858   0.69071   0.77942   0.00000  Uiso   1.00
C1223  C     0.80809   0.97596   0.72058   0.00000  Uiso   1.00
C1224  C     0.68970   0.79491   0.76810   0.00000  Uiso   1.00
Cu1225 Cu    0.83333   0.88022   0.75000   0.00000  Uiso   1.00
Cu1226 Cu    0.83333   0.78645   0.75000   0.00000  Uiso   1.00
F1227  F     0.86474   0.91026   0.53118   0.00000  Uiso   1.00
F1228  F     0.80192   0.75640   0.96882   0.00000  Uiso   1.00
F1229  F     0.81901   0.91773   0.97007   0.00000  Uiso   1.00
F1230  F     0.84766   0.74893   0.52993   0.00000  Uiso   1.00
F1231  F     0.85381   0.91371   0.61647   0.00000  Uiso   1.00
F1232  F     0.81285   0.75296   0.88353   0.00000  Uiso   1.00
F1233  F     0.83097   0.91759   0.88509   0.00000  Uiso   1.00
F1234  F     0.83570   0.74908   0.61491   0.00000  Uiso   1.00
H1235  H     0.77746   0.74771   0.67785   0.00000  Uiso   1.00
H1236  H     0.88921   0.91896   0.82215   0.00000  Uiso   1.00
H1237  H     0.89574   0.74719   0.81169   0.00000  Uiso   1.00
H1238  H     0.77093   0.91948   0.68830   0.00000  Uiso   1.00
H1239  H     0.70629   0.72052   0.78541   0.00000  Uiso   1.00
H1240  H     0.96038   0.94614   0.71459   0.00000  Uiso   1.00
H1241  H     0.96726   0.72455   0.79142   0.00000  Uiso   1.00
H1242  H     0.69940   0.94209   0.70853   0.00000  Uiso   1.00
N1243  N     0.83333   0.95069   0.75000   0.00000  Uiso   1.00
N1244  N     0.83333   0.71598   0.75000   0.00000  Uiso   1.00
O1245  O     0.77321   0.87291   0.75000   0.00000  Uiso   1.00
O1246  O     0.92921   0.96274   0.80193   0.00000  Uiso   1.00
O1247  O     0.88431   0.69755   0.85293   0.00000  Uiso   1.00
O1248  O     0.78237   0.96912   0.64707   0.00000  Uiso   1.00
O1249  O     0.73731   0.76532   0.82304   0.00000  Uiso   1.00
O1250  O     0.92935   0.90135   0.67695   0.00000  Uiso   1.00
O1251  O     0.94553   0.72662   0.72903   0.00000  Uiso   1.00
O1252  O     0.72115   0.94006   0.77091   0.00000  Uiso   1.00
O1253  O     0.89345   0.79375   0.75001   0.00000  Uiso   1.00
O1254  O     0.89345   0.87291   0.75001   0.00000  Uiso   1.00
O1255  O     0.77321   0.79375   0.75000   0.00000  Uiso   1.00
O1256  O     0.83333   0.87293   0.68573   0.00000  Uiso   1.00
O1257  O     0.83334   0.79374   0.81427   0.00000  Uiso   1.00
O1258  O     0.83334   0.87293   0.81427   0.00000  Uiso   1.00
O1259  O     0.83333   0.79374   0.68573   0.00000  Uiso   1.00
O1260  O     0.73746   0.70392   0.69806   0.00000  Uiso   1.00
loop_
_geom_bond_atom_site_label_1
_geom_bond_atom_site_label_2
_geom_bond_distance
_geom_bond_site_symmetry_2
_ccdc_geom_bond_type
C1     O65     1.309   .     A
C1     O55     1.297   .     A
C1     C19     1.477   .     S
C2     C26     1.493   .     S
C2     C18     1.414   .     A
C2     C74     1.400   .     S
C3     C27     1.485   .     S
C3     C18     1.421   .     A
C3     C104    1.400   .     S
C4     C28     1.485   .     S
C4     C19     1.421   .     A
C4     C142    1.400   1_455 S
C5     C9      1.390   .     A
C5     F37     1.355   .     S
C5     C16     1.418   .     A
C6     C10     1.390   .     A
C6     F38     1.355   .     S
C6     C17     1.418   .     A
C7     C11     1.389   .     A
C7     F39     1.355   .     S
C7     C17     1.417   .     A
C8     C13     1.389   .     A
C8     C16     1.417   .     A
C8     F40     1.355   .     S
C9     C14     1.402   .     A
C9     F41     1.358   .     S
C10    F42     1.358   .     S
C10    C15     1.402   .     A
C11    C15     1.404   .     A
C11    F43     1.358   .     S
C12    O64     1.309   .     A
C12    C18     1.477   .     S
C12    O63     1.297   .     A
C13    C14     1.404   .     A
C13    F44     1.358   .     S
C14    C23     1.470   .     S
C15    C29     1.470   .     S
C16    C647    1.513   1_554 S
C17    C646    1.513   .     S
C19    C34     1.414   .     A
C20    C30     1.484   .     S
C20    O70     1.222   .     D
C20    H45     1.075   .     S
C21    O56     1.222   .     D
C21    C31     1.484   .     S
C21    H46     1.075   .     S
C22    O57     1.222   .     D
C22    H47     1.073   .     S
C22    C32     1.486   .     S
C23    O69     1.301   .     A
C23    O66     1.304   .     A
C24    C33     1.486   .     S
C24    H48     1.073   .     S
C24    O58     1.222   .     D
C25    C34     1.493   .     S
C25    H49     1.085   .     S
C25    O59     1.221   .     D
C26    H50     1.085   .     S
C26    O60     1.221   .     D
C27    H51     1.085   .     S
C27    O61     1.221   .     D
C28    H52     1.085   .     S
C28    O62     1.221   .     D
C29    O68     1.301   .     A
C29    O67     1.304   .     A
C30    N54     1.377   .     A
C30    C453    1.428   1_545 S
C31    N53     1.377   .     A
C31    C242    1.428   .     S
C32    N54     1.377   .     A
C32    C451    1.428   1_545 S
C33    N53     1.377   .     A
C33    C240    1.428   .     S
C34    C143    1.400   1_455 S
Cu35   O64     1.972   .     S
Cu35   O68     1.970   .     S
Cu35   N53     2.029   .     S
Cu35   O55     1.983   .     S
Cu35   O66     1.970   .     S
Cu35   Cu36    2.700   .     S
Cu36   O67     1.970   .     S
Cu36   N54     2.029   .     S
Cu36   O69     1.970   .     S
Cu36   O65     1.972   .     S
Cu36   O63     1.983   .     S
C71    O135    1.309   .     A
C71    O125    1.297   .     A
C71    C89     1.477   .     S
C72    C96     1.493   .     S
C72    C88     1.414   .     A
C72    C144    1.400   .     S
C73    C97     1.485   .     S
C73    C88     1.421   .     A
C73    C174    1.400   .     S
C74    C98     1.485   .     S
C74    C89     1.421   .     A
C75    C79     1.390   .     A
C75    F107    1.355   .     S
C75    C86     1.418   .     A
C76    C80     1.390   .     A
C76    F108    1.355   .     S
C76    C87     1.418   .     A
C77    C81     1.389   .     A
C77    F109    1.355   .     S
C77    C87     1.417   .     A
C78    C83     1.389   .     A
C78    C86     1.417   .     A
C78    F110    1.355   .     S
C79    C84     1.402   .     A
C79    F111    1.358   .     S
C80    F112    1.358   .     S
C80    C85     1.402   .     A
C81    C85     1.404   .     A
C81    F113    1.358   .     S
C82    O134    1.309   .     A
C82    C88     1.477   .     S
C82    O133    1.297   .     A
C83    C84     1.404   .     A
C83    F114    1.358   .     S
C84    C93     1.470   .     S
C85    C99     1.470   .     S
C86    C717    1.513   1_554 S
C87    C716    1.513   .     S
C89    C104    1.414   .     A
C90    C100    1.484   .     S
C90    O140    1.222   .     D
C90    H115    1.075   .     S
C91    O126    1.222   .     D
C91    C101    1.484   .     S
C91    H116    1.075   .     S
C92    O127    1.222   .     D
C92    H117    1.073   .     S
C92    C102    1.486   .     S
C93    O139    1.301   .     A
C93    O136    1.304   .     A
C94    C103    1.486   .     S
C94    H118    1.073   .     S
C94    O128    1.222   .     D
C95    C104    1.493   .     S
C95    H119    1.085   .     S
C95    O129    1.221   .     D
C96    H120    1.085   .     S
C96    O130    1.221   .     D
C97    H121    1.085   .     S
C97    O131    1.221   .     D
C98    H122    1.085   .     S
C98    O132    1.221   .     D
C99    O138    1.301   .     A
C99    O137    1.304   .     A
C100   N124    1.377   .     A
C100   C523    1.428   1_545 S
C101   N123    1.377   .     A
C101   C312    1.428   .     S
C102   N124    1.377   .     A
C102   C521    1.428   1_545 S
C103   N123    1.377   .     A
C103   C310    1.428   .     S
Cu105  O134    1.972   .     S
Cu105  O138    1.970   .     S
Cu105  N123    2.029   .     S
Cu105  O125    1.983   .     S
Cu105  O136    1.970   .     S
Cu105  Cu106   2.700   .     S
Cu106  O137    1.970   .     S
Cu106  N124    2.029   .     S
Cu106  O139    1.970   .     S
Cu106  O135    1.972   .     S
Cu106  O133    1.983   .     S
C141   O205    1.309   .     A
C141   O195    1.297   .     A
C141   C159    1.477   .     S
C142   C166    1.493   .     S
C142   C158    1.414   .     A
C142   C4      1.400   1_655 S
C143   C167    1.485   .     S
C143   C158    1.421   .     A
C143   C34     1.400   1_655 S
C144   C168    1.485   .     S
C144   C159    1.421   .     A
C145   C149    1.390   .     A
C145   F177    1.355   .     S
C145   C156    1.418   .     A
C146   C150    1.390   .     A
C146   F178    1.355   .     S
C146   C157    1.418   .     A
C147   C151    1.389   .     A
C147   F179    1.355   .     S
C147   C157    1.417   .     A
C148   C153    1.389   .     A
C148   C156    1.417   .     A
C148   F180    1.355   .     S
C149   C154    1.402   .     A
C149   F181    1.358   .     S
C150   F182    1.358   .     S
C150   C155    1.402   .     A
C151   C155    1.404   .     A
C151   F183    1.358   .     S
C152   O204    1.309   .     A
C152   C158    1.477   .     S
C152   O203    1.297   .     A
C153   C154    1.404   .     A
C153   F184    1.358   .     S
C154   C163    1.470   .     S
C155   C169    1.470   .     S
C156   C787    1.513   1_554 S
C157   C786    1.513   .     S
C159   C174    1.414   .     A
C160   C170    1.484   .     S
C160   O210    1.222   .     D
C160   H185    1.075   .     S
C161   O196    1.222   .     D
C161   C171    1.484   .     S
C161   H186    1.075   .     S
C162   O197    1.222   .     D
C162   H187    1.073   .     S
C162   C172    1.486   .     S
C163   O209    1.301   .     A
C163   O206    1.304   .     A
C164   C173    1.486   .     S
C164   H188    1.073   .     S
C164   O198    1.222   .     D
C165   C174    1.493   .     S
C165   H189    1.085   .     S
C165   O199    1.221   .     D
C166   H190    1.085   .     S
C166   O200    1.221   .     D
C167   H191    1.085   .     S
C167   O201    1.221   .     D
C168   H192    1.085   .     S
C168   O202    1.221   .     D
C169   O208    1.301   .     A
C169   O207    1.304   .     A
C170   N194    1.377   .     A
C170   C593    1.428   1_545 S
C171   N193    1.377   .     A
C171   C382    1.428   .     S
C172   N194    1.377   .     A
C172   C591    1.428   1_545 S
C173   N193    1.377   .     A
C173   C380    1.428   .     S
Cu175  O204    1.972   .     S
Cu175  O208    1.970   .     S
Cu175  N193    2.029   .     S
Cu175  O195    1.983   .     S
Cu175  O206    1.970   .     S
Cu175  Cu176   2.700   .     S
Cu176  O207    1.970   .     S
Cu176  N194    2.029   .     S
Cu176  O209    1.970   .     S
Cu176  O205    1.972   .     S
Cu176  O203    1.983   .     S
C211   O275    1.309   .     A
C211   O265    1.297   .     A
C211   C229    1.477   .     S
C212   C236    1.493   .     S
C212   C228    1.414   .     A
C212   C284    1.400   .     S
C213   C237    1.485   .     S
C213   C228    1.421   .     A
C213   C314    1.400   .     S
C214   C238    1.485   .     S
C214   C229    1.421   .     A
C214   C352    1.400   1_455 S
C215   C219    1.390   .     A
C215   F247    1.355   .     S
C215   C226    1.418   .     A
C216   C220    1.390   .     A
C216   F248    1.355   .     S
C216   C227    1.418   .     A
C217   C221    1.389   .     A
C217   F249    1.355   .     S
C217   C227    1.417   .     A
C218   C223    1.389   .     A
C218   C226    1.417   .     A
C218   F250    1.355   .     S
C219   C224    1.402   .     A
C219   F251    1.358   .     S
C220   F252    1.358   .     S
C220   C225    1.402   .     A
C221   C225    1.404   .     A
C221   F253    1.358   .     S
C222   O274    1.309   .     A
C222   C228    1.477   .     S
C222   O273    1.297   .     A
C223   C224    1.404   .     A
C223   F254    1.358   .     S
C224   C233    1.470   .     S
C225   C239    1.470   .     S
C226   C857    1.513   1_554 S
C227   C856    1.513   .     S
C229   C244    1.414   .     A
C230   C240    1.484   .     S
C230   O280    1.222   .     D
C230   H255    1.075   .     S
C231   O266    1.222   .     D
C231   C241    1.484   .     S
C231   H256    1.075   .     S
C232   O267    1.222   .     D
C232   H257    1.073   .     S
C232   C242    1.486   .     S
C233   O279    1.301   .     A
C233   O276    1.304   .     A
C234   C243    1.486   .     S
C234   H258    1.073   .     S
C234   O268    1.222   .     D
C235   C244    1.493   .     S
C235   H259    1.085   .     S
C235   O269    1.221   .     D
C236   H260    1.085   .     S
C236   O270    1.221   .     D
C237   H261    1.085   .     S
C237   O271    1.221   .     D
C238   H262    1.085   .     S
C238   O272    1.221   .     D
C239   O278    1.301   .     A
C239   O277    1.304   .     A
C240   N264    1.377   .     A
C241   N263    1.377   .     A
C241   C452    1.428   .     S
C242   N264    1.377   .     A
C243   N263    1.377   .     A
C243   C450    1.428   .     S
C244   C353    1.400   1_455 S
Cu245  O274    1.972   .     S
Cu245  O278    1.970   .     S
Cu245  N263    2.029   .     S
Cu245  O265    1.983   .     S
Cu245  O276    1.970   .     S
Cu245  Cu246   2.700   .     S
Cu246  O277    1.970   .     S
Cu246  N264    2.029   .     S
Cu246  O279    1.970   .     S
Cu246  O275    1.972   .     S
Cu246  O273    1.983   .     S
C281   O345    1.309   .     A
C281   O335    1.297   .     A
C281   C299    1.477   .     S
C282   C306    1.493   .     S
C282   C298    1.414   .     A
C282   C354    1.400   .     S
C283   C307    1.485   .     S
C283   C298    1.421   .     A
C283   C384    1.400   .     S
C284   C308    1.485   .     S
C284   C299    1.421   .     A
C285   C289    1.390   .     A
C285   F317    1.355   .     S
C285   C296    1.418   .     A
C286   C290    1.390   .     A
C286   F318    1.355   .     S
C286   C297    1.418   .     A
C287   C291    1.389   .     A
C287   F319    1.355   .     S
C287   C297    1.417   .     A
C288   C293    1.389   .     A
C288   C296    1.417   .     A
C288   F320    1.355   .     S
C289   C294    1.402   .     A
C289   F321    1.358   .     S
C290   F322    1.358   .     S
C290   C295    1.402   .     A
C291   C295    1.404   .     A
C291   F323    1.358   .     S
C292   O344    1.309   .     A
C292   C298    1.477   .     S
C292   O343    1.297   .     A
C293   C294    1.404   .     A
C293   F324    1.358   .     S
C294   C303    1.470   .     S
C295   C309    1.470   .     S
C296   C927    1.513   1_554 S
C297   C926    1.513   .     S
C299   C314    1.414   .     A
C300   C310    1.484   .     S
C300   O350    1.222   .     D
C300   H325    1.075   .     S
C301   O336    1.222   .     D
C301   C311    1.484   .     S
C301   H326    1.075   .     S
C302   O337    1.222   .     D
C302   H327    1.073   .     S
C302   C312    1.486   .     S
C303   O349    1.301   .     A
C303   O346    1.304   .     A
C304   C313    1.486   .     S
C304   H328    1.073   .     S
C304   O338    1.222   .     D
C305   C314    1.493   .     S
C305   H329    1.085   .     S
C305   O339    1.221   .     D
C306   H330    1.085   .     S
C306   O340    1.221   .     D
C307   H331    1.085   .     S
C307   O341    1.221   .     D
C308   H332    1.085   .     S
C308   O342    1.221   .     D
C309   O348    1.301   .     A
C309   O347    1.304   .     A
C310   N334    1.377   .     A
C311   N333    1.377   .     A
C311   C522    1.428   .     S
C312   N334    1.377   .     A
C313   N333    1.377   .     A
C313   C520    1.428   .     S
Cu315  O344    1.972   .     S
Cu315  O348    1.970   .     S
Cu315  N333    2.029   .     S
Cu315  O335    1.983   .     S
Cu315  O346    1.970   .     S
Cu315  Cu316   2.700   .     S
Cu316  O347    1.970   .     S
Cu316  N334    2.029   .     S
Cu316  O349    1.970   .     S
Cu316  O345    1.972   .     S
Cu316  O343    1.983   .     S
C351   O415    1.309   .     A
C351   O405    1.297   .     A
C351   C369    1.477   .     S
C352   C376    1.493   .     S
C352   C368    1.414   .     A
C352   C214    1.400   1_655 S
C353   C377    1.485   .     S
C353   C368    1.421   .     A
C353   C244    1.400   1_655 S
C354   C378    1.485   .     S
C354   C369    1.421   .     A
C355   C359    1.390   .     A
C355   F387    1.355   .     S
C355   C366    1.418   .     A
C356   C360    1.390   .     A
C356   F388    1.355   .     S
C356   C367    1.418   .     A
C357   C361    1.389   .     A
C357   F389    1.355   .     S
C357   C367    1.417   .     A
C358   C363    1.389   .     A
C358   C366    1.417   .     A
C358   F390    1.355   .     S
C359   C364    1.402   .     A
C359   F391    1.358   .     S
C360   F392    1.358   .     S
C360   C365    1.402   .     A
C361   C365    1.404   .     A
C361   F393    1.358   .     S
C362   O414    1.309   .     A
C362   C368    1.477   .     S
C362   O413    1.297   .     A
C363   C364    1.404   .     A
C363   F394    1.358   .     S
C364   C373    1.470   .     S
C365   C379    1.470   .     S
C366   C997    1.513   1_554 S
C367   C996    1.513   .     S
C369   C384    1.414   .     A
C370   C380    1.484   .     S
C370   O420    1.222   .     D
C370   H395    1.075   .     S
C371   O406    1.222   .     D
C371   C381    1.484   .     S
C371   H396    1.075   .     S
C372   O407    1.222   .     D
C372   H397    1.073   .     S
C372   C382    1.486   .     S
C373   O419    1.301   .     A
C373   O416    1.304   .     A
C374   C383    1.486   .     S
C374   H398    1.073   .     S
C374   O408    1.222   .     D
C375   C384    1.493   .     S
C375   H399    1.085   .     S
C375   O409    1.221   .     D
C376   H400    1.085   .     S
C376   O410    1.221   .     D
C377   H401    1.085   .     S
C377   O411    1.221   .     D
C378   H402    1.085   .     S
C378   O412    1.221   .     D
C379   O418    1.301   .     A
C379   O417    1.304   .     A
C380   N404    1.377   .     A
C381   N403    1.377   .     A
C381   C592    1.428   .     S
C382   N404    1.377   .     A
C383   N403    1.377   .     A
C383   C590    1.428   .     S
Cu385  O414    1.972   .     S
Cu385  O418    1.970   .     S
Cu385  N403    2.029   .     S
Cu385  O405    1.983   .     S
Cu385  O416    1.970   .     S
Cu385  Cu386   2.700   .     S
Cu386  O417    1.970   .     S
Cu386  N404    2.029   .     S
Cu386  O419    1.970   .     S
Cu386  O415    1.972   .     S
Cu386  O413    1.983   .     S
C421   O485    1.309   .     A
C421   O475    1.297   .     A
C421   C439    1.477   .     S
C422   C446    1.493   .     S
C422   C438    1.414   .     A
C422   C494    1.400   .     S
C423   C447    1.485   .     S
C423   C438    1.421   .     A
C423   C524    1.400   .     S
C424   C448    1.485   .     S
C424   C439    1.421   .     A
C424   C562    1.400   1_455 S
C425   C429    1.390   .     A
C425   F457    1.355   .     S
C425   C436    1.418   .     A
C426   C430    1.390   .     A
C426   F458    1.355   .     S
C426   C437    1.418   .     A
C427   C431    1.389   .     A
C427   F459    1.355   .     S
C427   C437    1.417   .     A
C428   C433    1.389   .     A
C428   C436    1.417   .     A
C428   F460    1.355   .     S
C429   C434    1.402   .     A
C429   F461    1.358   .     S
C430   F462    1.358   .     S
C430   C435    1.402   .     A
C431   C435    1.404   .     A
C431   F463    1.358   .     S
C432   O484    1.309   .     A
C432   C438    1.477   .     S
C432   O483    1.297   .     A
C433   C434    1.404   .     A
C433   F464    1.358   .     S
C434   C443    1.470   .     S
C435   C449    1.470   .     S
C436   C1067   1.513   1_554 S
C437   C1066   1.513   .     S
C439   C454    1.414   .     A
C440   C450    1.484   .     S
C440   O490    1.222   .     D
C440   H465    1.075   .     S
C441   O476    1.222   .     D
C441   C451    1.484   .     S
C441   H466    1.075   .     S
C442   O477    1.222   .     D
C442   H467    1.073   .     S
C442   C452    1.486   .     S
C443   O489    1.301   .     A
C443   O486    1.304   .     A
C444   C453    1.486   .     S
C444   H468    1.073   .     S
C444   O478    1.222   .     D
C445   C454    1.493   .     S
C445   H469    1.085   .     S
C445   O479    1.221   .     D
C446   H470    1.085   .     S
C446   O480    1.221   .     D
C447   H471    1.085   .     S
C447   O481    1.221   .     D
C448   H472    1.085   .     S
C448   O482    1.221   .     D
C449   O488    1.301   .     A
C449   O487    1.304   .     A
C450   N474    1.377   .     A
C451   N473    1.377   .     A
C451   C32     1.428   1_565 S
C452   N474    1.377   .     A
C453   N473    1.377   .     A
C453   C30     1.428   1_565 S
C454   C563    1.400   1_455 S
Cu455  O484    1.972   .     S
Cu455  O488    1.970   .     S
Cu455  N473    2.029   .     S
Cu455  O475    1.983   .     S
Cu455  O486    1.970   .     S
Cu455  Cu456   2.700   .     S
Cu456  O487    1.970   .     S
Cu456  N474    2.029   .     S
Cu456  O489    1.970   .     S
Cu456  O485    1.972   .     S
Cu456  O483    1.983   .     S
C491   O555    1.309   .     A
C491   O545    1.297   .     A
C491   C509    1.477   .     S
C492   C516    1.493   .     S
C492   C508    1.414   .     A
C492   C564    1.400   .     S
C493   C517    1.485   .     S
C493   C508    1.421   .     A
C493   C594    1.400   .     S
C494   C518    1.485   .     S
C494   C509    1.421   .     A
C495   C499    1.390   .     A
C495   F527    1.355   .     S
C495   C506    1.418   .     A
C496   C500    1.390   .     A
C496   F528    1.355   .     S
C496   C507    1.418   .     A
C497   C501    1.389   .     A
C497   F529    1.355   .     S
C497   C507    1.417   .     A
C498   C503    1.389   .     A
C498   C506    1.417   .     A
C498   F530    1.355   .     S
C499   C504    1.402   .     A
C499   F531    1.358   .     S
C500   F532    1.358   .     S
C500   C505    1.402   .     A
C501   C505    1.404   .     A
C501   F533    1.358   .     S
C502   O554    1.309   .     A
C502   C508    1.477   .     S
C502   O553    1.297   .     A
C503   C504    1.404   .     A
C503   F534    1.358   .     S
C504   C513    1.470   .     S
C505   C519    1.470   .     S
C506   C1137   1.513   1_554 S
C507   C1136   1.513   .     S
C509   C524    1.414   .     A
C510   C520    1.484   .     S
C510   O560    1.222   .     D
C510   H535    1.075   .     S
C511   O546    1.222   .     D
C511   C521    1.484   .     S
C511   H536    1.075   .     S
C512   O547    1.222   .     D
C512   H537    1.073   .     S
C512   C522    1.486   .     S
C513   O559    1.301   .     A
C513   O556    1.304   .     A
C514   C523    1.486   .     S
C514   H538    1.073   .     S
C514   O548    1.222   .     D
C515   C524    1.493   .     S
C515   H539    1.085   .     S
C515   O549    1.221   .     D
C516   H540    1.085   .     S
C516   O550    1.221   .     D
C517   H541    1.085   .     S
C517   O551    1.221   .     D
C518   H542    1.085   .     S
C518   O552    1.221   .     D
C519   O558    1.301   .     A
C519   O557    1.304   .     A
C520   N544    1.377   .     A
C521   N543    1.377   .     A
C521   C102    1.428   1_565 S
C522   N544    1.377   .     A
C523   N543    1.377   .     A
C523   C100    1.428   1_565 S
Cu525  O554    1.972   .     S
Cu525  O558    1.970   .     S
Cu525  N543    2.029   .     S
Cu525  O545    1.983   .     S
Cu525  O556    1.970   .     S
Cu525  Cu526   2.700   .     S
Cu526  O557    1.970   .     S
Cu526  N544    2.029   .     S
Cu526  O559    1.970   .     S
Cu526  O555    1.972   .     S
Cu526  O553    1.983   .     S
C561   O625    1.309   .     A
C561   O615    1.297   .     A
C561   C579    1.477   .     S
C562   C586    1.493   .     S
C562   C578    1.414   .     A
C562   C424    1.400   1_655 S
C563   C587    1.485   .     S
C563   C578    1.421   .     A
C563   C454    1.400   1_655 S
C564   C588    1.485   .     S
C564   C579    1.421   .     A
C565   C569    1.390   .     A
C565   F597    1.355   .     S
C565   C576    1.418   .     A
C566   C570    1.390   .     A
C566   F598    1.355   .     S
C566   C577    1.418   .     A
C567   C571    1.389   .     A
C567   F599    1.355   .     S
C567   C577    1.417   .     A
C568   C573    1.389   .     A
C568   C576    1.417   .     A
C568   F600    1.355   .     S
C569   C574    1.402   .     A
C569   F601    1.358   .     S
C570   F602    1.358   .     S
C570   C575    1.402   .     A
C571   C575    1.404   .     A
C571   F603    1.358   .     S
C572   O624    1.309   .     A
C572   C578    1.477   .     S
C572   O623    1.297   .     A
C573   C574    1.404   .     A
C573   F604    1.358   .     S
C574   C583    1.470   .     S
C575   C589    1.470   .     S
C576   C1207   1.513   1_554 S
C577   C1206   1.513   .     S
C579   C594    1.414   .     A
C580   C590    1.484   .     S
C580   O630    1.222   .     D
C580   H605    1.075   .     S
C581   O616    1.222   .     D
C581   C591    1.484   .     S
C581   H606    1.075   .     S
C582   O617    1.222   .     D
C582   H607    1.073   .     S
C582   C592    1.486   .     S
C583   O629    1.301   .     A
C583   O626    1.304   .     A
C584   C593    1.486   .     S
C584   H608    1.073   .     S
C584   O618    1.222   .     D
C585   C594    1.493   .     S
C585   H609    1.085   .     S
C585   O619    1.221   .     D
C586   H610    1.085   .     S
C586   O620    1.221   .     D
C587   H611    1.085   .     S
C587   O621    1.221   .     D
C588   H612    1.085   .     S
C588   O622    1.221   .     D
C589   O628    1.301   .     A
C589   O627    1.304   .     A
C590   N614    1.377   .     A
C591   N613    1.377   .     A
C591   C172    1.428   1_565 S
C592   N614    1.377   .     A
C593   N613    1.377   .     A
C593   C170    1.428   1_565 S
Cu595  O624    1.972   .     S
Cu595  O628    1.970   .     S
Cu595  N613    2.029   .     S
Cu595  O615    1.983   .     S
Cu595  O626    1.970   .     S
Cu595  Cu596   2.700   .     S
Cu596  O627    1.970   .     S
Cu596  N614    2.029   .     S
Cu596  O629    1.970   .     S
Cu596  O625    1.972   .     S
Cu596  O623    1.983   .     S
C631   O695    1.309   .     A
C631   O685    1.297   .     A
C631   C649    1.477   .     S
C632   C656    1.493   .     S
C632   C648    1.414   .     A
C632   C704    1.400   .     S
C633   C657    1.485   .     S
C633   C648    1.421   .     A
C633   C734    1.400   .     S
C634   C658    1.485   .     S
C634   C649    1.421   .     A
C634   C772    1.400   1_455 S
C635   C639    1.390   .     A
C635   F667    1.355   .     S
C635   C646    1.418   .     A
C636   C640    1.390   .     A
C636   F668    1.355   .     S
C636   C647    1.418   .     A
C637   C641    1.389   .     A
C637   F669    1.355   .     S
C637   C647    1.417   .     A
C638   C643    1.389   .     A
C638   C646    1.417   .     A
C638   F670    1.355   .     S
C639   C644    1.402   .     A
C639   F671    1.358   .     S
C640   F672    1.358   .     S
C640   C645    1.402   .     A
C641   C645    1.404   .     A
C641   F673    1.358   .     S
C642   O694    1.309   .     A
C642   C648    1.477   .     S
C642   O693    1.297   .     A
C643   C644    1.404   .     A
C643   F674    1.358   .     S
C644   C653    1.470   .     S
C645   C659    1.470   .     S
C647   C16     1.513   1_556 S
C649   C664    1.414   .     A
C650   C660    1.484   .     S
C650   O700    1.222   .     D
C650   H675    1.075   .     S
C651   O686    1.222   .     D
C651   C661    1.484   .     S
C651   H676    1.075   .     S
C652   O687    1.222   .     D
C652   H677    1.073   .     S
C652   C662    1.486   .     S
C653   O699    1.301   .     A
C653   O696    1.304   .     A
C654   C663    1.486   .     S
C654   H678    1.073   .     S
C654   O688    1.222   .     D
C655   C664    1.493   .     S
C655   H679    1.085   .     S
C655   O689    1.221   .     D
C656   H680    1.085   .     S
C656   O690    1.221   .     D
C657   H681    1.085   .     S
C657   O691    1.221   .     D
C658   H682    1.085   .     S
C658   O692    1.221   .     D
C659   O698    1.301   .     A
C659   O697    1.304   .     A
C660   N684    1.377   .     A
C660   C1083   1.428   1_545 S
C661   N683    1.377   .     A
C661   C872    1.428   .     S
C662   N684    1.377   .     A
C662   C1081   1.428   1_545 S
C663   N683    1.377   .     A
C663   C870    1.428   .     S
C664   C773    1.400   1_455 S
Cu665  O694    1.972   .     S
Cu665  O698    1.970   .     S
Cu665  N683    2.029   .     S
Cu665  O685    1.983   .     S
Cu665  O696    1.970   .     S
Cu665  Cu666   2.700   .     S
Cu666  O697    1.970   .     S
Cu666  N684    2.029   .     S
Cu666  O699    1.970   .     S
Cu666  O695    1.972   .     S
Cu666  O693    1.983   .     S
C701   O765    1.309   .     A
C701   O755    1.297   .     A
C701   C719    1.477   .     S
C702   C726    1.493   .     S
C702   C718    1.414   .     A
C702   C774    1.400   .     S
C703   C727    1.485   .     S
C703   C718    1.421   .     A
C703   C804    1.400   .     S
C704   C728    1.485   .     S
C704   C719    1.421   .     A
C705   C709    1.390   .     A
C705   F737    1.355   .     S
C705   C716    1.418   .     A
C706   C710    1.390   .     A
C706   F738    1.355   .     S
C706   C717    1.418   .     A
C707   C711    1.389   .     A
C707   F739    1.355   .     S
C707   C717    1.417   .     A
C708   C713    1.389   .     A
C708   C716    1.417   .     A
C708   F740    1.355   .     S
C709   C714    1.402   .     A
C709   F741    1.358   .     S
C710   F742    1.358   .     S
C710   C715    1.402   .     A
C711   C715    1.404   .     A
C711   F743    1.358   .     S
C712   O764    1.309   .     A
C712   C718    1.477   .     S
C712   O763    1.297   .     A
C713   C714    1.404   .     A
C713   F744    1.358   .     S
C714   C723    1.470   .     S
C715   C729    1.470   .     S
C717   C86     1.513   1_556 S
C719   C734    1.414   .     A
C720   C730    1.484   .     S
C720   O770    1.222   .     D
C720   H745    1.075   .     S
C721   O756    1.222   .     D
C721   C731    1.484   .     S
C721   H746    1.075   .     S
C722   O757    1.222   .     D
C722   H747    1.073   .     S
C722   C732    1.486   .     S
C723   O769    1.301   .     A
C723   O766    1.304   .     A
C724   C733    1.486   .     S
C724   H748    1.073   .     S
C724   O758    1.222   .     D
C725   C734    1.493   .     S
C725   H749    1.085   .     S
C725   O759    1.221   .     D
C726   H750    1.085   .     S
C726   O760    1.221   .     D
C727   H751    1.085   .     S
C727   O761    1.221   .     D
C728   H752    1.085   .     S
C728   O762    1.221   .     D
C729   O768    1.301   .     A
C729   O767    1.304   .     A
C730   N754    1.377   .     A
C730   C1153   1.428   1_545 S
C731   N753    1.377   .     A
C731   C942    1.428   .     S
C732   N754    1.377   .     A
C732   C1151   1.428   1_545 S
C733   N753    1.377   .     A
C733   C940    1.428   .     S
Cu735  O764    1.972   .     S
Cu735  O768    1.970   .     S
Cu735  N753    2.029   .     S
Cu735  O755    1.983   .     S
Cu735  O766    1.970   .     S
Cu735  Cu736   2.700   .     S
Cu736  O767    1.970   .     S
Cu736  N754    2.029   .     S
Cu736  O769    1.970   .     S
Cu736  O765    1.972   .     S
Cu736  O763    1.983   .     S
C771   O835    1.309   .     A
C771   O825    1.297   .     A
C771   C789    1.477   .     S
C772   C796    1.493   .     S
C772   C788    1.414   .     A
C772   C634    1.400   1_655 S
C773   C797    1.485   .     S
C773   C788    1.421   .     A
C773   C664    1.400   1_655 S
C774   C798    1.485   .     S
C774   C789    1.421   .     A
C775   C779    1.390   .     A
C775   F807    1.355   .     S
C775   C786    1.418   .     A
C776   C780    1.390   .     A
C776   F808    1.355   .     S
C776   C787    1.418   .     A
C777   C781    1.389   .     A
C777   F809    1.355   .     S
C777   C787    1.417   .     A
C778   C783    1.389   .     A
C778   C786    1.417   .     A
C778   F810    1.355   .     S
C779   C784    1.402   .     A
C779   F811    1.358   .     S
C780   F812    1.358   .     S
C780   C785    1.402   .     A
C781   C785    1.404   .     A
C781   F813    1.358   .     S
C782   O834    1.309   .     A
C782   C788    1.477   .     S
C782   O833    1.297   .     A
C783   C784    1.404   .     A
C783   F814    1.358   .     S
C784   C793    1.470   .     S
C785   C799    1.470   .     S
C787   C156    1.513   1_556 S
C789   C804    1.414   .     A
C790   C800    1.484   .     S
C790   O840    1.222   .     D
C790   H815    1.075   .     S
C791   O826    1.222   .     D
C791   C801    1.484   .     S
C791   H816    1.075   .     S
C792   O827    1.222   .     D
C792   H817    1.073   .     S
C792   C802    1.486   .     S
C793   O839    1.301   .     A
C793   O836    1.304   .     A
C794   C803    1.486   .     S
C794   H818    1.073   .     S
C794   O828    1.222   .     D
C795   C804    1.493   .     S
C795   H819    1.085   .     S
C795   O829    1.221   .     D
C796   H820    1.085   .     S
C796   O830    1.221   .     D
C797   H821    1.085   .     S
C797   O831    1.221   .     D
C798   H822    1.085   .     S
C798   O832    1.221   .     D
C799   O838    1.301   .     A
C799   O837    1.304   .     A
C800   N824    1.377   .     A
C800   C1223   1.428   1_545 S
C801   N823    1.377   .     A
C801   C1012   1.428   .     S
C802   N824    1.377   .     A
C802   C1221   1.428   1_545 S
C803   N823    1.377   .     A
C803   C1010   1.428   .     S
Cu805  O834    1.972   .     S
Cu805  O838    1.970   .     S
Cu805  N823    2.029   .     S
Cu805  O825    1.983   .     S
Cu805  O836    1.970   .     S
Cu805  Cu806   2.700   .     S
Cu806  O837    1.970   .     S
Cu806  N824    2.029   .     S
Cu806  O839    1.970   .     S
Cu806  O835    1.972   .     S
Cu806  O833    1.983   .     S
C841   O905    1.309   .     A
C841   O895    1.297   .     A
C841   C859    1.477   .     S
C842   C866    1.493   .     S
C842   C858    1.414   .     A
C842   C914    1.400   .     S
C843   C867    1.485   .     S
C843   C858    1.421   .     A
C843   C944    1.400   .     S
C844   C868    1.485   .     S
C844   C859    1.421   .     A
C844   C982    1.400   1_455 S
C845   C849    1.390   .     A
C845   F877    1.355   .     S
C845   C856    1.418   .     A
C846   C850    1.390   .     A
C846   F878    1.355   .     S
C846   C857    1.418   .     A
C847   C851    1.389   .     A
C847   F879    1.355   .     S
C847   C857    1.417   .     A
C848   C853    1.389   .     A
C848   C856    1.417   .     A
C848   F880    1.355   .     S
C849   C854    1.402   .     A
C849   F881    1.358   .     S
C850   F882    1.358   .     S
C850   C855    1.402   .     A
C851   C855    1.404   .     A
C851   F883    1.358   .     S
C852   O904    1.309   .     A
C852   C858    1.477   .     S
C852   O903    1.297   .     A
C853   C854    1.404   .     A
C853   F884    1.358   .     S
C854   C863    1.470   .     S
C855   C869    1.470   .     S
C857   C226    1.513   1_556 S
C859   C874    1.414   .     A
C860   C870    1.484   .     S
C860   O910    1.222   .     D
C860   H885    1.075   .     S
C861   O896    1.222   .     D
C861   C871    1.484   .     S
C861   H886    1.075   .     S
C862   O897    1.222   .     D
C862   H887    1.073   .     S
C862   C872    1.486   .     S
C863   O909    1.301   .     A
C863   O906    1.304   .     A
C864   C873    1.486   .     S
C864   H888    1.073   .     S
C864   O898    1.222   .     D
C865   C874    1.493   .     S
C865   H889    1.085   .     S
C865   O899    1.221   .     D
C866   H890    1.085   .     S
C866   O900    1.221   .     D
C867   H891    1.085   .     S
C867   O901    1.221   .     D
C868   H892    1.085   .     S
C868   O902    1.221   .     D
C869   O908    1.301   .     A
C869   O907    1.304   .     A
C870   N894    1.377   .     A
C871   N893    1.377   .     A
C871   C1082   1.428   .     S
C872   N894    1.377   .     A
C873   N893    1.377   .     A
C873   C1080   1.428   .     S
C874   C983    1.400   1_455 S
Cu875  O904    1.972   .     S
Cu875  O908    1.970   .     S
Cu875  N893    2.029   .     S
Cu875  O895    1.983   .     S
Cu875  O906    1.970   .     S
Cu875  Cu876   2.700   .     S
Cu876  O907    1.970   .     S
Cu876  N894    2.029   .     S
Cu876  O909    1.970   .     S
Cu876  O905    1.972   .     S
Cu876  O903    1.983   .     S
C911   O975    1.309   .     A
C911   O965    1.297   .     A
C911   C929    1.477   .     S
C912   C936    1.493   .     S
C912   C928    1.414   .     A
C912   C984    1.400   .     S
C913   C937    1.485   .     S
C913   C928    1.421   .     A
C913   C1014   1.400   .     S
C914   C938    1.485   .     S
C914   C929    1.421   .     A
C915   C919    1.390   .     A
C915   F947    1.355   .     S
C915   C926    1.418   .     A
C916   C920    1.390   .     A
C916   F948    1.355   .     S
C916   C927    1.418   .     A
C917   C921    1.389   .     A
C917   F949    1.355   .     S
C917   C927    1.417   .     A
C918   C923    1.389   .     A
C918   C926    1.417   .     A
C918   F950    1.355   .     S
C919   C924    1.402   .     A
C919   F951    1.358   .     S
C920   F952    1.358   .     S
C920   C925    1.402   .     A
C921   C925    1.404   .     A
C921   F953    1.358   .     S
C922   O974    1.309   .     A
C922   C928    1.477   .     S
C922   O973    1.297   .     A
C923   C924    1.404   .     A
C923   F954    1.358   .     S
C924   C933    1.470   .     S
C925   C939    1.470   .     S
C927   C296    1.513   1_556 S
C929   C944    1.414   .     A
C930   C940    1.484   .     S
C930   O980    1.222   .     D
C930   H955    1.075   .     S
C931   O966    1.222   .     D
C931   C941    1.484   .     S
C931   H956    1.075   .     S
C932   O967    1.222   .     D
C932   H957    1.073   .     S
C932   C942    1.486   .     S
C933   O979    1.301   .     A
C933   O976    1.304   .     A
C934   C943    1.486   .     S
C934   H958    1.073   .     S
C934   O968    1.222   .     D
C935   C944    1.493   .     S
C935   H959    1.085   .     S
C935   O969    1.221   .     D
C936   H960    1.085   .     S
C936   O970    1.221   .     D
C937   H961    1.085   .     S
C937   O971    1.221   .     D
C938   H962    1.085   .     S
C938   O972    1.221   .     D
C939   O978    1.301   .     A
C939   O977    1.304   .     A
C940   N964    1.377   .     A
C941   N963    1.377   .     A
C941   C1152   1.428   .     S
C942   N964    1.377   .     A
C943   N963    1.377   .     A
C943   C1150   1.428   .     S
Cu945  O974    1.972   .     S
Cu945  O978    1.970   .     S
Cu945  N963    2.029   .     S
Cu945  O965    1.983   .     S
Cu945  O976    1.970   .     S
Cu945  Cu946   2.700   .     S
Cu946  O977    1.970   .     S
Cu946  N964    2.029   .     S
Cu946  O979    1.970   .     S
Cu946  O975    1.972   .     S
Cu946  O973    1.983   .     S
C981   O1045   1.309   .     A
C981   O1035   1.297   .     A
C981   C999    1.477   .     S
C982   C1006   1.493   .     S
C982   C998    1.414   .     A
C982   C844    1.400   1_655 S
C983   C1007   1.485   .     S
C983   C998    1.421   .     A
C983   C874    1.400   1_655 S
C984   C1008   1.485   .     S
C984   C999    1.421   .     A
C985   C989    1.390   .     A
C985   F1017   1.355   .     S
C985   C996    1.418   .     A
C986   C990    1.390   .     A
C986   F1018   1.355   .     S
C986   C997    1.418   .     A
C987   C991    1.389   .     A
C987   F1019   1.355   .     S
C987   C997    1.417   .     A
C988   C993    1.389   .     A
C988   C996    1.417   .     A
C988   F1020   1.355   .     S
C989   C994    1.402   .     A
C989   F1021   1.358   .     S
C990   F1022   1.358   .     S
C990   C995    1.402   .     A
C991   C995    1.404   .     A
C991   F1023   1.358   .     S
C992   O1044   1.309   .     A
C992   C998    1.477   .     S
C992   O1043   1.297   .     A
C993   C994    1.404   .     A
C993   F1024   1.358   .     S
C994   C1003   1.470   .     S
C995   C1009   1.470   .     S
C997   C366    1.513   1_556 S
C999   C1014   1.414   .     A
C1000  C1010   1.484   .     S
C1000  O1050   1.222   .     D
C1000  H1025   1.075   .     S
C1001  O1036   1.222   .     D
C1001  C1011   1.484   .     S
C1001  H1026   1.075   .     S
C1002  O1037   1.222   .     D
C1002  H1027   1.073   .     S
C1002  C1012   1.486   .     S
C1003  O1049   1.301   .     A
C1003  O1046   1.304   .     A
C1004  C1013   1.486   .     S
C1004  H1028   1.073   .     S
C1004  O1038   1.222   .     D
C1005  C1014   1.493   .     S
C1005  H1029   1.085   .     S
C1005  O1039   1.221   .     D
C1006  H1030   1.085   .     S
C1006  O1040   1.221   .     D
C1007  H1031   1.085   .     S
C1007  O1041   1.221   .     D
C1008  H1032   1.085   .     S
C1008  O1042   1.221   .     D
C1009  O1048   1.301   .     A
C1009  O1047   1.304   .     A
C1010  N1034   1.377   .     A
C1011  N1033   1.377   .     A
C1011  C1222   1.428   .     S
C1012  N1034   1.377   .     A
C1013  N1033   1.377   .     A
C1013  C1220   1.428   .     S
Cu1015 O1044   1.972   .     S
Cu1015 O1048   1.970   .     S
Cu1015 N1033   2.029   .     S
Cu1015 O1035   1.983   .     S
Cu1015 O1046   1.970   .     S
Cu1015 Cu1016  2.700   .     S
Cu1016 O1047   1.970   .     S
Cu1016 N1034   2.029   .     S
Cu1016 O1049   1.970   .     S
Cu1016 O1045   1.972   .     S
Cu1016 O1043   1.983   .     S
C1051  O1115   1.309   .     A
C1051  O1105   1.297   .     A
C1051  C1069   1.477   .     S
C1052  C1076   1.493   .     S
C1052  C1068   1.414   .     A
C1052  C1124   1.400   .     S
C1053  C1077   1.485   .     S
C1053  C1068   1.421   .     A
C1053  C1154   1.400   .     S
C1054  C1078   1.485   .     S
C1054  C1069   1.421   .     A
C1054  C1192   1.400   1_455 S
C1055  C1059   1.390   .     A
C1055  F1087   1.355   .     S
C1055  C1066   1.418   .     A
C1056  C1060   1.390   .     A
C1056  F1088   1.355   .     S
C1056  C1067   1.418   .     A
C1057  C1061   1.389   .     A
C1057  F1089   1.355   .     S
C1057  C1067   1.417   .     A
C1058  C1063   1.389   .     A
C1058  C1066   1.417   .     A
C1058  F1090   1.355   .     S
C1059  C1064   1.402   .     A
C1059  F1091   1.358   .     S
C1060  F1092   1.358   .     S
C1060  C1065   1.402   .     A
C1061  C1065   1.404   .     A
C1061  F1093   1.358   .     S
C1062  O1114   1.309   .     A
C1062  C1068   1.477   .     S
C1062  O1113   1.297   .     A
C1063  C1064   1.404   .     A
C1063  F1094   1.358   .     S
C1064  C1073   1.470   .     S
C1065  C1079   1.470   .     S
C1067  C436    1.513   1_556 S
C1069  C1084   1.414   .     A
C1070  C1080   1.484   .     S
C1070  O1120   1.222   .     D
C1070  H1095   1.075   .     S
C1071  O1106   1.222   .     D
C1071  C1081   1.484   .     S
C1071  H1096   1.075   .     S
C1072  O1107   1.222   .     D
C1072  H1097   1.073   .     S
C1072  C1082   1.486   .     S
C1073  O1119   1.301   .     A
C1073  O1116   1.304   .     A
C1074  C1083   1.486   .     S
C1074  H1098   1.073   .     S
C1074  O1108   1.222   .     D
C1075  C1084   1.493   .     S
C1075  H1099   1.085   .     S
C1075  O1109   1.221   .     D
C1076  H1100   1.085   .     S
C1076  O1110   1.221   .     D
C1077  H1101   1.085   .     S
C1077  O1111   1.221   .     D
C1078  H1102   1.085   .     S
C1078  O1112   1.221   .     D
C1079  O1118   1.301   .     A
C1079  O1117   1.304   .     A
C1080  N1104   1.377   .     A
C1081  N1103   1.377   .     A
C1081  C662    1.428   1_565 S
C1082  N1104   1.377   .     A
C1083  N1103   1.377   .     A
C1083  C660    1.428   1_565 S
C1084  C1193   1.400   1_455 S
Cu1085 O1114   1.972   .     S
Cu1085 O1118   1.970   .     S
Cu1085 N1103   2.029   .     S
Cu1085 O1105   1.983   .     S
Cu1085 O1116   1.970   .     S
Cu1085 Cu1086  2.700   .     S
Cu1086 O1117   1.970   .     S
Cu1086 N1104   2.029   .     S
Cu1086 O1119   1.970   .     S
Cu1086 O1115   1.972   .     S
Cu1086 O1113   1.983   .     S
C1121  O1185   1.309   .     A
C1121  O1175   1.297   .     A
C1121  C1139   1.477   .     S
C1122  C1146   1.493   .     S
C1122  C1138   1.414   .     A
C1122  C1194   1.400   .     S
C1123  C1147   1.485   .     S
C1123  C1138   1.421   .     A
C1123  C1224   1.400   .     S
C1124  C1148   1.485   .     S
C1124  C1139   1.421   .     A
C1125  C1129   1.390   .     A
C1125  F1157   1.355   .     S
C1125  C1136   1.418   .     A
C1126  C1130   1.390   .     A
C1126  F1158   1.355   .     S
C1126  C1137   1.418   .     A
C1127  C1131   1.389   .     A
C1127  F1159   1.355   .     S
C1127  C1137   1.417   .     A
C1128  C1133   1.389   .     A
C1128  C1136   1.417   .     A
C1128  F1160   1.355   .     S
C1129  C1134   1.402   .     A
C1129  F1161   1.358   .     S
C1130  F1162   1.358   .     S
C1130  C1135   1.402   .     A
C1131  C1135   1.404   .     A
C1131  F1163   1.358   .     S
C1132  O1184   1.309   .     A
C1132  C1138   1.477   .     S
C1132  O1183   1.297   .     A
C1133  C1134   1.404   .     A
C1133  F1164   1.358   .     S
C1134  C1143   1.470   .     S
C1135  C1149   1.470   .     S
C1137  C506    1.513   1_556 S
C1139  C1154   1.414   .     A
C1140  C1150   1.484   .     S
C1140  O1190   1.222   .     D
C1140  H1165   1.075   .     S
C1141  O1176   1.222   .     D
C1141  C1151   1.484   .     S
C1141  H1166   1.075   .     S
C1142  O1177   1.222   .     D
C1142  H1167   1.073   .     S
C1142  C1152   1.486   .     S
C1143  O1189   1.301   .     A
C1143  O1186   1.304   .     A
C1144  C1153   1.486   .     S
C1144  H1168   1.073   .     S
C1144  O1178   1.222   .     D
C1145  C1154   1.493   .     S
C1145  H1169   1.085   .     S
C1145  O1179   1.221   .     D
C1146  H1170   1.085   .     S
C1146  O1180   1.221   .     D
C1147  H1171   1.085   .     S
C1147  O1181   1.221   .     D
C1148  H1172   1.085   .     S
C1148  O1182   1.221   .     D
C1149  O1188   1.301   .     A
C1149  O1187   1.304   .     A
C1150  N1174   1.377   .     A
C1151  N1173   1.377   .     A
C1151  C732    1.428   1_565 S
C1152  N1174   1.377   .     A
C1153  N1173   1.377   .     A
C1153  C730    1.428   1_565 S
Cu1155 O1184   1.972   .     S
Cu1155 O1188   1.970   .     S
Cu1155 N1173   2.029   .     S
Cu1155 O1175   1.983   .     S
Cu1155 O1186   1.970   .     S
Cu1155 Cu1156  2.700   .     S
Cu1156 O1187   1.970   .     S
Cu1156 N1174   2.029   .     S
Cu1156 O1189   1.970   .     S
Cu1156 O1185   1.972   .     S
Cu1156 O1183   1.983   .     S
C1191  O1255   1.309   .     A
C1191  O1245   1.297   .     A
C1191  C1209   1.477   .     S
C1192  C1216   1.493   .     S
C1192  C1208   1.414   .     A
C1192  C1054   1.400   1_655 S
C1193  C1217   1.485   .     S
C1193  C1208   1.421   .     A
C1193  C1084   1.400   1_655 S
C1194  C1218   1.485   .     S
C1194  C1209   1.421   .     A
C1195  C1199   1.390   .     A
C1195  F1227   1.355   .     S
C1195  C1206   1.418   .     A
C1196  C1200   1.390   .     A
C1196  F1228   1.355   .     S
C1196  C1207   1.418   .     A
C1197  C1201   1.389   .     A
C1197  F1229   1.355   .     S
C1197  C1207   1.417   .     A
C1198  C1203   1.389   .     A
C1198  C1206   1.417   .     A
C1198  F1230   1.355   .     S
C1199  C1204   1.402   .     A
C1199  F1231   1.358   .     S
C1200  F1232   1.358   .     S
C1200  C1205   1.402   .     A
C1201  C1205   1.404   .     A
C1201  F1233   1.358   .     S
C1202  O1254   1.309   .     A
C1202  C1208   1.477   .     S
C1202  O1253   1.297   .     A
C1203  C1204   1.404   .     A
C1203  F1234   1.358   .     S
C1204  C1213   1.470   .     S
C1205  C1219   1.470   .     S
C1207  C576    1.513   1_556 S
C1209  C1224   1.414   .     A
C1210  C1220   1.484   .     S
C1210  O1260   1.222   .     D
C1210  H1235   1.075   .     S
C1211  O1246   1.222   .     D
C1211  C1221   1.484   .     S
C1211  H1236   1.075   .     S
C1212  O1247   1.222   .     D
C1212  H1237   1.073   .     S
C1212  C1222   1.486   .     S
C1213  O1259   1.301   .     A
C1213  O1256   1.304   .     A
C1214  C1223   1.486   .     S
C1214  H1238   1.073   .     S
C1214  O1248   1.222   .     D
C1215  C1224   1.493   .     S
C1215  H1239   1.085   .     S
C1215  O1249   1.221   .     D
C1216  H1240   1.085   .     S
C1216  O1250   1.221   .     D
C1217  H1241   1.085   .     S
C1217  O1251   1.221   .     D
C1218  H1242   1.085   .     S
C1218  O1252   1.221   .     D
C1219  O1258   1.301   .     A
C1219  O1257   1.304   .     A
C1220  N1244   1.377   .     A
C1221  N1243   1.377   .     A
C1221  C802    1.428   1_565 S
C1222  N1244   1.377   .     A
C1223  N1243   1.377   .     A
C1223  C800    1.428   1_565 S
Cu1225 O1254   1.972   .     S
Cu1225 O1258   1.970   .     S
Cu1225 N1243   2.029   .     S
Cu1225 O1245   1.983   .     S
Cu1225 O1256   1.970   .     S
Cu1225 Cu1226  2.700   .     S
Cu1226 O1257   1.970   .     S
Cu1226 N1244   2.029   .     S
Cu1226 O1259   1.970   .     S
Cu1226 O1255   1.972   .     S
Cu1226 O1253   1.983   .     S
