data_str_m3_o1_o2_pcu_sym.97
_audit_creation_date              2020-01-03
_audit_creation_method            'Materials Studio'
_symmetry_space_group_name_H-M    'P1'
_symmetry_Int_Tables_number       1
_symmetry_cell_setting            triclinic
loop_
_symmetry_equiv_pos_as_xyz
  x,y,z
_cell_length_a                    32.1583
_cell_length_b                    29.6592
_cell_length_c                    30.0328
_cell_angle_alpha                 89.6330
_cell_angle_beta                  91.9813
_cell_angle_gamma                 89.8992
loop_
_atom_site_label
_atom_site_type_symbol
_atom_site_fract_x
_atom_site_fract_y
_atom_site_fract_z
_atom_site_U_iso_or_equiv
_atom_site_adp_type
_atom_site_occupancy
C1     C     0.08666   0.16670   0.24981   0.00000  Uiso   1.00
C2     C     0.31195   0.20785   0.24946   0.00000  Uiso   1.00
C3     C     0.31205   0.12566   0.24767   0.00000  Uiso   1.00
C4     C     0.02120   0.20787   0.24972   0.00000  Uiso   1.00
C5     C     0.19615   0.20776   0.04996   0.00000  Uiso   1.00
C6     C     0.20274   0.14019   0.45261   0.00000  Uiso   1.00
C7     C     0.15514   0.20448   0.45403   0.00000  Uiso   1.00
C8     C     0.16753   0.13140   0.04441   0.00000  Uiso   1.00
C9     C     0.19171   0.20637   0.09587   0.00000  Uiso   1.00
C10    C     0.19211   0.13384   0.40782   0.00000  Uiso   1.00
C11    C     0.15099   0.20335   0.40748   0.00000  Uiso   1.00
C12    C     0.24666   0.16666   0.24970   0.00000  Uiso   1.00
C13    C     0.16643   0.12861   0.09053   0.00000  Uiso   1.00
C14    C     0.17507   0.16737   0.11611   0.00000  Uiso   1.00
C15    C     0.16878   0.16715   0.38456   0.00000  Uiso   1.00
C16    C     0.18280   0.17070   0.02428   0.00000  Uiso   1.00
C17    C     0.18169   0.17327   0.47609   0.00000  Uiso   1.00
C18    C     0.29080   0.16671   0.24887   0.00000  Uiso   1.00
C19    C     0.04246   0.16676   0.24926   0.00000  Uiso   1.00
C20    C     0.24945   0.24103   0.01304   0.00000  Uiso   1.00
C21    C     0.27040   0.11978   0.46459   0.00000  Uiso   1.00
C22    C     0.09453   0.22243   0.48669   0.00000  Uiso   1.00
C23    C     0.16835   0.16682   0.16386   0.00000  Uiso   1.00
C24    C     0.11270   0.09656   0.00906   0.00000  Uiso   1.00
C25    C     0.24353   0.24049   0.13644   0.00000  Uiso   1.00
C26    C     0.17866   0.05983   0.39717   0.00000  Uiso   1.00
C27    C     0.14254   0.27773   0.38746   0.00000  Uiso   1.00
C28    C     0.18670   0.05859   0.11331   0.00000  Uiso   1.00
C29    C     0.16627   0.16660   0.33620   0.00000  Uiso   1.00
C30    C     0.19546   0.02356   0.27522   0.00000  Uiso   1.00
C31    C     0.13906   0.30957   0.22325   0.00000  Uiso   1.00
C32    C     0.13855   0.02412   0.22384   0.00000  Uiso   1.00
C33    C     0.19470   0.30908   0.27618   0.00000  Uiso   1.00
C34    C     0.02128   0.12567   0.24811   0.00000  Uiso   1.00
Cl35   Cl    0.23540   0.05154   0.30513   0.00000  Uiso   1.00
Cl36   Cl    0.10440   0.28068   0.18697   0.00000  Uiso   1.00
Cl37   Cl    0.10189   0.05325   0.18968   0.00000  Uiso   1.00
Cl38   Cl    0.23039   0.27966   0.31136   0.00000  Uiso   1.00
H39    H     0.03740   0.09359   0.24768   0.00000  Uiso   1.00
H40    H     0.29134   0.09680   0.48418   0.00000  Uiso   1.00
H41    H     0.09564   0.19590   0.01297   0.00000  Uiso   1.00
H42    H     0.07735   0.21018   0.45628   0.00000  Uiso   1.00
H43    H     0.07670   0.25125   0.49971   0.00000  Uiso   1.00
H44    H     0.10596   0.12235   0.48284   0.00000  Uiso   1.00
H45    H     0.09417   0.10319   0.03901   0.00000  Uiso   1.00
H46    H     0.10251   0.06355   0.49543   0.00000  Uiso   1.00
H47    H     0.24936   0.20832   0.15495   0.00000  Uiso   1.00
H48    H     0.25013   0.26844   0.16001   0.00000  Uiso   1.00
H49    H     0.26544   0.24370   0.10882   0.00000  Uiso   1.00
H50    H     0.29580   0.23991   0.24992   0.00000  Uiso   1.00
H51    H     0.18979   0.02870   0.38125   0.00000  Uiso   1.00
H52    H     0.14648   0.06659   0.38392   0.00000  Uiso   1.00
H53    H     0.17841   0.05292   0.43362   0.00000  Uiso   1.00
H54    H     0.13257   0.29699   0.35714   0.00000  Uiso   1.00
H55    H     0.17723   0.27795   0.38925   0.00000  Uiso   1.00
H56    H     0.13026   0.29573   0.41651   0.00000  Uiso   1.00
H57    H     0.17633   0.02750   0.13036   0.00000  Uiso   1.00
H58    H     0.21313   0.07280   0.13361   0.00000  Uiso   1.00
H59    H     0.19738   0.04859   0.07996   0.00000  Uiso   1.00
H60    H     0.29601   0.09361   0.24654   0.00000  Uiso   1.00
H61    H     0.03729   0.23993   0.25049   0.00000  Uiso   1.00
H62    H     0.26921   0.21630   0.03232   0.00000  Uiso   1.00
H63    H     0.26610   0.27374   0.01385   0.00000  Uiso   1.00
H64    H     0.24635   0.23074   0.47763   0.00000  Uiso   1.00
H65    H     0.27894   0.15488   0.47385   0.00000  Uiso   1.00
H66    H     0.27599   0.11398   0.42874   0.00000  Uiso   1.00
N67    N     0.16667   0.28573   0.25000   0.00000  Uiso   1.00
N68    N     0.16667   0.04760   0.25000   0.00000  Uiso   1.00
O69    O     0.10559   0.20487   0.24999   0.00000  Uiso   1.00
O70    O     0.22897   0.10997   0.47506   0.00000  Uiso   1.00
O71    O     0.13497   0.23739   0.47767   0.00000  Uiso   1.00
O72    O     0.15577   0.09425   0.01922   0.00000  Uiso   1.00
O73    O     0.20190   0.24439   0.12040   0.00000  Uiso   1.00
O74    O     0.20572   0.09560   0.38680   0.00000  Uiso   1.00
O75    O     0.12544   0.23396   0.38449   0.00000  Uiso   1.00
O76    O     0.15292   0.08907   0.10991   0.00000  Uiso   1.00
O77    O     0.22774   0.12846   0.25000   0.00000  Uiso   1.00
O78    O     0.22774   0.20487   0.25000   0.00000  Uiso   1.00
O79    O     0.10559   0.12846   0.24999   0.00000  Uiso   1.00
O80    O     0.16666   0.20489   0.18453   0.00000  Uiso   1.00
O81    O     0.16667   0.12845   0.31547   0.00000  Uiso   1.00
O82    O     0.16667   0.20489   0.31547   0.00000  Uiso   1.00
O83    O     0.16666   0.12845   0.18453   0.00000  Uiso   1.00
O84    O     0.20975   0.24747   0.03069   0.00000  Uiso   1.00
Zn85   Zn    0.16667   0.21771   0.25000   0.00000  Uiso   1.00
Zn86   Zn    0.16667   0.11563   0.25000   0.00000  Uiso   1.00
C87    C     0.41999   0.16670   0.24981   0.00000  Uiso   1.00
C88    C     0.64529   0.20785   0.24946   0.00000  Uiso   1.00
C89    C     0.64539   0.12566   0.24767   0.00000  Uiso   1.00
C90    C     0.35454   0.20787   0.24972   0.00000  Uiso   1.00
C91    C     0.52948   0.20776   0.04996   0.00000  Uiso   1.00
C92    C     0.53607   0.14019   0.45261   0.00000  Uiso   1.00
C93    C     0.48847   0.20448   0.45403   0.00000  Uiso   1.00
C94    C     0.50086   0.13140   0.04441   0.00000  Uiso   1.00
C95    C     0.52504   0.20637   0.09587   0.00000  Uiso   1.00
C96    C     0.52544   0.13384   0.40782   0.00000  Uiso   1.00
C97    C     0.48433   0.20335   0.40748   0.00000  Uiso   1.00
C98    C     0.57999   0.16666   0.24970   0.00000  Uiso   1.00
C99    C     0.49976   0.12861   0.09053   0.00000  Uiso   1.00
C100   C     0.50841   0.16737   0.11611   0.00000  Uiso   1.00
C101   C     0.50211   0.16715   0.38456   0.00000  Uiso   1.00
C102   C     0.51613   0.17070   0.02428   0.00000  Uiso   1.00
C103   C     0.51502   0.17327   0.47609   0.00000  Uiso   1.00
C104   C     0.62413   0.16671   0.24887   0.00000  Uiso   1.00
C105   C     0.37580   0.16676   0.24926   0.00000  Uiso   1.00
C106   C     0.58278   0.24103   0.01304   0.00000  Uiso   1.00
C107   C     0.60373   0.11978   0.46459   0.00000  Uiso   1.00
C108   C     0.42786   0.22243   0.48669   0.00000  Uiso   1.00
C109   C     0.50169   0.16682   0.16386   0.00000  Uiso   1.00
C110   C     0.44603   0.09656   0.00906   0.00000  Uiso   1.00
C111   C     0.57687   0.24049   0.13644   0.00000  Uiso   1.00
C112   C     0.51199   0.05983   0.39717   0.00000  Uiso   1.00
C113   C     0.47587   0.27773   0.38746   0.00000  Uiso   1.00
C114   C     0.52003   0.05859   0.11331   0.00000  Uiso   1.00
C115   C     0.49961   0.16660   0.33620   0.00000  Uiso   1.00
C116   C     0.52879   0.02356   0.27522   0.00000  Uiso   1.00
C117   C     0.47239   0.30957   0.22325   0.00000  Uiso   1.00
C118   C     0.47188   0.02412   0.22384   0.00000  Uiso   1.00
C119   C     0.52804   0.30908   0.27618   0.00000  Uiso   1.00
C120   C     0.35462   0.12567   0.24811   0.00000  Uiso   1.00
Cl121  Cl    0.56873   0.05154   0.30513   0.00000  Uiso   1.00
Cl122  Cl    0.43774   0.28068   0.18697   0.00000  Uiso   1.00
Cl123  Cl    0.43522   0.05325   0.18968   0.00000  Uiso   1.00
Cl124  Cl    0.56372   0.27966   0.31136   0.00000  Uiso   1.00
H125   H     0.37073   0.09359   0.24768   0.00000  Uiso   1.00
H126   H     0.62468   0.09680   0.48418   0.00000  Uiso   1.00
H127   H     0.42897   0.19590   0.01297   0.00000  Uiso   1.00
H128   H     0.41069   0.21018   0.45628   0.00000  Uiso   1.00
H129   H     0.41003   0.25125   0.49971   0.00000  Uiso   1.00
H130   H     0.43930   0.12235   0.48284   0.00000  Uiso   1.00
H131   H     0.42751   0.10319   0.03901   0.00000  Uiso   1.00
H132   H     0.43584   0.06355   0.49543   0.00000  Uiso   1.00
H133   H     0.58269   0.20832   0.15495   0.00000  Uiso   1.00
H134   H     0.58346   0.26844   0.16001   0.00000  Uiso   1.00
H135   H     0.59877   0.24370   0.10882   0.00000  Uiso   1.00
H136   H     0.62913   0.23991   0.24992   0.00000  Uiso   1.00
H137   H     0.52312   0.02870   0.38125   0.00000  Uiso   1.00
H138   H     0.47981   0.06659   0.38392   0.00000  Uiso   1.00
H139   H     0.51174   0.05292   0.43362   0.00000  Uiso   1.00
H140   H     0.46591   0.29699   0.35714   0.00000  Uiso   1.00
H141   H     0.51056   0.27795   0.38925   0.00000  Uiso   1.00
H142   H     0.46359   0.29573   0.41651   0.00000  Uiso   1.00
H143   H     0.50967   0.02750   0.13036   0.00000  Uiso   1.00
H144   H     0.54646   0.07280   0.13361   0.00000  Uiso   1.00
H145   H     0.53071   0.04859   0.07996   0.00000  Uiso   1.00
H146   H     0.62934   0.09361   0.24654   0.00000  Uiso   1.00
H147   H     0.37063   0.23993   0.25049   0.00000  Uiso   1.00
H148   H     0.60254   0.21630   0.03232   0.00000  Uiso   1.00
H149   H     0.59943   0.27374   0.01385   0.00000  Uiso   1.00
H150   H     0.57968   0.23074   0.47763   0.00000  Uiso   1.00
H151   H     0.61227   0.15488   0.47385   0.00000  Uiso   1.00
H152   H     0.60932   0.11398   0.42874   0.00000  Uiso   1.00
N153   N     0.50000   0.28573   0.25000   0.00000  Uiso   1.00
N154   N     0.50000   0.04760   0.25000   0.00000  Uiso   1.00
O155   O     0.43892   0.20487   0.24999   0.00000  Uiso   1.00
O156   O     0.56230   0.10997   0.47506   0.00000  Uiso   1.00
O157   O     0.46830   0.23739   0.47767   0.00000  Uiso   1.00
O158   O     0.48910   0.09425   0.01922   0.00000  Uiso   1.00
O159   O     0.53523   0.24439   0.12040   0.00000  Uiso   1.00
O160   O     0.53905   0.09560   0.38680   0.00000  Uiso   1.00
O161   O     0.45878   0.23396   0.38449   0.00000  Uiso   1.00
O162   O     0.48625   0.08907   0.10991   0.00000  Uiso   1.00
O163   O     0.56108   0.12846   0.25000   0.00000  Uiso   1.00
O164   O     0.56108   0.20487   0.25000   0.00000  Uiso   1.00
O165   O     0.43892   0.12846   0.24999   0.00000  Uiso   1.00
O166   O     0.50000   0.20489   0.18453   0.00000  Uiso   1.00
O167   O     0.50000   0.12845   0.31547   0.00000  Uiso   1.00
O168   O     0.50000   0.20489   0.31547   0.00000  Uiso   1.00
O169   O     0.50000   0.12845   0.18453   0.00000  Uiso   1.00
O170   O     0.54308   0.24747   0.03069   0.00000  Uiso   1.00
Zn171  Zn    0.50000   0.21771   0.25000   0.00000  Uiso   1.00
Zn172  Zn    0.50000   0.11563   0.25000   0.00000  Uiso   1.00
C173   C     0.75333   0.16670   0.24981   0.00000  Uiso   1.00
C174   C     0.97862   0.20785   0.24946   0.00000  Uiso   1.00
C175   C     0.97872   0.12566   0.24767   0.00000  Uiso   1.00
C176   C     0.68787   0.20787   0.24972   0.00000  Uiso   1.00
C177   C     0.86282   0.20776   0.04996   0.00000  Uiso   1.00
C178   C     0.86940   0.14019   0.45261   0.00000  Uiso   1.00
C179   C     0.82180   0.20448   0.45403   0.00000  Uiso   1.00
C180   C     0.83419   0.13140   0.04441   0.00000  Uiso   1.00
C181   C     0.85837   0.20637   0.09587   0.00000  Uiso   1.00
C182   C     0.85877   0.13384   0.40782   0.00000  Uiso   1.00
C183   C     0.81766   0.20335   0.40748   0.00000  Uiso   1.00
C184   C     0.91332   0.16666   0.24970   0.00000  Uiso   1.00
C185   C     0.83310   0.12861   0.09053   0.00000  Uiso   1.00
C186   C     0.84174   0.16737   0.11611   0.00000  Uiso   1.00
C187   C     0.83545   0.16715   0.38456   0.00000  Uiso   1.00
C188   C     0.84946   0.17070   0.02428   0.00000  Uiso   1.00
C189   C     0.84836   0.17327   0.47609   0.00000  Uiso   1.00
C190   C     0.95747   0.16671   0.24887   0.00000  Uiso   1.00
C191   C     0.70913   0.16676   0.24926   0.00000  Uiso   1.00
C192   C     0.91611   0.24103   0.01304   0.00000  Uiso   1.00
C193   C     0.93706   0.11978   0.46459   0.00000  Uiso   1.00
C194   C     0.76120   0.22243   0.48669   0.00000  Uiso   1.00
C195   C     0.83502   0.16682   0.16386   0.00000  Uiso   1.00
C196   C     0.77937   0.09656   0.00906   0.00000  Uiso   1.00
C197   C     0.91020   0.24049   0.13644   0.00000  Uiso   1.00
C198   C     0.84532   0.05983   0.39717   0.00000  Uiso   1.00
C199   C     0.80921   0.27773   0.38746   0.00000  Uiso   1.00
C200   C     0.85336   0.05859   0.11331   0.00000  Uiso   1.00
C201   C     0.83294   0.16660   0.33620   0.00000  Uiso   1.00
C202   C     0.86212   0.02356   0.27522   0.00000  Uiso   1.00
C203   C     0.80572   0.30957   0.22325   0.00000  Uiso   1.00
C204   C     0.80522   0.02412   0.22384   0.00000  Uiso   1.00
C205   C     0.86137   0.30908   0.27618   0.00000  Uiso   1.00
C206   C     0.68795   0.12567   0.24811   0.00000  Uiso   1.00
Cl207  Cl    0.90206   0.05154   0.30513   0.00000  Uiso   1.00
Cl208  Cl    0.77107   0.28068   0.18697   0.00000  Uiso   1.00
Cl209  Cl    0.76856   0.05325   0.18968   0.00000  Uiso   1.00
Cl210  Cl    0.89706   0.27966   0.31136   0.00000  Uiso   1.00
H211   H     0.70406   0.09359   0.24768   0.00000  Uiso   1.00
H212   H     0.95801   0.09680   0.48418   0.00000  Uiso   1.00
H213   H     0.76231   0.19590   0.01297   0.00000  Uiso   1.00
H214   H     0.74402   0.21018   0.45628   0.00000  Uiso   1.00
H215   H     0.74337   0.25125   0.49971   0.00000  Uiso   1.00
H216   H     0.77263   0.12235   0.48284   0.00000  Uiso   1.00
H217   H     0.76084   0.10319   0.03901   0.00000  Uiso   1.00
H218   H     0.76917   0.06355   0.49543   0.00000  Uiso   1.00
H219   H     0.91603   0.20832   0.15495   0.00000  Uiso   1.00
H220   H     0.91679   0.26844   0.16001   0.00000  Uiso   1.00
H221   H     0.93211   0.24370   0.10882   0.00000  Uiso   1.00
H222   H     0.96247   0.23991   0.24992   0.00000  Uiso   1.00
H223   H     0.85645   0.02870   0.38125   0.00000  Uiso   1.00
H224   H     0.81314   0.06659   0.38392   0.00000  Uiso   1.00
H225   H     0.84508   0.05292   0.43362   0.00000  Uiso   1.00
H226   H     0.79924   0.29699   0.35714   0.00000  Uiso   1.00
H227   H     0.84389   0.27795   0.38925   0.00000  Uiso   1.00
H228   H     0.79693   0.29573   0.41651   0.00000  Uiso   1.00
H229   H     0.84300   0.02750   0.13036   0.00000  Uiso   1.00
H230   H     0.87979   0.07280   0.13361   0.00000  Uiso   1.00
H231   H     0.86405   0.04859   0.07996   0.00000  Uiso   1.00
H232   H     0.96268   0.09361   0.24654   0.00000  Uiso   1.00
H233   H     0.70396   0.23993   0.25049   0.00000  Uiso   1.00
H234   H     0.93587   0.21630   0.03232   0.00000  Uiso   1.00
H235   H     0.93277   0.27374   0.01385   0.00000  Uiso   1.00
H236   H     0.91301   0.23074   0.47763   0.00000  Uiso   1.00
H237   H     0.94560   0.15488   0.47385   0.00000  Uiso   1.00
H238   H     0.94265   0.11398   0.42874   0.00000  Uiso   1.00
N239   N     0.83333   0.28573   0.25000   0.00000  Uiso   1.00
N240   N     0.83333   0.04760   0.25000   0.00000  Uiso   1.00
O241   O     0.77226   0.20487   0.24999   0.00000  Uiso   1.00
O242   O     0.89564   0.10997   0.47506   0.00000  Uiso   1.00
O243   O     0.80163   0.23739   0.47767   0.00000  Uiso   1.00
O244   O     0.82244   0.09425   0.01922   0.00000  Uiso   1.00
O245   O     0.86857   0.24439   0.12040   0.00000  Uiso   1.00
O246   O     0.87239   0.09560   0.38680   0.00000  Uiso   1.00
O247   O     0.79211   0.23396   0.38449   0.00000  Uiso   1.00
O248   O     0.81959   0.08907   0.10991   0.00000  Uiso   1.00
O249   O     0.89441   0.12846   0.25000   0.00000  Uiso   1.00
O250   O     0.89441   0.20487   0.25000   0.00000  Uiso   1.00
O251   O     0.77226   0.12846   0.24999   0.00000  Uiso   1.00
O252   O     0.83333   0.20489   0.18453   0.00000  Uiso   1.00
O253   O     0.83334   0.12845   0.31547   0.00000  Uiso   1.00
O254   O     0.83334   0.20489   0.31547   0.00000  Uiso   1.00
O255   O     0.83333   0.12845   0.18453   0.00000  Uiso   1.00
O256   O     0.87641   0.24747   0.03069   0.00000  Uiso   1.00
Zn257  Zn    0.83333   0.21771   0.25000   0.00000  Uiso   1.00
Zn258  Zn    0.83333   0.11563   0.25000   0.00000  Uiso   1.00
C259   C     0.08666   0.50004   0.24981   0.00000  Uiso   1.00
C260   C     0.31195   0.54118   0.24946   0.00000  Uiso   1.00
C261   C     0.31205   0.45899   0.24767   0.00000  Uiso   1.00
C262   C     0.02120   0.54120   0.24972   0.00000  Uiso   1.00
C263   C     0.19615   0.54109   0.04996   0.00000  Uiso   1.00
C264   C     0.20274   0.47353   0.45261   0.00000  Uiso   1.00
C265   C     0.15514   0.53781   0.45403   0.00000  Uiso   1.00
C266   C     0.16753   0.46473   0.04441   0.00000  Uiso   1.00
C267   C     0.19171   0.53970   0.09587   0.00000  Uiso   1.00
C268   C     0.19211   0.46717   0.40782   0.00000  Uiso   1.00
C269   C     0.15099   0.53669   0.40748   0.00000  Uiso   1.00
C270   C     0.24666   0.49999   0.24970   0.00000  Uiso   1.00
C271   C     0.16643   0.46195   0.09053   0.00000  Uiso   1.00
C272   C     0.17507   0.50071   0.11611   0.00000  Uiso   1.00
C273   C     0.16878   0.50048   0.38456   0.00000  Uiso   1.00
C274   C     0.18280   0.50403   0.02428   0.00000  Uiso   1.00
C275   C     0.18169   0.50660   0.47609   0.00000  Uiso   1.00
C276   C     0.29080   0.50005   0.24887   0.00000  Uiso   1.00
C277   C     0.04246   0.50009   0.24926   0.00000  Uiso   1.00
C278   C     0.24945   0.57436   0.01304   0.00000  Uiso   1.00
C279   C     0.27040   0.45311   0.46459   0.00000  Uiso   1.00
C280   C     0.09453   0.55576   0.48669   0.00000  Uiso   1.00
C281   C     0.16835   0.50015   0.16386   0.00000  Uiso   1.00
C282   C     0.11270   0.42989   0.00906   0.00000  Uiso   1.00
C283   C     0.24353   0.57383   0.13644   0.00000  Uiso   1.00
C284   C     0.17866   0.39316   0.39717   0.00000  Uiso   1.00
C285   C     0.14254   0.61106   0.38746   0.00000  Uiso   1.00
C286   C     0.18670   0.39192   0.11331   0.00000  Uiso   1.00
C287   C     0.16627   0.49993   0.33620   0.00000  Uiso   1.00
C288   C     0.19546   0.35689   0.27522   0.00000  Uiso   1.00
C289   C     0.13906   0.64290   0.22325   0.00000  Uiso   1.00
C290   C     0.13855   0.35745   0.22384   0.00000  Uiso   1.00
C291   C     0.19470   0.64241   0.27618   0.00000  Uiso   1.00
C292   C     0.02128   0.45900   0.24811   0.00000  Uiso   1.00
Cl293  Cl    0.23540   0.38487   0.30513   0.00000  Uiso   1.00
Cl294  Cl    0.10440   0.61401   0.18697   0.00000  Uiso   1.00
Cl295  Cl    0.10189   0.38659   0.18968   0.00000  Uiso   1.00
Cl296  Cl    0.23039   0.61299   0.31136   0.00000  Uiso   1.00
H297   H     0.03740   0.42693   0.24768   0.00000  Uiso   1.00
H298   H     0.29134   0.43013   0.48418   0.00000  Uiso   1.00
H299   H     0.09564   0.52923   0.01297   0.00000  Uiso   1.00
H300   H     0.07735   0.54352   0.45628   0.00000  Uiso   1.00
H301   H     0.07670   0.58458   0.49971   0.00000  Uiso   1.00
H302   H     0.10596   0.45569   0.48284   0.00000  Uiso   1.00
H303   H     0.09417   0.43652   0.03901   0.00000  Uiso   1.00
H304   H     0.10251   0.39689   0.49543   0.00000  Uiso   1.00
H305   H     0.24936   0.54165   0.15495   0.00000  Uiso   1.00
H306   H     0.25013   0.60178   0.16001   0.00000  Uiso   1.00
H307   H     0.26544   0.57703   0.10882   0.00000  Uiso   1.00
H308   H     0.29580   0.57324   0.24992   0.00000  Uiso   1.00
H309   H     0.18979   0.36203   0.38125   0.00000  Uiso   1.00
H310   H     0.14648   0.39992   0.38392   0.00000  Uiso   1.00
H311   H     0.17841   0.38626   0.43362   0.00000  Uiso   1.00
H312   H     0.13257   0.63033   0.35714   0.00000  Uiso   1.00
H313   H     0.17723   0.61128   0.38925   0.00000  Uiso   1.00
H314   H     0.13026   0.62906   0.41651   0.00000  Uiso   1.00
H315   H     0.17633   0.36083   0.13036   0.00000  Uiso   1.00
H316   H     0.21313   0.40613   0.13361   0.00000  Uiso   1.00
H317   H     0.19738   0.38193   0.07996   0.00000  Uiso   1.00
H318   H     0.29601   0.42694   0.24654   0.00000  Uiso   1.00
H319   H     0.03729   0.57326   0.25049   0.00000  Uiso   1.00
H320   H     0.26921   0.54964   0.03232   0.00000  Uiso   1.00
H321   H     0.26610   0.60708   0.01385   0.00000  Uiso   1.00
H322   H     0.24635   0.56407   0.47763   0.00000  Uiso   1.00
H323   H     0.27894   0.48821   0.47385   0.00000  Uiso   1.00
H324   H     0.27599   0.44731   0.42874   0.00000  Uiso   1.00
N325   N     0.16667   0.61907   0.25000   0.00000  Uiso   1.00
N326   N     0.16667   0.38093   0.25000   0.00000  Uiso   1.00
O327   O     0.10559   0.53821   0.24999   0.00000  Uiso   1.00
O328   O     0.22897   0.44330   0.47506   0.00000  Uiso   1.00
O329   O     0.13497   0.57073   0.47767   0.00000  Uiso   1.00
O330   O     0.15577   0.42758   0.01922   0.00000  Uiso   1.00
O331   O     0.20190   0.57772   0.12040   0.00000  Uiso   1.00
O332   O     0.20572   0.42893   0.38680   0.00000  Uiso   1.00
O333   O     0.12544   0.56729   0.38449   0.00000  Uiso   1.00
O334   O     0.15292   0.42240   0.10991   0.00000  Uiso   1.00
O335   O     0.22774   0.46179   0.25000   0.00000  Uiso   1.00
O336   O     0.22774   0.53821   0.25000   0.00000  Uiso   1.00
O337   O     0.10559   0.46179   0.24999   0.00000  Uiso   1.00
O338   O     0.16666   0.53822   0.18453   0.00000  Uiso   1.00
O339   O     0.16667   0.46178   0.31547   0.00000  Uiso   1.00
O340   O     0.16667   0.53822   0.31547   0.00000  Uiso   1.00
O341   O     0.16666   0.46178   0.18453   0.00000  Uiso   1.00
O342   O     0.20975   0.58080   0.03069   0.00000  Uiso   1.00
Zn343  Zn    0.16667   0.55104   0.25000   0.00000  Uiso   1.00
Zn344  Zn    0.16667   0.44896   0.25000   0.00000  Uiso   1.00
C345   C     0.41999   0.50004   0.24981   0.00000  Uiso   1.00
C346   C     0.64529   0.54118   0.24946   0.00000  Uiso   1.00
C347   C     0.64539   0.45899   0.24767   0.00000  Uiso   1.00
C348   C     0.35454   0.54120   0.24972   0.00000  Uiso   1.00
C349   C     0.52948   0.54109   0.04996   0.00000  Uiso   1.00
C350   C     0.53607   0.47353   0.45261   0.00000  Uiso   1.00
C351   C     0.48847   0.53781   0.45403   0.00000  Uiso   1.00
C352   C     0.50086   0.46473   0.04441   0.00000  Uiso   1.00
C353   C     0.52504   0.53970   0.09587   0.00000  Uiso   1.00
C354   C     0.52544   0.46717   0.40782   0.00000  Uiso   1.00
C355   C     0.48433   0.53669   0.40748   0.00000  Uiso   1.00
C356   C     0.57999   0.49999   0.24970   0.00000  Uiso   1.00
C357   C     0.49976   0.46195   0.09053   0.00000  Uiso   1.00
C358   C     0.50841   0.50071   0.11611   0.00000  Uiso   1.00
C359   C     0.50211   0.50048   0.38456   0.00000  Uiso   1.00
C360   C     0.51613   0.50403   0.02428   0.00000  Uiso   1.00
C361   C     0.51502   0.50660   0.47609   0.00000  Uiso   1.00
C362   C     0.62413   0.50005   0.24887   0.00000  Uiso   1.00
C363   C     0.37580   0.50009   0.24926   0.00000  Uiso   1.00
C364   C     0.58278   0.57436   0.01304   0.00000  Uiso   1.00
C365   C     0.60373   0.45311   0.46459   0.00000  Uiso   1.00
C366   C     0.42786   0.55576   0.48669   0.00000  Uiso   1.00
C367   C     0.50169   0.50015   0.16386   0.00000  Uiso   1.00
C368   C     0.44603   0.42989   0.00906   0.00000  Uiso   1.00
C369   C     0.57687   0.57383   0.13644   0.00000  Uiso   1.00
C370   C     0.51199   0.39316   0.39717   0.00000  Uiso   1.00
C371   C     0.47587   0.61106   0.38746   0.00000  Uiso   1.00
C372   C     0.52003   0.39192   0.11331   0.00000  Uiso   1.00
C373   C     0.49961   0.49993   0.33620   0.00000  Uiso   1.00
C374   C     0.52879   0.35689   0.27522   0.00000  Uiso   1.00
C375   C     0.47239   0.64290   0.22325   0.00000  Uiso   1.00
C376   C     0.47188   0.35745   0.22384   0.00000  Uiso   1.00
C377   C     0.52804   0.64241   0.27618   0.00000  Uiso   1.00
C378   C     0.35462   0.45900   0.24811   0.00000  Uiso   1.00
Cl379  Cl    0.56873   0.38487   0.30513   0.00000  Uiso   1.00
Cl380  Cl    0.43774   0.61401   0.18697   0.00000  Uiso   1.00
Cl381  Cl    0.43522   0.38659   0.18968   0.00000  Uiso   1.00
Cl382  Cl    0.56372   0.61299   0.31136   0.00000  Uiso   1.00
H383   H     0.37073   0.42693   0.24768   0.00000  Uiso   1.00
H384   H     0.62468   0.43013   0.48418   0.00000  Uiso   1.00
H385   H     0.42897   0.52923   0.01297   0.00000  Uiso   1.00
H386   H     0.41069   0.54352   0.45628   0.00000  Uiso   1.00
H387   H     0.41003   0.58458   0.49971   0.00000  Uiso   1.00
H388   H     0.43930   0.45569   0.48284   0.00000  Uiso   1.00
H389   H     0.42751   0.43652   0.03901   0.00000  Uiso   1.00
H390   H     0.43584   0.39689   0.49543   0.00000  Uiso   1.00
H391   H     0.58269   0.54165   0.15495   0.00000  Uiso   1.00
H392   H     0.58346   0.60178   0.16001   0.00000  Uiso   1.00
H393   H     0.59877   0.57703   0.10882   0.00000  Uiso   1.00
H394   H     0.62913   0.57324   0.24992   0.00000  Uiso   1.00
H395   H     0.52312   0.36203   0.38125   0.00000  Uiso   1.00
H396   H     0.47981   0.39992   0.38392   0.00000  Uiso   1.00
H397   H     0.51174   0.38626   0.43362   0.00000  Uiso   1.00
H398   H     0.46591   0.63033   0.35714   0.00000  Uiso   1.00
H399   H     0.51056   0.61128   0.38925   0.00000  Uiso   1.00
H400   H     0.46359   0.62906   0.41651   0.00000  Uiso   1.00
H401   H     0.50967   0.36083   0.13036   0.00000  Uiso   1.00
H402   H     0.54646   0.40613   0.13361   0.00000  Uiso   1.00
H403   H     0.53071   0.38193   0.07996   0.00000  Uiso   1.00
H404   H     0.62934   0.42694   0.24654   0.00000  Uiso   1.00
H405   H     0.37063   0.57326   0.25049   0.00000  Uiso   1.00
H406   H     0.60254   0.54964   0.03232   0.00000  Uiso   1.00
H407   H     0.59943   0.60708   0.01385   0.00000  Uiso   1.00
H408   H     0.57968   0.56407   0.47763   0.00000  Uiso   1.00
H409   H     0.61227   0.48821   0.47385   0.00000  Uiso   1.00
H410   H     0.60932   0.44731   0.42874   0.00000  Uiso   1.00
N411   N     0.50000   0.61907   0.25000   0.00000  Uiso   1.00
N412   N     0.50000   0.38093   0.25000   0.00000  Uiso   1.00
O413   O     0.43892   0.53821   0.24999   0.00000  Uiso   1.00
O414   O     0.56230   0.44330   0.47506   0.00000  Uiso   1.00
O415   O     0.46830   0.57073   0.47767   0.00000  Uiso   1.00
O416   O     0.48910   0.42758   0.01922   0.00000  Uiso   1.00
O417   O     0.53523   0.57772   0.12040   0.00000  Uiso   1.00
O418   O     0.53905   0.42893   0.38680   0.00000  Uiso   1.00
O419   O     0.45878   0.56729   0.38449   0.00000  Uiso   1.00
O420   O     0.48625   0.42240   0.10991   0.00000  Uiso   1.00
O421   O     0.56108   0.46179   0.25000   0.00000  Uiso   1.00
O422   O     0.56108   0.53821   0.25000   0.00000  Uiso   1.00
O423   O     0.43892   0.46179   0.24999   0.00000  Uiso   1.00
O424   O     0.50000   0.53822   0.18453   0.00000  Uiso   1.00
O425   O     0.50000   0.46178   0.31547   0.00000  Uiso   1.00
O426   O     0.50000   0.53822   0.31547   0.00000  Uiso   1.00
O427   O     0.50000   0.46178   0.18453   0.00000  Uiso   1.00
O428   O     0.54308   0.58080   0.03069   0.00000  Uiso   1.00
Zn429  Zn    0.50000   0.55104   0.25000   0.00000  Uiso   1.00
Zn430  Zn    0.50000   0.44896   0.25000   0.00000  Uiso   1.00
C431   C     0.75333   0.50004   0.24981   0.00000  Uiso   1.00
C432   C     0.97862   0.54118   0.24946   0.00000  Uiso   1.00
C433   C     0.97872   0.45899   0.24767   0.00000  Uiso   1.00
C434   C     0.68787   0.54120   0.24972   0.00000  Uiso   1.00
C435   C     0.86282   0.54109   0.04996   0.00000  Uiso   1.00
C436   C     0.86940   0.47353   0.45261   0.00000  Uiso   1.00
C437   C     0.82180   0.53781   0.45403   0.00000  Uiso   1.00
C438   C     0.83419   0.46473   0.04441   0.00000  Uiso   1.00
C439   C     0.85837   0.53970   0.09587   0.00000  Uiso   1.00
C440   C     0.85877   0.46717   0.40782   0.00000  Uiso   1.00
C441   C     0.81766   0.53669   0.40748   0.00000  Uiso   1.00
C442   C     0.91332   0.49999   0.24970   0.00000  Uiso   1.00
C443   C     0.83310   0.46195   0.09053   0.00000  Uiso   1.00
C444   C     0.84174   0.50071   0.11611   0.00000  Uiso   1.00
C445   C     0.83545   0.50048   0.38456   0.00000  Uiso   1.00
C446   C     0.84946   0.50403   0.02428   0.00000  Uiso   1.00
C447   C     0.84836   0.50660   0.47609   0.00000  Uiso   1.00
C448   C     0.95747   0.50005   0.24887   0.00000  Uiso   1.00
C449   C     0.70913   0.50009   0.24926   0.00000  Uiso   1.00
C450   C     0.91611   0.57436   0.01304   0.00000  Uiso   1.00
C451   C     0.93706   0.45311   0.46459   0.00000  Uiso   1.00
C452   C     0.76120   0.55576   0.48669   0.00000  Uiso   1.00
C453   C     0.83502   0.50015   0.16386   0.00000  Uiso   1.00
C454   C     0.77937   0.42989   0.00906   0.00000  Uiso   1.00
C455   C     0.91020   0.57383   0.13644   0.00000  Uiso   1.00
C456   C     0.84532   0.39316   0.39717   0.00000  Uiso   1.00
C457   C     0.80921   0.61106   0.38746   0.00000  Uiso   1.00
C458   C     0.85336   0.39192   0.11331   0.00000  Uiso   1.00
C459   C     0.83294   0.49993   0.33620   0.00000  Uiso   1.00
C460   C     0.86212   0.35689   0.27522   0.00000  Uiso   1.00
C461   C     0.80572   0.64290   0.22325   0.00000  Uiso   1.00
C462   C     0.80522   0.35745   0.22384   0.00000  Uiso   1.00
C463   C     0.86137   0.64241   0.27618   0.00000  Uiso   1.00
C464   C     0.68795   0.45900   0.24811   0.00000  Uiso   1.00
Cl465  Cl    0.90206   0.38487   0.30513   0.00000  Uiso   1.00
Cl466  Cl    0.77107   0.61401   0.18697   0.00000  Uiso   1.00
Cl467  Cl    0.76856   0.38659   0.18968   0.00000  Uiso   1.00
Cl468  Cl    0.89706   0.61299   0.31136   0.00000  Uiso   1.00
H469   H     0.70406   0.42693   0.24768   0.00000  Uiso   1.00
H470   H     0.95801   0.43013   0.48418   0.00000  Uiso   1.00
H471   H     0.76231   0.52923   0.01297   0.00000  Uiso   1.00
H472   H     0.74402   0.54352   0.45628   0.00000  Uiso   1.00
H473   H     0.74337   0.58458   0.49971   0.00000  Uiso   1.00
H474   H     0.77263   0.45569   0.48284   0.00000  Uiso   1.00
H475   H     0.76084   0.43652   0.03901   0.00000  Uiso   1.00
H476   H     0.76917   0.39689   0.49543   0.00000  Uiso   1.00
H477   H     0.91603   0.54165   0.15495   0.00000  Uiso   1.00
H478   H     0.91679   0.60178   0.16001   0.00000  Uiso   1.00
H479   H     0.93211   0.57703   0.10882   0.00000  Uiso   1.00
H480   H     0.96247   0.57324   0.24992   0.00000  Uiso   1.00
H481   H     0.85645   0.36203   0.38125   0.00000  Uiso   1.00
H482   H     0.81314   0.39992   0.38392   0.00000  Uiso   1.00
H483   H     0.84508   0.38626   0.43362   0.00000  Uiso   1.00
H484   H     0.79924   0.63033   0.35714   0.00000  Uiso   1.00
H485   H     0.84389   0.61128   0.38925   0.00000  Uiso   1.00
H486   H     0.79693   0.62906   0.41651   0.00000  Uiso   1.00
H487   H     0.84300   0.36083   0.13036   0.00000  Uiso   1.00
H488   H     0.87979   0.40613   0.13361   0.00000  Uiso   1.00
H489   H     0.86405   0.38193   0.07996   0.00000  Uiso   1.00
H490   H     0.96268   0.42694   0.24654   0.00000  Uiso   1.00
H491   H     0.70396   0.57326   0.25049   0.00000  Uiso   1.00
H492   H     0.93587   0.54964   0.03232   0.00000  Uiso   1.00
H493   H     0.93277   0.60708   0.01385   0.00000  Uiso   1.00
H494   H     0.91301   0.56407   0.47763   0.00000  Uiso   1.00
H495   H     0.94560   0.48821   0.47385   0.00000  Uiso   1.00
H496   H     0.94265   0.44731   0.42874   0.00000  Uiso   1.00
N497   N     0.83333   0.61907   0.25000   0.00000  Uiso   1.00
N498   N     0.83333   0.38093   0.25000   0.00000  Uiso   1.00
O499   O     0.77226   0.53821   0.24999   0.00000  Uiso   1.00
O500   O     0.89564   0.44330   0.47506   0.00000  Uiso   1.00
O501   O     0.80163   0.57073   0.47767   0.00000  Uiso   1.00
O502   O     0.82244   0.42758   0.01922   0.00000  Uiso   1.00
O503   O     0.86857   0.57772   0.12040   0.00000  Uiso   1.00
O504   O     0.87239   0.42893   0.38680   0.00000  Uiso   1.00
O505   O     0.79211   0.56729   0.38449   0.00000  Uiso   1.00
O506   O     0.81959   0.42240   0.10991   0.00000  Uiso   1.00
O507   O     0.89441   0.46179   0.25000   0.00000  Uiso   1.00
O508   O     0.89441   0.53821   0.25000   0.00000  Uiso   1.00
O509   O     0.77226   0.46179   0.24999   0.00000  Uiso   1.00
O510   O     0.83333   0.53822   0.18453   0.00000  Uiso   1.00
O511   O     0.83334   0.46178   0.31547   0.00000  Uiso   1.00
O512   O     0.83334   0.53822   0.31547   0.00000  Uiso   1.00
O513   O     0.83333   0.46178   0.18453   0.00000  Uiso   1.00
O514   O     0.87641   0.58080   0.03069   0.00000  Uiso   1.00
Zn515  Zn    0.83333   0.55104   0.25000   0.00000  Uiso   1.00
Zn516  Zn    0.83333   0.44896   0.25000   0.00000  Uiso   1.00
C517   C     0.08666   0.83337   0.24981   0.00000  Uiso   1.00
C518   C     0.31195   0.87451   0.24946   0.00000  Uiso   1.00
C519   C     0.31205   0.79233   0.24767   0.00000  Uiso   1.00
C520   C     0.02120   0.87453   0.24972   0.00000  Uiso   1.00
C521   C     0.19615   0.87443   0.04996   0.00000  Uiso   1.00
C522   C     0.20274   0.80686   0.45261   0.00000  Uiso   1.00
C523   C     0.15514   0.87114   0.45403   0.00000  Uiso   1.00
C524   C     0.16753   0.79806   0.04441   0.00000  Uiso   1.00
C525   C     0.19171   0.87304   0.09587   0.00000  Uiso   1.00
C526   C     0.19211   0.80051   0.40782   0.00000  Uiso   1.00
C527   C     0.15099   0.87002   0.40748   0.00000  Uiso   1.00
C528   C     0.24666   0.83332   0.24970   0.00000  Uiso   1.00
C529   C     0.16643   0.79528   0.09053   0.00000  Uiso   1.00
C530   C     0.17507   0.83404   0.11611   0.00000  Uiso   1.00
C531   C     0.16878   0.83382   0.38456   0.00000  Uiso   1.00
C532   C     0.18280   0.83737   0.02428   0.00000  Uiso   1.00
C533   C     0.18169   0.83994   0.47609   0.00000  Uiso   1.00
C534   C     0.29080   0.83338   0.24887   0.00000  Uiso   1.00
C535   C     0.04246   0.83342   0.24926   0.00000  Uiso   1.00
C536   C     0.24945   0.90769   0.01304   0.00000  Uiso   1.00
C537   C     0.27040   0.78644   0.46459   0.00000  Uiso   1.00
C538   C     0.09453   0.88909   0.48669   0.00000  Uiso   1.00
C539   C     0.16835   0.83349   0.16386   0.00000  Uiso   1.00
C540   C     0.11270   0.76322   0.00906   0.00000  Uiso   1.00
C541   C     0.24353   0.90716   0.13644   0.00000  Uiso   1.00
C542   C     0.17866   0.72650   0.39717   0.00000  Uiso   1.00
C543   C     0.14254   0.94440   0.38746   0.00000  Uiso   1.00
C544   C     0.18670   0.72526   0.11331   0.00000  Uiso   1.00
C545   C     0.16627   0.83326   0.33620   0.00000  Uiso   1.00
C546   C     0.19546   0.69022   0.27522   0.00000  Uiso   1.00
C547   C     0.13906   0.97623   0.22325   0.00000  Uiso   1.00
C548   C     0.13855   0.69078   0.22384   0.00000  Uiso   1.00
C549   C     0.19470   0.97575   0.27618   0.00000  Uiso   1.00
C550   C     0.02128   0.79233   0.24811   0.00000  Uiso   1.00
Cl551  Cl    0.23540   0.71821   0.30513   0.00000  Uiso   1.00
Cl552  Cl    0.10440   0.94735   0.18697   0.00000  Uiso   1.00
Cl553  Cl    0.10189   0.71992   0.18968   0.00000  Uiso   1.00
Cl554  Cl    0.23039   0.94633   0.31136   0.00000  Uiso   1.00
H555   H     0.03740   0.76026   0.24768   0.00000  Uiso   1.00
H556   H     0.29134   0.76346   0.48418   0.00000  Uiso   1.00
H557   H     0.09564   0.86256   0.01297   0.00000  Uiso   1.00
H558   H     0.07735   0.87685   0.45628   0.00000  Uiso   1.00
H559   H     0.07670   0.91791   0.49971   0.00000  Uiso   1.00
H560   H     0.10596   0.78902   0.48284   0.00000  Uiso   1.00
H561   H     0.09417   0.76985   0.03901   0.00000  Uiso   1.00
H562   H     0.10251   0.73022   0.49543   0.00000  Uiso   1.00
H563   H     0.24936   0.87499   0.15495   0.00000  Uiso   1.00
H564   H     0.25013   0.93511   0.16001   0.00000  Uiso   1.00
H565   H     0.26544   0.91036   0.10882   0.00000  Uiso   1.00
H566   H     0.29580   0.90658   0.24992   0.00000  Uiso   1.00
H567   H     0.18979   0.69536   0.38125   0.00000  Uiso   1.00
H568   H     0.14648   0.73326   0.38392   0.00000  Uiso   1.00
H569   H     0.17841   0.71959   0.43362   0.00000  Uiso   1.00
H570   H     0.13257   0.96366   0.35714   0.00000  Uiso   1.00
H571   H     0.17723   0.94462   0.38925   0.00000  Uiso   1.00
H572   H     0.13026   0.96239   0.41651   0.00000  Uiso   1.00
H573   H     0.17633   0.69416   0.13036   0.00000  Uiso   1.00
H574   H     0.21313   0.73947   0.13361   0.00000  Uiso   1.00
H575   H     0.19738   0.71526   0.07996   0.00000  Uiso   1.00
H576   H     0.29601   0.76028   0.24654   0.00000  Uiso   1.00
H577   H     0.03729   0.90659   0.25049   0.00000  Uiso   1.00
H578   H     0.26921   0.88297   0.03232   0.00000  Uiso   1.00
H579   H     0.26610   0.94041   0.01385   0.00000  Uiso   1.00
H580   H     0.24635   0.89741   0.47763   0.00000  Uiso   1.00
H581   H     0.27894   0.82155   0.47385   0.00000  Uiso   1.00
H582   H     0.27599   0.78065   0.42874   0.00000  Uiso   1.00
N583   N     0.16667   0.95240   0.25000   0.00000  Uiso   1.00
N584   N     0.16667   0.71427   0.25000   0.00000  Uiso   1.00
O585   O     0.10559   0.87154   0.24999   0.00000  Uiso   1.00
O586   O     0.22897   0.77664   0.47506   0.00000  Uiso   1.00
O587   O     0.13497   0.90406   0.47767   0.00000  Uiso   1.00
O588   O     0.15577   0.76092   0.01922   0.00000  Uiso   1.00
O589   O     0.20190   0.91106   0.12040   0.00000  Uiso   1.00
O590   O     0.20572   0.76226   0.38680   0.00000  Uiso   1.00
O591   O     0.12544   0.90062   0.38449   0.00000  Uiso   1.00
O592   O     0.15292   0.75574   0.10991   0.00000  Uiso   1.00
O593   O     0.22774   0.79513   0.25000   0.00000  Uiso   1.00
O594   O     0.22774   0.87154   0.25000   0.00000  Uiso   1.00
O595   O     0.10559   0.79513   0.24999   0.00000  Uiso   1.00
O596   O     0.16666   0.87155   0.18453   0.00000  Uiso   1.00
O597   O     0.16667   0.79511   0.31547   0.00000  Uiso   1.00
O598   O     0.16667   0.87155   0.31547   0.00000  Uiso   1.00
O599   O     0.16666   0.79511   0.18453   0.00000  Uiso   1.00
O600   O     0.20975   0.91413   0.03069   0.00000  Uiso   1.00
Zn601  Zn    0.16667   0.88437   0.25000   0.00000  Uiso   1.00
Zn602  Zn    0.16667   0.78229   0.25000   0.00000  Uiso   1.00
C603   C     0.41999   0.83337   0.24981   0.00000  Uiso   1.00
C604   C     0.64529   0.87451   0.24946   0.00000  Uiso   1.00
C605   C     0.64539   0.79233   0.24767   0.00000  Uiso   1.00
C606   C     0.35454   0.87453   0.24972   0.00000  Uiso   1.00
C607   C     0.52948   0.87443   0.04996   0.00000  Uiso   1.00
C608   C     0.53607   0.80686   0.45261   0.00000  Uiso   1.00
C609   C     0.48847   0.87114   0.45403   0.00000  Uiso   1.00
C610   C     0.50086   0.79806   0.04441   0.00000  Uiso   1.00
C611   C     0.52504   0.87304   0.09587   0.00000  Uiso   1.00
C612   C     0.52544   0.80051   0.40782   0.00000  Uiso   1.00
C613   C     0.48433   0.87002   0.40748   0.00000  Uiso   1.00
C614   C     0.57999   0.83332   0.24970   0.00000  Uiso   1.00
C615   C     0.49976   0.79528   0.09053   0.00000  Uiso   1.00
C616   C     0.50841   0.83404   0.11611   0.00000  Uiso   1.00
C617   C     0.50211   0.83382   0.38456   0.00000  Uiso   1.00
C618   C     0.51613   0.83737   0.02428   0.00000  Uiso   1.00
C619   C     0.51502   0.83994   0.47609   0.00000  Uiso   1.00
C620   C     0.62413   0.83338   0.24887   0.00000  Uiso   1.00
C621   C     0.37580   0.83342   0.24926   0.00000  Uiso   1.00
C622   C     0.58278   0.90769   0.01304   0.00000  Uiso   1.00
C623   C     0.60373   0.78644   0.46459   0.00000  Uiso   1.00
C624   C     0.42786   0.88909   0.48669   0.00000  Uiso   1.00
C625   C     0.50169   0.83349   0.16386   0.00000  Uiso   1.00
C626   C     0.44603   0.76322   0.00906   0.00000  Uiso   1.00
C627   C     0.57687   0.90716   0.13644   0.00000  Uiso   1.00
C628   C     0.51199   0.72650   0.39717   0.00000  Uiso   1.00
C629   C     0.47587   0.94440   0.38746   0.00000  Uiso   1.00
C630   C     0.52003   0.72526   0.11331   0.00000  Uiso   1.00
C631   C     0.49961   0.83326   0.33620   0.00000  Uiso   1.00
C632   C     0.52879   0.69022   0.27522   0.00000  Uiso   1.00
C633   C     0.47239   0.97623   0.22325   0.00000  Uiso   1.00
C634   C     0.47188   0.69078   0.22384   0.00000  Uiso   1.00
C635   C     0.52804   0.97575   0.27618   0.00000  Uiso   1.00
C636   C     0.35462   0.79233   0.24811   0.00000  Uiso   1.00
Cl637  Cl    0.56873   0.71821   0.30513   0.00000  Uiso   1.00
Cl638  Cl    0.43774   0.94735   0.18697   0.00000  Uiso   1.00
Cl639  Cl    0.43522   0.71992   0.18968   0.00000  Uiso   1.00
Cl640  Cl    0.56372   0.94633   0.31136   0.00000  Uiso   1.00
H641   H     0.37073   0.76026   0.24768   0.00000  Uiso   1.00
H642   H     0.62468   0.76346   0.48418   0.00000  Uiso   1.00
H643   H     0.42897   0.86256   0.01297   0.00000  Uiso   1.00
H644   H     0.41069   0.87685   0.45628   0.00000  Uiso   1.00
H645   H     0.41003   0.91791   0.49971   0.00000  Uiso   1.00
H646   H     0.43930   0.78902   0.48284   0.00000  Uiso   1.00
H647   H     0.42751   0.76985   0.03901   0.00000  Uiso   1.00
H648   H     0.43584   0.73022   0.49543   0.00000  Uiso   1.00
H649   H     0.58269   0.87499   0.15495   0.00000  Uiso   1.00
H650   H     0.58346   0.93511   0.16001   0.00000  Uiso   1.00
H651   H     0.59877   0.91036   0.10882   0.00000  Uiso   1.00
H652   H     0.62913   0.90658   0.24992   0.00000  Uiso   1.00
H653   H     0.52312   0.69536   0.38125   0.00000  Uiso   1.00
H654   H     0.47981   0.73326   0.38392   0.00000  Uiso   1.00
H655   H     0.51174   0.71959   0.43362   0.00000  Uiso   1.00
H656   H     0.46591   0.96366   0.35714   0.00000  Uiso   1.00
H657   H     0.51056   0.94462   0.38925   0.00000  Uiso   1.00
H658   H     0.46359   0.96239   0.41651   0.00000  Uiso   1.00
H659   H     0.50967   0.69416   0.13036   0.00000  Uiso   1.00
H660   H     0.54646   0.73947   0.13361   0.00000  Uiso   1.00
H661   H     0.53071   0.71526   0.07996   0.00000  Uiso   1.00
H662   H     0.62934   0.76028   0.24654   0.00000  Uiso   1.00
H663   H     0.37063   0.90659   0.25049   0.00000  Uiso   1.00
H664   H     0.60254   0.88297   0.03232   0.00000  Uiso   1.00
H665   H     0.59943   0.94041   0.01385   0.00000  Uiso   1.00
H666   H     0.57968   0.89741   0.47763   0.00000  Uiso   1.00
H667   H     0.61227   0.82155   0.47385   0.00000  Uiso   1.00
H668   H     0.60932   0.78065   0.42874   0.00000  Uiso   1.00
N669   N     0.50000   0.95240   0.25000   0.00000  Uiso   1.00
N670   N     0.50000   0.71427   0.25000   0.00000  Uiso   1.00
O671   O     0.43892   0.87154   0.24999   0.00000  Uiso   1.00
O672   O     0.56230   0.77664   0.47506   0.00000  Uiso   1.00
O673   O     0.46830   0.90406   0.47767   0.00000  Uiso   1.00
O674   O     0.48910   0.76092   0.01922   0.00000  Uiso   1.00
O675   O     0.53523   0.91106   0.12040   0.00000  Uiso   1.00
O676   O     0.53905   0.76226   0.38680   0.00000  Uiso   1.00
O677   O     0.45878   0.90062   0.38449   0.00000  Uiso   1.00
O678   O     0.48625   0.75574   0.10991   0.00000  Uiso   1.00
O679   O     0.56108   0.79513   0.25000   0.00000  Uiso   1.00
O680   O     0.56108   0.87154   0.25000   0.00000  Uiso   1.00
O681   O     0.43892   0.79513   0.24999   0.00000  Uiso   1.00
O682   O     0.50000   0.87155   0.18453   0.00000  Uiso   1.00
O683   O     0.50000   0.79511   0.31547   0.00000  Uiso   1.00
O684   O     0.50000   0.87155   0.31547   0.00000  Uiso   1.00
O685   O     0.50000   0.79511   0.18453   0.00000  Uiso   1.00
O686   O     0.54308   0.91413   0.03069   0.00000  Uiso   1.00
Zn687  Zn    0.50000   0.88437   0.25000   0.00000  Uiso   1.00
Zn688  Zn    0.50000   0.78229   0.25000   0.00000  Uiso   1.00
C689   C     0.75333   0.83337   0.24981   0.00000  Uiso   1.00
C690   C     0.97862   0.87451   0.24946   0.00000  Uiso   1.00
C691   C     0.97872   0.79233   0.24767   0.00000  Uiso   1.00
C692   C     0.68787   0.87453   0.24972   0.00000  Uiso   1.00
C693   C     0.86282   0.87443   0.04996   0.00000  Uiso   1.00
C694   C     0.86940   0.80686   0.45261   0.00000  Uiso   1.00
C695   C     0.82180   0.87114   0.45403   0.00000  Uiso   1.00
C696   C     0.83419   0.79806   0.04441   0.00000  Uiso   1.00
C697   C     0.85837   0.87304   0.09587   0.00000  Uiso   1.00
C698   C     0.85877   0.80051   0.40782   0.00000  Uiso   1.00
C699   C     0.81766   0.87002   0.40748   0.00000  Uiso   1.00
C700   C     0.91332   0.83332   0.24970   0.00000  Uiso   1.00
C701   C     0.83310   0.79528   0.09053   0.00000  Uiso   1.00
C702   C     0.84174   0.83404   0.11611   0.00000  Uiso   1.00
C703   C     0.83545   0.83382   0.38456   0.00000  Uiso   1.00
C704   C     0.84946   0.83737   0.02428   0.00000  Uiso   1.00
C705   C     0.84836   0.83994   0.47609   0.00000  Uiso   1.00
C706   C     0.95747   0.83338   0.24887   0.00000  Uiso   1.00
C707   C     0.70913   0.83342   0.24926   0.00000  Uiso   1.00
C708   C     0.91611   0.90769   0.01304   0.00000  Uiso   1.00
C709   C     0.93706   0.78644   0.46459   0.00000  Uiso   1.00
C710   C     0.76120   0.88909   0.48669   0.00000  Uiso   1.00
C711   C     0.83502   0.83349   0.16386   0.00000  Uiso   1.00
C712   C     0.77937   0.76322   0.00906   0.00000  Uiso   1.00
C713   C     0.91020   0.90716   0.13644   0.00000  Uiso   1.00
C714   C     0.84532   0.72650   0.39717   0.00000  Uiso   1.00
C715   C     0.80921   0.94440   0.38746   0.00000  Uiso   1.00
C716   C     0.85336   0.72526   0.11331   0.00000  Uiso   1.00
C717   C     0.83294   0.83326   0.33620   0.00000  Uiso   1.00
C718   C     0.86212   0.69022   0.27522   0.00000  Uiso   1.00
C719   C     0.80572   0.97623   0.22325   0.00000  Uiso   1.00
C720   C     0.80522   0.69078   0.22384   0.00000  Uiso   1.00
C721   C     0.86137   0.97575   0.27618   0.00000  Uiso   1.00
C722   C     0.68795   0.79233   0.24811   0.00000  Uiso   1.00
Cl723  Cl    0.90206   0.71821   0.30513   0.00000  Uiso   1.00
Cl724  Cl    0.77107   0.94735   0.18697   0.00000  Uiso   1.00
Cl725  Cl    0.76856   0.71992   0.18968   0.00000  Uiso   1.00
Cl726  Cl    0.89706   0.94633   0.31136   0.00000  Uiso   1.00
H727   H     0.70406   0.76026   0.24768   0.00000  Uiso   1.00
H728   H     0.95801   0.76346   0.48418   0.00000  Uiso   1.00
H729   H     0.76231   0.86256   0.01297   0.00000  Uiso   1.00
H730   H     0.74402   0.87685   0.45628   0.00000  Uiso   1.00
H731   H     0.74337   0.91791   0.49971   0.00000  Uiso   1.00
H732   H     0.77263   0.78902   0.48284   0.00000  Uiso   1.00
H733   H     0.76084   0.76985   0.03901   0.00000  Uiso   1.00
H734   H     0.76917   0.73022   0.49543   0.00000  Uiso   1.00
H735   H     0.91603   0.87499   0.15495   0.00000  Uiso   1.00
H736   H     0.91679   0.93511   0.16001   0.00000  Uiso   1.00
H737   H     0.93211   0.91036   0.10882   0.00000  Uiso   1.00
H738   H     0.96247   0.90658   0.24992   0.00000  Uiso   1.00
H739   H     0.85645   0.69536   0.38125   0.00000  Uiso   1.00
H740   H     0.81314   0.73326   0.38392   0.00000  Uiso   1.00
H741   H     0.84508   0.71959   0.43362   0.00000  Uiso   1.00
H742   H     0.79924   0.96366   0.35714   0.00000  Uiso   1.00
H743   H     0.84389   0.94462   0.38925   0.00000  Uiso   1.00
H744   H     0.79693   0.96239   0.41651   0.00000  Uiso   1.00
H745   H     0.84300   0.69416   0.13036   0.00000  Uiso   1.00
H746   H     0.87979   0.73947   0.13361   0.00000  Uiso   1.00
H747   H     0.86405   0.71526   0.07996   0.00000  Uiso   1.00
H748   H     0.96268   0.76028   0.24654   0.00000  Uiso   1.00
H749   H     0.70396   0.90659   0.25049   0.00000  Uiso   1.00
H750   H     0.93587   0.88297   0.03232   0.00000  Uiso   1.00
H751   H     0.93277   0.94041   0.01385   0.00000  Uiso   1.00
H752   H     0.91301   0.89741   0.47763   0.00000  Uiso   1.00
H753   H     0.94560   0.82155   0.47385   0.00000  Uiso   1.00
H754   H     0.94265   0.78065   0.42874   0.00000  Uiso   1.00
N755   N     0.83333   0.95240   0.25000   0.00000  Uiso   1.00
N756   N     0.83333   0.71427   0.25000   0.00000  Uiso   1.00
O757   O     0.77226   0.87154   0.24999   0.00000  Uiso   1.00
O758   O     0.89564   0.77664   0.47506   0.00000  Uiso   1.00
O759   O     0.80163   0.90406   0.47767   0.00000  Uiso   1.00
O760   O     0.82244   0.76092   0.01922   0.00000  Uiso   1.00
O761   O     0.86857   0.91106   0.12040   0.00000  Uiso   1.00
O762   O     0.87239   0.76226   0.38680   0.00000  Uiso   1.00
O763   O     0.79211   0.90062   0.38449   0.00000  Uiso   1.00
O764   O     0.81959   0.75574   0.10991   0.00000  Uiso   1.00
O765   O     0.89441   0.79513   0.25000   0.00000  Uiso   1.00
O766   O     0.89441   0.87154   0.25000   0.00000  Uiso   1.00
O767   O     0.77226   0.79513   0.24999   0.00000  Uiso   1.00
O768   O     0.83333   0.87155   0.18453   0.00000  Uiso   1.00
O769   O     0.83334   0.79511   0.31547   0.00000  Uiso   1.00
O770   O     0.83334   0.87155   0.31547   0.00000  Uiso   1.00
O771   O     0.83333   0.79511   0.18453   0.00000  Uiso   1.00
O772   O     0.87641   0.91413   0.03069   0.00000  Uiso   1.00
Zn773  Zn    0.83333   0.88437   0.25000   0.00000  Uiso   1.00
Zn774  Zn    0.83333   0.78229   0.25000   0.00000  Uiso   1.00
C775   C     0.08666   0.16670   0.74981   0.00000  Uiso   1.00
C776   C     0.31195   0.20785   0.74946   0.00000  Uiso   1.00
C777   C     0.31205   0.12566   0.74767   0.00000  Uiso   1.00
C778   C     0.02120   0.20787   0.74972   0.00000  Uiso   1.00
C779   C     0.19615   0.20776   0.54996   0.00000  Uiso   1.00
C780   C     0.20274   0.14019   0.95261   0.00000  Uiso   1.00
C781   C     0.15514   0.20448   0.95403   0.00000  Uiso   1.00
C782   C     0.16753   0.13140   0.54441   0.00000  Uiso   1.00
C783   C     0.19171   0.20637   0.59587   0.00000  Uiso   1.00
C784   C     0.19211   0.13384   0.90782   0.00000  Uiso   1.00
C785   C     0.15099   0.20335   0.90748   0.00000  Uiso   1.00
C786   C     0.24666   0.16666   0.74970   0.00000  Uiso   1.00
C787   C     0.16643   0.12861   0.59053   0.00000  Uiso   1.00
C788   C     0.17507   0.16737   0.61611   0.00000  Uiso   1.00
C789   C     0.16878   0.16715   0.88456   0.00000  Uiso   1.00
C790   C     0.18280   0.17070   0.52428   0.00000  Uiso   1.00
C791   C     0.18169   0.17327   0.97609   0.00000  Uiso   1.00
C792   C     0.29080   0.16671   0.74887   0.00000  Uiso   1.00
C793   C     0.04246   0.16676   0.74926   0.00000  Uiso   1.00
C794   C     0.24945   0.24103   0.51304   0.00000  Uiso   1.00
C795   C     0.27040   0.11978   0.96459   0.00000  Uiso   1.00
C796   C     0.09453   0.22243   0.98669   0.00000  Uiso   1.00
C797   C     0.16835   0.16682   0.66386   0.00000  Uiso   1.00
C798   C     0.11270   0.09656   0.50906   0.00000  Uiso   1.00
C799   C     0.24353   0.24049   0.63644   0.00000  Uiso   1.00
C800   C     0.17866   0.05983   0.89717   0.00000  Uiso   1.00
C801   C     0.14254   0.27773   0.88746   0.00000  Uiso   1.00
C802   C     0.18670   0.05859   0.61331   0.00000  Uiso   1.00
C803   C     0.16627   0.16660   0.83620   0.00000  Uiso   1.00
C804   C     0.19546   0.02356   0.77522   0.00000  Uiso   1.00
C805   C     0.13906   0.30957   0.72325   0.00000  Uiso   1.00
C806   C     0.13855   0.02412   0.72384   0.00000  Uiso   1.00
C807   C     0.19470   0.30908   0.77618   0.00000  Uiso   1.00
C808   C     0.02128   0.12567   0.74811   0.00000  Uiso   1.00
Cl809  Cl    0.23540   0.05154   0.80513   0.00000  Uiso   1.00
Cl810  Cl    0.10440   0.28068   0.68697   0.00000  Uiso   1.00
Cl811  Cl    0.10189   0.05325   0.68968   0.00000  Uiso   1.00
Cl812  Cl    0.23039   0.27966   0.81136   0.00000  Uiso   1.00
H813   H     0.03740   0.09359   0.74768   0.00000  Uiso   1.00
H814   H     0.29134   0.09680   0.98418   0.00000  Uiso   1.00
H815   H     0.09564   0.19590   0.51297   0.00000  Uiso   1.00
H816   H     0.07735   0.21018   0.95628   0.00000  Uiso   1.00
H817   H     0.07670   0.25125   0.99971   0.00000  Uiso   1.00
H818   H     0.10596   0.12235   0.98284   0.00000  Uiso   1.00
H819   H     0.09417   0.10319   0.53901   0.00000  Uiso   1.00
H820   H     0.10251   0.06355   0.99543   0.00000  Uiso   1.00
H821   H     0.24936   0.20832   0.65495   0.00000  Uiso   1.00
H822   H     0.25013   0.26844   0.66001   0.00000  Uiso   1.00
H823   H     0.26544   0.24370   0.60882   0.00000  Uiso   1.00
H824   H     0.29580   0.23991   0.74992   0.00000  Uiso   1.00
H825   H     0.18979   0.02870   0.88125   0.00000  Uiso   1.00
H826   H     0.14648   0.06659   0.88392   0.00000  Uiso   1.00
H827   H     0.17841   0.05292   0.93362   0.00000  Uiso   1.00
H828   H     0.13257   0.29699   0.85714   0.00000  Uiso   1.00
H829   H     0.17723   0.27795   0.88925   0.00000  Uiso   1.00
H830   H     0.13026   0.29573   0.91651   0.00000  Uiso   1.00
H831   H     0.17633   0.02750   0.63036   0.00000  Uiso   1.00
H832   H     0.21313   0.07280   0.63361   0.00000  Uiso   1.00
H833   H     0.19738   0.04859   0.57996   0.00000  Uiso   1.00
H834   H     0.29601   0.09361   0.74654   0.00000  Uiso   1.00
H835   H     0.03729   0.23993   0.75049   0.00000  Uiso   1.00
H836   H     0.26921   0.21630   0.53232   0.00000  Uiso   1.00
H837   H     0.26610   0.27374   0.51385   0.00000  Uiso   1.00
H838   H     0.24635   0.23074   0.97763   0.00000  Uiso   1.00
H839   H     0.27894   0.15488   0.97385   0.00000  Uiso   1.00
H840   H     0.27599   0.11398   0.92874   0.00000  Uiso   1.00
N841   N     0.16667   0.28573   0.75000   0.00000  Uiso   1.00
N842   N     0.16667   0.04760   0.75000   0.00000  Uiso   1.00
O843   O     0.10559   0.20487   0.74999   0.00000  Uiso   1.00
O844   O     0.22897   0.10997   0.97506   0.00000  Uiso   1.00
O845   O     0.13497   0.23739   0.97767   0.00000  Uiso   1.00
O846   O     0.15577   0.09425   0.51922   0.00000  Uiso   1.00
O847   O     0.20190   0.24439   0.62040   0.00000  Uiso   1.00
O848   O     0.20572   0.09560   0.88680   0.00000  Uiso   1.00
O849   O     0.12544   0.23396   0.88449   0.00000  Uiso   1.00
O850   O     0.15292   0.08907   0.60991   0.00000  Uiso   1.00
O851   O     0.22774   0.12846   0.75000   0.00000  Uiso   1.00
O852   O     0.22774   0.20487   0.75000   0.00000  Uiso   1.00
O853   O     0.10559   0.12846   0.74999   0.00000  Uiso   1.00
O854   O     0.16666   0.20489   0.68453   0.00000  Uiso   1.00
O855   O     0.16667   0.12845   0.81547   0.00000  Uiso   1.00
O856   O     0.16667   0.20489   0.81547   0.00000  Uiso   1.00
O857   O     0.16666   0.12845   0.68453   0.00000  Uiso   1.00
O858   O     0.20975   0.24747   0.53069   0.00000  Uiso   1.00
Zn859  Zn    0.16667   0.21771   0.75000   0.00000  Uiso   1.00
Zn860  Zn    0.16667   0.11563   0.75000   0.00000  Uiso   1.00
C861   C     0.41999   0.16670   0.74981   0.00000  Uiso   1.00
C862   C     0.64529   0.20785   0.74946   0.00000  Uiso   1.00
C863   C     0.64539   0.12566   0.74767   0.00000  Uiso   1.00
C864   C     0.35454   0.20787   0.74972   0.00000  Uiso   1.00
C865   C     0.52948   0.20776   0.54996   0.00000  Uiso   1.00
C866   C     0.53607   0.14019   0.95261   0.00000  Uiso   1.00
C867   C     0.48847   0.20448   0.95403   0.00000  Uiso   1.00
C868   C     0.50086   0.13140   0.54441   0.00000  Uiso   1.00
C869   C     0.52504   0.20637   0.59587   0.00000  Uiso   1.00
C870   C     0.52544   0.13384   0.90782   0.00000  Uiso   1.00
C871   C     0.48433   0.20335   0.90748   0.00000  Uiso   1.00
C872   C     0.57999   0.16666   0.74970   0.00000  Uiso   1.00
C873   C     0.49976   0.12861   0.59053   0.00000  Uiso   1.00
C874   C     0.50841   0.16737   0.61611   0.00000  Uiso   1.00
C875   C     0.50211   0.16715   0.88456   0.00000  Uiso   1.00
C876   C     0.51613   0.17070   0.52428   0.00000  Uiso   1.00
C877   C     0.51502   0.17327   0.97609   0.00000  Uiso   1.00
C878   C     0.62413   0.16671   0.74887   0.00000  Uiso   1.00
C879   C     0.37580   0.16676   0.74926   0.00000  Uiso   1.00
C880   C     0.58278   0.24103   0.51304   0.00000  Uiso   1.00
C881   C     0.60373   0.11978   0.96459   0.00000  Uiso   1.00
C882   C     0.42786   0.22243   0.98669   0.00000  Uiso   1.00
C883   C     0.50169   0.16682   0.66386   0.00000  Uiso   1.00
C884   C     0.44603   0.09656   0.50906   0.00000  Uiso   1.00
C885   C     0.57687   0.24049   0.63644   0.00000  Uiso   1.00
C886   C     0.51199   0.05983   0.89717   0.00000  Uiso   1.00
C887   C     0.47587   0.27773   0.88746   0.00000  Uiso   1.00
C888   C     0.52003   0.05859   0.61331   0.00000  Uiso   1.00
C889   C     0.49961   0.16660   0.83620   0.00000  Uiso   1.00
C890   C     0.52879   0.02356   0.77522   0.00000  Uiso   1.00
C891   C     0.47239   0.30957   0.72325   0.00000  Uiso   1.00
C892   C     0.47188   0.02412   0.72384   0.00000  Uiso   1.00
C893   C     0.52804   0.30908   0.77618   0.00000  Uiso   1.00
C894   C     0.35462   0.12567   0.74811   0.00000  Uiso   1.00
Cl895  Cl    0.56873   0.05154   0.80513   0.00000  Uiso   1.00
Cl896  Cl    0.43774   0.28068   0.68697   0.00000  Uiso   1.00
Cl897  Cl    0.43522   0.05325   0.68968   0.00000  Uiso   1.00
Cl898  Cl    0.56372   0.27966   0.81136   0.00000  Uiso   1.00
H899   H     0.37073   0.09359   0.74768   0.00000  Uiso   1.00
H900   H     0.62468   0.09680   0.98418   0.00000  Uiso   1.00
H901   H     0.42897   0.19590   0.51297   0.00000  Uiso   1.00
H902   H     0.41069   0.21018   0.95628   0.00000  Uiso   1.00
H903   H     0.41003   0.25125   0.99971   0.00000  Uiso   1.00
H904   H     0.43930   0.12235   0.98284   0.00000  Uiso   1.00
H905   H     0.42751   0.10319   0.53901   0.00000  Uiso   1.00
H906   H     0.43584   0.06355   0.99543   0.00000  Uiso   1.00
H907   H     0.58269   0.20832   0.65495   0.00000  Uiso   1.00
H908   H     0.58346   0.26844   0.66001   0.00000  Uiso   1.00
H909   H     0.59877   0.24370   0.60882   0.00000  Uiso   1.00
H910   H     0.62913   0.23991   0.74992   0.00000  Uiso   1.00
H911   H     0.52312   0.02870   0.88125   0.00000  Uiso   1.00
H912   H     0.47981   0.06659   0.88392   0.00000  Uiso   1.00
H913   H     0.51174   0.05292   0.93362   0.00000  Uiso   1.00
H914   H     0.46591   0.29699   0.85714   0.00000  Uiso   1.00
H915   H     0.51056   0.27795   0.88925   0.00000  Uiso   1.00
H916   H     0.46359   0.29573   0.91651   0.00000  Uiso   1.00
H917   H     0.50967   0.02750   0.63036   0.00000  Uiso   1.00
H918   H     0.54646   0.07280   0.63361   0.00000  Uiso   1.00
H919   H     0.53071   0.04859   0.57996   0.00000  Uiso   1.00
H920   H     0.62934   0.09361   0.74654   0.00000  Uiso   1.00
H921   H     0.37063   0.23993   0.75049   0.00000  Uiso   1.00
H922   H     0.60254   0.21630   0.53232   0.00000  Uiso   1.00
H923   H     0.59943   0.27374   0.51385   0.00000  Uiso   1.00
H924   H     0.57968   0.23074   0.97763   0.00000  Uiso   1.00
H925   H     0.61227   0.15488   0.97385   0.00000  Uiso   1.00
H926   H     0.60932   0.11398   0.92874   0.00000  Uiso   1.00
N927   N     0.50000   0.28573   0.75000   0.00000  Uiso   1.00
N928   N     0.50000   0.04760   0.75000   0.00000  Uiso   1.00
O929   O     0.43892   0.20487   0.74999   0.00000  Uiso   1.00
O930   O     0.56230   0.10997   0.97506   0.00000  Uiso   1.00
O931   O     0.46830   0.23739   0.97767   0.00000  Uiso   1.00
O932   O     0.48910   0.09425   0.51922   0.00000  Uiso   1.00
O933   O     0.53523   0.24439   0.62040   0.00000  Uiso   1.00
O934   O     0.53905   0.09560   0.88680   0.00000  Uiso   1.00
O935   O     0.45878   0.23396   0.88449   0.00000  Uiso   1.00
O936   O     0.48625   0.08907   0.60991   0.00000  Uiso   1.00
O937   O     0.56108   0.12846   0.75000   0.00000  Uiso   1.00
O938   O     0.56108   0.20487   0.75000   0.00000  Uiso   1.00
O939   O     0.43892   0.12846   0.74999   0.00000  Uiso   1.00
O940   O     0.50000   0.20489   0.68453   0.00000  Uiso   1.00
O941   O     0.50000   0.12845   0.81547   0.00000  Uiso   1.00
O942   O     0.50000   0.20489   0.81547   0.00000  Uiso   1.00
O943   O     0.50000   0.12845   0.68453   0.00000  Uiso   1.00
O944   O     0.54308   0.24747   0.53069   0.00000  Uiso   1.00
Zn945  Zn    0.50000   0.21771   0.75000   0.00000  Uiso   1.00
Zn946  Zn    0.50000   0.11563   0.75000   0.00000  Uiso   1.00
C947   C     0.75333   0.16670   0.74981   0.00000  Uiso   1.00
C948   C     0.97862   0.20785   0.74946   0.00000  Uiso   1.00
C949   C     0.97872   0.12566   0.74767   0.00000  Uiso   1.00
C950   C     0.68787   0.20787   0.74972   0.00000  Uiso   1.00
C951   C     0.86282   0.20776   0.54996   0.00000  Uiso   1.00
C952   C     0.86940   0.14019   0.95261   0.00000  Uiso   1.00
C953   C     0.82180   0.20448   0.95403   0.00000  Uiso   1.00
C954   C     0.83419   0.13140   0.54441   0.00000  Uiso   1.00
C955   C     0.85837   0.20637   0.59587   0.00000  Uiso   1.00
C956   C     0.85877   0.13384   0.90782   0.00000  Uiso   1.00
C957   C     0.81766   0.20335   0.90748   0.00000  Uiso   1.00
C958   C     0.91332   0.16666   0.74970   0.00000  Uiso   1.00
C959   C     0.83310   0.12861   0.59053   0.00000  Uiso   1.00
C960   C     0.84174   0.16737   0.61611   0.00000  Uiso   1.00
C961   C     0.83545   0.16715   0.88456   0.00000  Uiso   1.00
C962   C     0.84946   0.17070   0.52428   0.00000  Uiso   1.00
C963   C     0.84836   0.17327   0.97609   0.00000  Uiso   1.00
C964   C     0.95747   0.16671   0.74887   0.00000  Uiso   1.00
C965   C     0.70913   0.16676   0.74926   0.00000  Uiso   1.00
C966   C     0.91611   0.24103   0.51304   0.00000  Uiso   1.00
C967   C     0.93706   0.11978   0.96459   0.00000  Uiso   1.00
C968   C     0.76120   0.22243   0.98669   0.00000  Uiso   1.00
C969   C     0.83502   0.16682   0.66386   0.00000  Uiso   1.00
C970   C     0.77937   0.09656   0.50906   0.00000  Uiso   1.00
C971   C     0.91020   0.24049   0.63644   0.00000  Uiso   1.00
C972   C     0.84532   0.05983   0.89717   0.00000  Uiso   1.00
C973   C     0.80921   0.27773   0.88746   0.00000  Uiso   1.00
C974   C     0.85336   0.05859   0.61331   0.00000  Uiso   1.00
C975   C     0.83294   0.16660   0.83620   0.00000  Uiso   1.00
C976   C     0.86212   0.02356   0.77522   0.00000  Uiso   1.00
C977   C     0.80572   0.30957   0.72325   0.00000  Uiso   1.00
C978   C     0.80522   0.02412   0.72384   0.00000  Uiso   1.00
C979   C     0.86137   0.30908   0.77618   0.00000  Uiso   1.00
C980   C     0.68795   0.12567   0.74811   0.00000  Uiso   1.00
Cl981  Cl    0.90206   0.05154   0.80513   0.00000  Uiso   1.00
Cl982  Cl    0.77107   0.28068   0.68697   0.00000  Uiso   1.00
Cl983  Cl    0.76856   0.05325   0.68968   0.00000  Uiso   1.00
Cl984  Cl    0.89706   0.27966   0.81136   0.00000  Uiso   1.00
H985   H     0.70406   0.09359   0.74768   0.00000  Uiso   1.00
H986   H     0.95801   0.09680   0.98418   0.00000  Uiso   1.00
H987   H     0.76231   0.19590   0.51297   0.00000  Uiso   1.00
H988   H     0.74402   0.21018   0.95628   0.00000  Uiso   1.00
H989   H     0.74337   0.25125   0.99971   0.00000  Uiso   1.00
H990   H     0.77263   0.12235   0.98284   0.00000  Uiso   1.00
H991   H     0.76084   0.10319   0.53901   0.00000  Uiso   1.00
H992   H     0.76917   0.06355   0.99543   0.00000  Uiso   1.00
H993   H     0.91603   0.20832   0.65495   0.00000  Uiso   1.00
H994   H     0.91679   0.26844   0.66001   0.00000  Uiso   1.00
H995   H     0.93211   0.24370   0.60882   0.00000  Uiso   1.00
H996   H     0.96247   0.23991   0.74992   0.00000  Uiso   1.00
H997   H     0.85645   0.02870   0.88125   0.00000  Uiso   1.00
H998   H     0.81314   0.06659   0.88392   0.00000  Uiso   1.00
H999   H     0.84508   0.05292   0.93362   0.00000  Uiso   1.00
H1000  H     0.79924   0.29699   0.85714   0.00000  Uiso   1.00
H1001  H     0.84389   0.27795   0.88925   0.00000  Uiso   1.00
H1002  H     0.79693   0.29573   0.91651   0.00000  Uiso   1.00
H1003  H     0.84300   0.02750   0.63036   0.00000  Uiso   1.00
H1004  H     0.87979   0.07280   0.63361   0.00000  Uiso   1.00
H1005  H     0.86405   0.04859   0.57996   0.00000  Uiso   1.00
H1006  H     0.96268   0.09361   0.74654   0.00000  Uiso   1.00
H1007  H     0.70396   0.23993   0.75049   0.00000  Uiso   1.00
H1008  H     0.93587   0.21630   0.53232   0.00000  Uiso   1.00
H1009  H     0.93277   0.27374   0.51385   0.00000  Uiso   1.00
H1010  H     0.91301   0.23074   0.97763   0.00000  Uiso   1.00
H1011  H     0.94560   0.15488   0.97385   0.00000  Uiso   1.00
H1012  H     0.94265   0.11398   0.92874   0.00000  Uiso   1.00
N1013  N     0.83333   0.28573   0.75000   0.00000  Uiso   1.00
N1014  N     0.83333   0.04760   0.75000   0.00000  Uiso   1.00
O1015  O     0.77226   0.20487   0.74999   0.00000  Uiso   1.00
O1016  O     0.89564   0.10997   0.97506   0.00000  Uiso   1.00
O1017  O     0.80163   0.23739   0.97767   0.00000  Uiso   1.00
O1018  O     0.82244   0.09425   0.51922   0.00000  Uiso   1.00
O1019  O     0.86857   0.24439   0.62040   0.00000  Uiso   1.00
O1020  O     0.87239   0.09560   0.88680   0.00000  Uiso   1.00
O1021  O     0.79211   0.23396   0.88449   0.00000  Uiso   1.00
O1022  O     0.81959   0.08907   0.60991   0.00000  Uiso   1.00
O1023  O     0.89441   0.12846   0.75000   0.00000  Uiso   1.00
O1024  O     0.89441   0.20487   0.75000   0.00000  Uiso   1.00
O1025  O     0.77226   0.12846   0.74999   0.00000  Uiso   1.00
O1026  O     0.83333   0.20489   0.68453   0.00000  Uiso   1.00
O1027  O     0.83334   0.12845   0.81547   0.00000  Uiso   1.00
O1028  O     0.83334   0.20489   0.81547   0.00000  Uiso   1.00
O1029  O     0.83333   0.12845   0.68453   0.00000  Uiso   1.00
O1030  O     0.87641   0.24747   0.53069   0.00000  Uiso   1.00
Zn1031 Zn    0.83333   0.21771   0.75000   0.00000  Uiso   1.00
Zn1032 Zn    0.83333   0.11563   0.75000   0.00000  Uiso   1.00
C1033  C     0.08666   0.50004   0.74981   0.00000  Uiso   1.00
C1034  C     0.31195   0.54118   0.74946   0.00000  Uiso   1.00
C1035  C     0.31205   0.45899   0.74767   0.00000  Uiso   1.00
C1036  C     0.02120   0.54120   0.74972   0.00000  Uiso   1.00
C1037  C     0.19615   0.54109   0.54996   0.00000  Uiso   1.00
C1038  C     0.20274   0.47353   0.95261   0.00000  Uiso   1.00
C1039  C     0.15514   0.53781   0.95403   0.00000  Uiso   1.00
C1040  C     0.16753   0.46473   0.54441   0.00000  Uiso   1.00
C1041  C     0.19171   0.53970   0.59587   0.00000  Uiso   1.00
C1042  C     0.19211   0.46717   0.90782   0.00000  Uiso   1.00
C1043  C     0.15099   0.53669   0.90748   0.00000  Uiso   1.00
C1044  C     0.24666   0.49999   0.74970   0.00000  Uiso   1.00
C1045  C     0.16643   0.46195   0.59053   0.00000  Uiso   1.00
C1046  C     0.17507   0.50071   0.61611   0.00000  Uiso   1.00
C1047  C     0.16878   0.50048   0.88456   0.00000  Uiso   1.00
C1048  C     0.18280   0.50403   0.52428   0.00000  Uiso   1.00
C1049  C     0.18169   0.50660   0.97609   0.00000  Uiso   1.00
C1050  C     0.29080   0.50005   0.74887   0.00000  Uiso   1.00
C1051  C     0.04246   0.50009   0.74926   0.00000  Uiso   1.00
C1052  C     0.24945   0.57436   0.51304   0.00000  Uiso   1.00
C1053  C     0.27040   0.45311   0.96459   0.00000  Uiso   1.00
C1054  C     0.09453   0.55576   0.98669   0.00000  Uiso   1.00
C1055  C     0.16835   0.50015   0.66386   0.00000  Uiso   1.00
C1056  C     0.11270   0.42989   0.50906   0.00000  Uiso   1.00
C1057  C     0.24353   0.57383   0.63644   0.00000  Uiso   1.00
C1058  C     0.17866   0.39316   0.89717   0.00000  Uiso   1.00
C1059  C     0.14254   0.61106   0.88746   0.00000  Uiso   1.00
C1060  C     0.18670   0.39192   0.61331   0.00000  Uiso   1.00
C1061  C     0.16627   0.49993   0.83620   0.00000  Uiso   1.00
C1062  C     0.19546   0.35689   0.77522   0.00000  Uiso   1.00
C1063  C     0.13906   0.64290   0.72325   0.00000  Uiso   1.00
C1064  C     0.13855   0.35745   0.72384   0.00000  Uiso   1.00
C1065  C     0.19470   0.64241   0.77618   0.00000  Uiso   1.00
C1066  C     0.02128   0.45900   0.74811   0.00000  Uiso   1.00
Cl1067 Cl    0.23540   0.38487   0.80513   0.00000  Uiso   1.00
Cl1068 Cl    0.10440   0.61401   0.68697   0.00000  Uiso   1.00
Cl1069 Cl    0.10189   0.38659   0.68968   0.00000  Uiso   1.00
Cl1070 Cl    0.23039   0.61299   0.81136   0.00000  Uiso   1.00
H1071  H     0.03740   0.42693   0.74768   0.00000  Uiso   1.00
H1072  H     0.29134   0.43013   0.98418   0.00000  Uiso   1.00
H1073  H     0.09564   0.52923   0.51297   0.00000  Uiso   1.00
H1074  H     0.07735   0.54352   0.95628   0.00000  Uiso   1.00
H1075  H     0.07670   0.58458   0.99971   0.00000  Uiso   1.00
H1076  H     0.10596   0.45569   0.98284   0.00000  Uiso   1.00
H1077  H     0.09417   0.43652   0.53901   0.00000  Uiso   1.00
H1078  H     0.10251   0.39689   0.99543   0.00000  Uiso   1.00
H1079  H     0.24936   0.54165   0.65495   0.00000  Uiso   1.00
H1080  H     0.25013   0.60178   0.66001   0.00000  Uiso   1.00
H1081  H     0.26544   0.57703   0.60882   0.00000  Uiso   1.00
H1082  H     0.29580   0.57324   0.74992   0.00000  Uiso   1.00
H1083  H     0.18979   0.36203   0.88125   0.00000  Uiso   1.00
H1084  H     0.14648   0.39992   0.88392   0.00000  Uiso   1.00
H1085  H     0.17841   0.38626   0.93362   0.00000  Uiso   1.00
H1086  H     0.13257   0.63033   0.85714   0.00000  Uiso   1.00
H1087  H     0.17723   0.61128   0.88925   0.00000  Uiso   1.00
H1088  H     0.13026   0.62906   0.91651   0.00000  Uiso   1.00
H1089  H     0.17633   0.36083   0.63036   0.00000  Uiso   1.00
H1090  H     0.21313   0.40613   0.63361   0.00000  Uiso   1.00
H1091  H     0.19738   0.38193   0.57996   0.00000  Uiso   1.00
H1092  H     0.29601   0.42694   0.74654   0.00000  Uiso   1.00
H1093  H     0.03729   0.57326   0.75049   0.00000  Uiso   1.00
H1094  H     0.26921   0.54964   0.53232   0.00000  Uiso   1.00
H1095  H     0.26610   0.60708   0.51385   0.00000  Uiso   1.00
H1096  H     0.24635   0.56407   0.97763   0.00000  Uiso   1.00
H1097  H     0.27894   0.48821   0.97385   0.00000  Uiso   1.00
H1098  H     0.27599   0.44731   0.92874   0.00000  Uiso   1.00
N1099  N     0.16667   0.61907   0.75000   0.00000  Uiso   1.00
N1100  N     0.16667   0.38093   0.75000   0.00000  Uiso   1.00
O1101  O     0.10559   0.53821   0.74999   0.00000  Uiso   1.00
O1102  O     0.22897   0.44330   0.97506   0.00000  Uiso   1.00
O1103  O     0.13497   0.57073   0.97767   0.00000  Uiso   1.00
O1104  O     0.15577   0.42758   0.51922   0.00000  Uiso   1.00
O1105  O     0.20190   0.57772   0.62040   0.00000  Uiso   1.00
O1106  O     0.20572   0.42893   0.88680   0.00000  Uiso   1.00
O1107  O     0.12544   0.56729   0.88449   0.00000  Uiso   1.00
O1108  O     0.15292   0.42240   0.60991   0.00000  Uiso   1.00
O1109  O     0.22774   0.46179   0.75000   0.00000  Uiso   1.00
O1110  O     0.22774   0.53821   0.75000   0.00000  Uiso   1.00
O1111  O     0.10559   0.46179   0.74999   0.00000  Uiso   1.00
O1112  O     0.16666   0.53822   0.68453   0.00000  Uiso   1.00
O1113  O     0.16667   0.46178   0.81547   0.00000  Uiso   1.00
O1114  O     0.16667   0.53822   0.81547   0.00000  Uiso   1.00
O1115  O     0.16666   0.46178   0.68453   0.00000  Uiso   1.00
O1116  O     0.20975   0.58080   0.53069   0.00000  Uiso   1.00
Zn1117 Zn    0.16667   0.55104   0.75000   0.00000  Uiso   1.00
Zn1118 Zn    0.16667   0.44896   0.75000   0.00000  Uiso   1.00
C1119  C     0.41999   0.50004   0.74981   0.00000  Uiso   1.00
C1120  C     0.64529   0.54118   0.74946   0.00000  Uiso   1.00
C1121  C     0.64539   0.45899   0.74767   0.00000  Uiso   1.00
C1122  C     0.35454   0.54120   0.74972   0.00000  Uiso   1.00
C1123  C     0.52948   0.54109   0.54996   0.00000  Uiso   1.00
C1124  C     0.53607   0.47353   0.95261   0.00000  Uiso   1.00
C1125  C     0.48847   0.53781   0.95403   0.00000  Uiso   1.00
C1126  C     0.50086   0.46473   0.54441   0.00000  Uiso   1.00
C1127  C     0.52504   0.53970   0.59587   0.00000  Uiso   1.00
C1128  C     0.52544   0.46717   0.90782   0.00000  Uiso   1.00
C1129  C     0.48433   0.53669   0.90748   0.00000  Uiso   1.00
C1130  C     0.57999   0.49999   0.74970   0.00000  Uiso   1.00
C1131  C     0.49976   0.46195   0.59053   0.00000  Uiso   1.00
C1132  C     0.50841   0.50071   0.61611   0.00000  Uiso   1.00
C1133  C     0.50211   0.50048   0.88456   0.00000  Uiso   1.00
C1134  C     0.51613   0.50403   0.52428   0.00000  Uiso   1.00
C1135  C     0.51502   0.50660   0.97609   0.00000  Uiso   1.00
C1136  C     0.62413   0.50005   0.74887   0.00000  Uiso   1.00
C1137  C     0.37580   0.50009   0.74926   0.00000  Uiso   1.00
C1138  C     0.58278   0.57436   0.51304   0.00000  Uiso   1.00
C1139  C     0.60373   0.45311   0.96459   0.00000  Uiso   1.00
C1140  C     0.42786   0.55576   0.98669   0.00000  Uiso   1.00
C1141  C     0.50169   0.50015   0.66386   0.00000  Uiso   1.00
C1142  C     0.44603   0.42989   0.50906   0.00000  Uiso   1.00
C1143  C     0.57687   0.57383   0.63644   0.00000  Uiso   1.00
C1144  C     0.51199   0.39316   0.89717   0.00000  Uiso   1.00
C1145  C     0.47587   0.61106   0.88746   0.00000  Uiso   1.00
C1146  C     0.52003   0.39192   0.61331   0.00000  Uiso   1.00
C1147  C     0.49961   0.49993   0.83620   0.00000  Uiso   1.00
C1148  C     0.52879   0.35689   0.77522   0.00000  Uiso   1.00
C1149  C     0.47239   0.64290   0.72325   0.00000  Uiso   1.00
C1150  C     0.47188   0.35745   0.72384   0.00000  Uiso   1.00
C1151  C     0.52804   0.64241   0.77618   0.00000  Uiso   1.00
C1152  C     0.35462   0.45900   0.74811   0.00000  Uiso   1.00
Cl1153 Cl    0.56873   0.38487   0.80513   0.00000  Uiso   1.00
Cl1154 Cl    0.43774   0.61401   0.68697   0.00000  Uiso   1.00
Cl1155 Cl    0.43522   0.38659   0.68968   0.00000  Uiso   1.00
Cl1156 Cl    0.56372   0.61299   0.81136   0.00000  Uiso   1.00
H1157  H     0.37073   0.42693   0.74768   0.00000  Uiso   1.00
H1158  H     0.62468   0.43013   0.98418   0.00000  Uiso   1.00
H1159  H     0.42897   0.52923   0.51297   0.00000  Uiso   1.00
H1160  H     0.41069   0.54352   0.95628   0.00000  Uiso   1.00
H1161  H     0.41003   0.58458   0.99971   0.00000  Uiso   1.00
H1162  H     0.43930   0.45569   0.98284   0.00000  Uiso   1.00
H1163  H     0.42751   0.43652   0.53901   0.00000  Uiso   1.00
H1164  H     0.43584   0.39689   0.99543   0.00000  Uiso   1.00
H1165  H     0.58269   0.54165   0.65495   0.00000  Uiso   1.00
H1166  H     0.58346   0.60178   0.66001   0.00000  Uiso   1.00
H1167  H     0.59877   0.57703   0.60882   0.00000  Uiso   1.00
H1168  H     0.62913   0.57324   0.74992   0.00000  Uiso   1.00
H1169  H     0.52312   0.36203   0.88125   0.00000  Uiso   1.00
H1170  H     0.47981   0.39992   0.88392   0.00000  Uiso   1.00
H1171  H     0.51174   0.38626   0.93362   0.00000  Uiso   1.00
H1172  H     0.46591   0.63033   0.85714   0.00000  Uiso   1.00
H1173  H     0.51056   0.61128   0.88925   0.00000  Uiso   1.00
H1174  H     0.46359   0.62906   0.91651   0.00000  Uiso   1.00
H1175  H     0.50967   0.36083   0.63036   0.00000  Uiso   1.00
H1176  H     0.54646   0.40613   0.63361   0.00000  Uiso   1.00
H1177  H     0.53071   0.38193   0.57996   0.00000  Uiso   1.00
H1178  H     0.62934   0.42694   0.74654   0.00000  Uiso   1.00
H1179  H     0.37063   0.57326   0.75049   0.00000  Uiso   1.00
H1180  H     0.60254   0.54964   0.53232   0.00000  Uiso   1.00
H1181  H     0.59943   0.60708   0.51385   0.00000  Uiso   1.00
H1182  H     0.57968   0.56407   0.97763   0.00000  Uiso   1.00
H1183  H     0.61227   0.48821   0.97385   0.00000  Uiso   1.00
H1184  H     0.60932   0.44731   0.92874   0.00000  Uiso   1.00
N1185  N     0.50000   0.61907   0.75000   0.00000  Uiso   1.00
N1186  N     0.50000   0.38093   0.75000   0.00000  Uiso   1.00
O1187  O     0.43892   0.53821   0.74999   0.00000  Uiso   1.00
O1188  O     0.56230   0.44330   0.97506   0.00000  Uiso   1.00
O1189  O     0.46830   0.57073   0.97767   0.00000  Uiso   1.00
O1190  O     0.48910   0.42758   0.51922   0.00000  Uiso   1.00
O1191  O     0.53523   0.57772   0.62040   0.00000  Uiso   1.00
O1192  O     0.53905   0.42893   0.88680   0.00000  Uiso   1.00
O1193  O     0.45878   0.56729   0.88449   0.00000  Uiso   1.00
O1194  O     0.48625   0.42240   0.60991   0.00000  Uiso   1.00
O1195  O     0.56108   0.46179   0.75000   0.00000  Uiso   1.00
O1196  O     0.56108   0.53821   0.75000   0.00000  Uiso   1.00
O1197  O     0.43892   0.46179   0.74999   0.00000  Uiso   1.00
O1198  O     0.50000   0.53822   0.68453   0.00000  Uiso   1.00
O1199  O     0.50000   0.46178   0.81547   0.00000  Uiso   1.00
O1200  O     0.50000   0.53822   0.81547   0.00000  Uiso   1.00
O1201  O     0.50000   0.46178   0.68453   0.00000  Uiso   1.00
O1202  O     0.54308   0.58080   0.53069   0.00000  Uiso   1.00
Zn1203 Zn    0.50000   0.55104   0.75000   0.00000  Uiso   1.00
Zn1204 Zn    0.50000   0.44896   0.75000   0.00000  Uiso   1.00
C1205  C     0.75333   0.50004   0.74981   0.00000  Uiso   1.00
C1206  C     0.97862   0.54118   0.74946   0.00000  Uiso   1.00
C1207  C     0.97872   0.45899   0.74767   0.00000  Uiso   1.00
C1208  C     0.68787   0.54120   0.74972   0.00000  Uiso   1.00
C1209  C     0.86282   0.54109   0.54996   0.00000  Uiso   1.00
C1210  C     0.86940   0.47353   0.95261   0.00000  Uiso   1.00
C1211  C     0.82180   0.53781   0.95403   0.00000  Uiso   1.00
C1212  C     0.83419   0.46473   0.54441   0.00000  Uiso   1.00
C1213  C     0.85837   0.53970   0.59587   0.00000  Uiso   1.00
C1214  C     0.85877   0.46717   0.90782   0.00000  Uiso   1.00
C1215  C     0.81766   0.53669   0.90748   0.00000  Uiso   1.00
C1216  C     0.91332   0.49999   0.74970   0.00000  Uiso   1.00
C1217  C     0.83310   0.46195   0.59053   0.00000  Uiso   1.00
C1218  C     0.84174   0.50071   0.61611   0.00000  Uiso   1.00
C1219  C     0.83545   0.50048   0.88456   0.00000  Uiso   1.00
C1220  C     0.84946   0.50403   0.52428   0.00000  Uiso   1.00
C1221  C     0.84836   0.50660   0.97609   0.00000  Uiso   1.00
C1222  C     0.95747   0.50005   0.74887   0.00000  Uiso   1.00
C1223  C     0.70913   0.50009   0.74926   0.00000  Uiso   1.00
C1224  C     0.91611   0.57436   0.51304   0.00000  Uiso   1.00
C1225  C     0.93706   0.45311   0.96459   0.00000  Uiso   1.00
C1226  C     0.76120   0.55576   0.98669   0.00000  Uiso   1.00
C1227  C     0.83502   0.50015   0.66386   0.00000  Uiso   1.00
C1228  C     0.77937   0.42989   0.50906   0.00000  Uiso   1.00
C1229  C     0.91020   0.57383   0.63644   0.00000  Uiso   1.00
C1230  C     0.84532   0.39316   0.89717   0.00000  Uiso   1.00
C1231  C     0.80921   0.61106   0.88746   0.00000  Uiso   1.00
C1232  C     0.85336   0.39192   0.61331   0.00000  Uiso   1.00
C1233  C     0.83294   0.49993   0.83620   0.00000  Uiso   1.00
C1234  C     0.86212   0.35689   0.77522   0.00000  Uiso   1.00
C1235  C     0.80572   0.64290   0.72325   0.00000  Uiso   1.00
C1236  C     0.80522   0.35745   0.72384   0.00000  Uiso   1.00
C1237  C     0.86137   0.64241   0.77618   0.00000  Uiso   1.00
C1238  C     0.68795   0.45900   0.74811   0.00000  Uiso   1.00
Cl1239 Cl    0.90206   0.38487   0.80513   0.00000  Uiso   1.00
Cl1240 Cl    0.77107   0.61401   0.68697   0.00000  Uiso   1.00
Cl1241 Cl    0.76856   0.38659   0.68968   0.00000  Uiso   1.00
Cl1242 Cl    0.89706   0.61299   0.81136   0.00000  Uiso   1.00
H1243  H     0.70406   0.42693   0.74768   0.00000  Uiso   1.00
H1244  H     0.95801   0.43013   0.98418   0.00000  Uiso   1.00
H1245  H     0.76231   0.52923   0.51297   0.00000  Uiso   1.00
H1246  H     0.74402   0.54352   0.95628   0.00000  Uiso   1.00
H1247  H     0.74337   0.58458   0.99971   0.00000  Uiso   1.00
H1248  H     0.77263   0.45569   0.98284   0.00000  Uiso   1.00
H1249  H     0.76084   0.43652   0.53901   0.00000  Uiso   1.00
H1250  H     0.76917   0.39689   0.99543   0.00000  Uiso   1.00
H1251  H     0.91603   0.54165   0.65495   0.00000  Uiso   1.00
H1252  H     0.91679   0.60178   0.66001   0.00000  Uiso   1.00
H1253  H     0.93211   0.57703   0.60882   0.00000  Uiso   1.00
H1254  H     0.96247   0.57324   0.74992   0.00000  Uiso   1.00
H1255  H     0.85645   0.36203   0.88125   0.00000  Uiso   1.00
H1256  H     0.81314   0.39992   0.88392   0.00000  Uiso   1.00
H1257  H     0.84508   0.38626   0.93362   0.00000  Uiso   1.00
H1258  H     0.79924   0.63033   0.85714   0.00000  Uiso   1.00
H1259  H     0.84389   0.61128   0.88925   0.00000  Uiso   1.00
H1260  H     0.79693   0.62906   0.91651   0.00000  Uiso   1.00
H1261  H     0.84300   0.36083   0.63036   0.00000  Uiso   1.00
H1262  H     0.87979   0.40613   0.63361   0.00000  Uiso   1.00
H1263  H     0.86405   0.38193   0.57996   0.00000  Uiso   1.00
H1264  H     0.96268   0.42694   0.74654   0.00000  Uiso   1.00
H1265  H     0.70396   0.57326   0.75049   0.00000  Uiso   1.00
H1266  H     0.93587   0.54964   0.53232   0.00000  Uiso   1.00
H1267  H     0.93277   0.60708   0.51385   0.00000  Uiso   1.00
H1268  H     0.91301   0.56407   0.97763   0.00000  Uiso   1.00
H1269  H     0.94560   0.48821   0.97385   0.00000  Uiso   1.00
H1270  H     0.94265   0.44731   0.92874   0.00000  Uiso   1.00
N1271  N     0.83333   0.61907   0.75000   0.00000  Uiso   1.00
N1272  N     0.83333   0.38093   0.75000   0.00000  Uiso   1.00
O1273  O     0.77226   0.53821   0.74999   0.00000  Uiso   1.00
O1274  O     0.89564   0.44330   0.97506   0.00000  Uiso   1.00
O1275  O     0.80163   0.57073   0.97767   0.00000  Uiso   1.00
O1276  O     0.82244   0.42758   0.51922   0.00000  Uiso   1.00
O1277  O     0.86857   0.57772   0.62040   0.00000  Uiso   1.00
O1278  O     0.87239   0.42893   0.88680   0.00000  Uiso   1.00
O1279  O     0.79211   0.56729   0.88449   0.00000  Uiso   1.00
O1280  O     0.81959   0.42240   0.60991   0.00000  Uiso   1.00
O1281  O     0.89441   0.46179   0.75000   0.00000  Uiso   1.00
O1282  O     0.89441   0.53821   0.75000   0.00000  Uiso   1.00
O1283  O     0.77226   0.46179   0.74999   0.00000  Uiso   1.00
O1284  O     0.83333   0.53822   0.68453   0.00000  Uiso   1.00
O1285  O     0.83334   0.46178   0.81547   0.00000  Uiso   1.00
O1286  O     0.83334   0.53822   0.81547   0.00000  Uiso   1.00
O1287  O     0.83333   0.46178   0.68453   0.00000  Uiso   1.00
O1288  O     0.87641   0.58080   0.53069   0.00000  Uiso   1.00
Zn1289 Zn    0.83333   0.55104   0.75000   0.00000  Uiso   1.00
Zn1290 Zn    0.83333   0.44896   0.75000   0.00000  Uiso   1.00
C1291  C     0.08666   0.83337   0.74981   0.00000  Uiso   1.00
C1292  C     0.31195   0.87451   0.74946   0.00000  Uiso   1.00
C1293  C     0.31205   0.79233   0.74767   0.00000  Uiso   1.00
C1294  C     0.02120   0.87453   0.74972   0.00000  Uiso   1.00
C1295  C     0.19615   0.87443   0.54996   0.00000  Uiso   1.00
C1296  C     0.20274   0.80686   0.95261   0.00000  Uiso   1.00
C1297  C     0.15514   0.87114   0.95403   0.00000  Uiso   1.00
C1298  C     0.16753   0.79806   0.54441   0.00000  Uiso   1.00
C1299  C     0.19171   0.87304   0.59587   0.00000  Uiso   1.00
C1300  C     0.19211   0.80051   0.90782   0.00000  Uiso   1.00
C1301  C     0.15099   0.87002   0.90748   0.00000  Uiso   1.00
C1302  C     0.24666   0.83332   0.74970   0.00000  Uiso   1.00
C1303  C     0.16643   0.79528   0.59053   0.00000  Uiso   1.00
C1304  C     0.17507   0.83404   0.61611   0.00000  Uiso   1.00
C1305  C     0.16878   0.83382   0.88456   0.00000  Uiso   1.00
C1306  C     0.18280   0.83737   0.52428   0.00000  Uiso   1.00
C1307  C     0.18169   0.83994   0.97609   0.00000  Uiso   1.00
C1308  C     0.29080   0.83338   0.74887   0.00000  Uiso   1.00
C1309  C     0.04246   0.83342   0.74926   0.00000  Uiso   1.00
C1310  C     0.24945   0.90769   0.51304   0.00000  Uiso   1.00
C1311  C     0.27040   0.78644   0.96459   0.00000  Uiso   1.00
C1312  C     0.09453   0.88909   0.98669   0.00000  Uiso   1.00
C1313  C     0.16835   0.83349   0.66386   0.00000  Uiso   1.00
C1314  C     0.11270   0.76322   0.50906   0.00000  Uiso   1.00
C1315  C     0.24353   0.90716   0.63644   0.00000  Uiso   1.00
C1316  C     0.17866   0.72650   0.89717   0.00000  Uiso   1.00
C1317  C     0.14254   0.94440   0.88746   0.00000  Uiso   1.00
C1318  C     0.18670   0.72526   0.61331   0.00000  Uiso   1.00
C1319  C     0.16627   0.83326   0.83620   0.00000  Uiso   1.00
C1320  C     0.19546   0.69022   0.77522   0.00000  Uiso   1.00
C1321  C     0.13906   0.97623   0.72325   0.00000  Uiso   1.00
C1322  C     0.13855   0.69078   0.72384   0.00000  Uiso   1.00
C1323  C     0.19470   0.97575   0.77618   0.00000  Uiso   1.00
C1324  C     0.02128   0.79233   0.74811   0.00000  Uiso   1.00
Cl1325 Cl    0.23540   0.71821   0.80513   0.00000  Uiso   1.00
Cl1326 Cl    0.10440   0.94735   0.68697   0.00000  Uiso   1.00
Cl1327 Cl    0.10189   0.71992   0.68968   0.00000  Uiso   1.00
Cl1328 Cl    0.23039   0.94633   0.81136   0.00000  Uiso   1.00
H1329  H     0.03740   0.76026   0.74768   0.00000  Uiso   1.00
H1330  H     0.29134   0.76346   0.98418   0.00000  Uiso   1.00
H1331  H     0.09564   0.86256   0.51297   0.00000  Uiso   1.00
H1332  H     0.07735   0.87685   0.95628   0.00000  Uiso   1.00
H1333  H     0.07670   0.91791   0.99971   0.00000  Uiso   1.00
H1334  H     0.10596   0.78902   0.98284   0.00000  Uiso   1.00
H1335  H     0.09417   0.76985   0.53901   0.00000  Uiso   1.00
H1336  H     0.10251   0.73022   0.99543   0.00000  Uiso   1.00
H1337  H     0.24936   0.87499   0.65495   0.00000  Uiso   1.00
H1338  H     0.25013   0.93511   0.66001   0.00000  Uiso   1.00
H1339  H     0.26544   0.91036   0.60882   0.00000  Uiso   1.00
H1340  H     0.29580   0.90658   0.74992   0.00000  Uiso   1.00
H1341  H     0.18979   0.69536   0.88125   0.00000  Uiso   1.00
H1342  H     0.14648   0.73326   0.88392   0.00000  Uiso   1.00
H1343  H     0.17841   0.71959   0.93362   0.00000  Uiso   1.00
H1344  H     0.13257   0.96366   0.85714   0.00000  Uiso   1.00
H1345  H     0.17723   0.94462   0.88925   0.00000  Uiso   1.00
H1346  H     0.13026   0.96239   0.91651   0.00000  Uiso   1.00
H1347  H     0.17633   0.69416   0.63036   0.00000  Uiso   1.00
H1348  H     0.21313   0.73947   0.63361   0.00000  Uiso   1.00
H1349  H     0.19738   0.71526   0.57996   0.00000  Uiso   1.00
H1350  H     0.29601   0.76028   0.74654   0.00000  Uiso   1.00
H1351  H     0.03729   0.90659   0.75049   0.00000  Uiso   1.00
H1352  H     0.26921   0.88297   0.53232   0.00000  Uiso   1.00
H1353  H     0.26610   0.94041   0.51385   0.00000  Uiso   1.00
H1354  H     0.24635   0.89741   0.97763   0.00000  Uiso   1.00
H1355  H     0.27894   0.82155   0.97385   0.00000  Uiso   1.00
H1356  H     0.27599   0.78065   0.92874   0.00000  Uiso   1.00
N1357  N     0.16667   0.95240   0.75000   0.00000  Uiso   1.00
N1358  N     0.16667   0.71427   0.75000   0.00000  Uiso   1.00
O1359  O     0.10559   0.87154   0.74999   0.00000  Uiso   1.00
O1360  O     0.22897   0.77664   0.97506   0.00000  Uiso   1.00
O1361  O     0.13497   0.90406   0.97767   0.00000  Uiso   1.00
O1362  O     0.15577   0.76092   0.51922   0.00000  Uiso   1.00
O1363  O     0.20190   0.91106   0.62040   0.00000  Uiso   1.00
O1364  O     0.20572   0.76226   0.88680   0.00000  Uiso   1.00
O1365  O     0.12544   0.90062   0.88449   0.00000  Uiso   1.00
O1366  O     0.15292   0.75574   0.60991   0.00000  Uiso   1.00
O1367  O     0.22774   0.79513   0.75000   0.00000  Uiso   1.00
O1368  O     0.22774   0.87154   0.75000   0.00000  Uiso   1.00
O1369  O     0.10559   0.79513   0.74999   0.00000  Uiso   1.00
O1370  O     0.16666   0.87155   0.68453   0.00000  Uiso   1.00
O1371  O     0.16667   0.79511   0.81547   0.00000  Uiso   1.00
O1372  O     0.16667   0.87155   0.81547   0.00000  Uiso   1.00
O1373  O     0.16666   0.79511   0.68453   0.00000  Uiso   1.00
O1374  O     0.20975   0.91413   0.53069   0.00000  Uiso   1.00
Zn1375 Zn    0.16667   0.88437   0.75000   0.00000  Uiso   1.00
Zn1376 Zn    0.16667   0.78229   0.75000   0.00000  Uiso   1.00
C1377  C     0.41999   0.83337   0.74981   0.00000  Uiso   1.00
C1378  C     0.64529   0.87451   0.74946   0.00000  Uiso   1.00
C1379  C     0.64539   0.79233   0.74767   0.00000  Uiso   1.00
C1380  C     0.35454   0.87453   0.74972   0.00000  Uiso   1.00
C1381  C     0.52948   0.87443   0.54996   0.00000  Uiso   1.00
C1382  C     0.53607   0.80686   0.95261   0.00000  Uiso   1.00
C1383  C     0.48847   0.87114   0.95403   0.00000  Uiso   1.00
C1384  C     0.50086   0.79806   0.54441   0.00000  Uiso   1.00
C1385  C     0.52504   0.87304   0.59587   0.00000  Uiso   1.00
C1386  C     0.52544   0.80051   0.90782   0.00000  Uiso   1.00
C1387  C     0.48433   0.87002   0.90748   0.00000  Uiso   1.00
C1388  C     0.57999   0.83332   0.74970   0.00000  Uiso   1.00
C1389  C     0.49976   0.79528   0.59053   0.00000  Uiso   1.00
C1390  C     0.50841   0.83404   0.61611   0.00000  Uiso   1.00
C1391  C     0.50211   0.83382   0.88456   0.00000  Uiso   1.00
C1392  C     0.51613   0.83737   0.52428   0.00000  Uiso   1.00
C1393  C     0.51502   0.83994   0.97609   0.00000  Uiso   1.00
C1394  C     0.62413   0.83338   0.74887   0.00000  Uiso   1.00
C1395  C     0.37580   0.83342   0.74926   0.00000  Uiso   1.00
C1396  C     0.58278   0.90769   0.51304   0.00000  Uiso   1.00
C1397  C     0.60373   0.78644   0.96459   0.00000  Uiso   1.00
C1398  C     0.42786   0.88909   0.98669   0.00000  Uiso   1.00
C1399  C     0.50169   0.83349   0.66386   0.00000  Uiso   1.00
C1400  C     0.44603   0.76322   0.50906   0.00000  Uiso   1.00
C1401  C     0.57687   0.90716   0.63644   0.00000  Uiso   1.00
C1402  C     0.51199   0.72650   0.89717   0.00000  Uiso   1.00
C1403  C     0.47587   0.94440   0.88746   0.00000  Uiso   1.00
C1404  C     0.52003   0.72526   0.61331   0.00000  Uiso   1.00
C1405  C     0.49961   0.83326   0.83620   0.00000  Uiso   1.00
C1406  C     0.52879   0.69022   0.77522   0.00000  Uiso   1.00
C1407  C     0.47239   0.97623   0.72325   0.00000  Uiso   1.00
C1408  C     0.47188   0.69078   0.72384   0.00000  Uiso   1.00
C1409  C     0.52804   0.97575   0.77618   0.00000  Uiso   1.00
C1410  C     0.35462   0.79233   0.74811   0.00000  Uiso   1.00
Cl1411 Cl    0.56873   0.71821   0.80513   0.00000  Uiso   1.00
Cl1412 Cl    0.43774   0.94735   0.68697   0.00000  Uiso   1.00
Cl1413 Cl    0.43522   0.71992   0.68968   0.00000  Uiso   1.00
Cl1414 Cl    0.56372   0.94633   0.81136   0.00000  Uiso   1.00
H1415  H     0.37073   0.76026   0.74768   0.00000  Uiso   1.00
H1416  H     0.62468   0.76346   0.98418   0.00000  Uiso   1.00
H1417  H     0.42897   0.86256   0.51297   0.00000  Uiso   1.00
H1418  H     0.41069   0.87685   0.95628   0.00000  Uiso   1.00
H1419  H     0.41003   0.91791   0.99971   0.00000  Uiso   1.00
H1420  H     0.43930   0.78902   0.98284   0.00000  Uiso   1.00
H1421  H     0.42751   0.76985   0.53901   0.00000  Uiso   1.00
H1422  H     0.43584   0.73022   0.99543   0.00000  Uiso   1.00
H1423  H     0.58269   0.87499   0.65495   0.00000  Uiso   1.00
H1424  H     0.58346   0.93511   0.66001   0.00000  Uiso   1.00
H1425  H     0.59877   0.91036   0.60882   0.00000  Uiso   1.00
H1426  H     0.62913   0.90658   0.74992   0.00000  Uiso   1.00
H1427  H     0.52312   0.69536   0.88125   0.00000  Uiso   1.00
H1428  H     0.47981   0.73326   0.88392   0.00000  Uiso   1.00
H1429  H     0.51174   0.71959   0.93362   0.00000  Uiso   1.00
H1430  H     0.46591   0.96366   0.85714   0.00000  Uiso   1.00
H1431  H     0.51056   0.94462   0.88925   0.00000  Uiso   1.00
H1432  H     0.46359   0.96239   0.91651   0.00000  Uiso   1.00
H1433  H     0.50967   0.69416   0.63036   0.00000  Uiso   1.00
H1434  H     0.54646   0.73947   0.63361   0.00000  Uiso   1.00
H1435  H     0.53071   0.71526   0.57996   0.00000  Uiso   1.00
H1436  H     0.62934   0.76028   0.74654   0.00000  Uiso   1.00
H1437  H     0.37063   0.90659   0.75049   0.00000  Uiso   1.00
H1438  H     0.60254   0.88297   0.53232   0.00000  Uiso   1.00
H1439  H     0.59943   0.94041   0.51385   0.00000  Uiso   1.00
H1440  H     0.57968   0.89741   0.97763   0.00000  Uiso   1.00
H1441  H     0.61227   0.82155   0.97385   0.00000  Uiso   1.00
H1442  H     0.60932   0.78065   0.92874   0.00000  Uiso   1.00
N1443  N     0.50000   0.95240   0.75000   0.00000  Uiso   1.00
N1444  N     0.50000   0.71427   0.75000   0.00000  Uiso   1.00
O1445  O     0.43892   0.87154   0.74999   0.00000  Uiso   1.00
O1446  O     0.56230   0.77664   0.97506   0.00000  Uiso   1.00
O1447  O     0.46830   0.90406   0.97767   0.00000  Uiso   1.00
O1448  O     0.48910   0.76092   0.51922   0.00000  Uiso   1.00
O1449  O     0.53523   0.91106   0.62040   0.00000  Uiso   1.00
O1450  O     0.53905   0.76226   0.88680   0.00000  Uiso   1.00
O1451  O     0.45878   0.90062   0.88449   0.00000  Uiso   1.00
O1452  O     0.48625   0.75574   0.60991   0.00000  Uiso   1.00
O1453  O     0.56108   0.79513   0.75000   0.00000  Uiso   1.00
O1454  O     0.56108   0.87154   0.75000   0.00000  Uiso   1.00
O1455  O     0.43892   0.79513   0.74999   0.00000  Uiso   1.00
O1456  O     0.50000   0.87155   0.68453   0.00000  Uiso   1.00
O1457  O     0.50000   0.79511   0.81547   0.00000  Uiso   1.00
O1458  O     0.50000   0.87155   0.81547   0.00000  Uiso   1.00
O1459  O     0.50000   0.79511   0.68453   0.00000  Uiso   1.00
O1460  O     0.54308   0.91413   0.53069   0.00000  Uiso   1.00
Zn1461 Zn    0.50000   0.88437   0.75000   0.00000  Uiso   1.00
Zn1462 Zn    0.50000   0.78229   0.75000   0.00000  Uiso   1.00
C1463  C     0.75333   0.83337   0.74981   0.00000  Uiso   1.00
C1464  C     0.97862   0.87451   0.74946   0.00000  Uiso   1.00
C1465  C     0.97872   0.79233   0.74767   0.00000  Uiso   1.00
C1466  C     0.68787   0.87453   0.74972   0.00000  Uiso   1.00
C1467  C     0.86282   0.87443   0.54996   0.00000  Uiso   1.00
C1468  C     0.86940   0.80686   0.95261   0.00000  Uiso   1.00
C1469  C     0.82180   0.87114   0.95403   0.00000  Uiso   1.00
C1470  C     0.83419   0.79806   0.54441   0.00000  Uiso   1.00
C1471  C     0.85837   0.87304   0.59587   0.00000  Uiso   1.00
C1472  C     0.85877   0.80051   0.90782   0.00000  Uiso   1.00
C1473  C     0.81766   0.87002   0.90748   0.00000  Uiso   1.00
C1474  C     0.91332   0.83332   0.74970   0.00000  Uiso   1.00
C1475  C     0.83310   0.79528   0.59053   0.00000  Uiso   1.00
C1476  C     0.84174   0.83404   0.61611   0.00000  Uiso   1.00
C1477  C     0.83545   0.83382   0.88456   0.00000  Uiso   1.00
C1478  C     0.84946   0.83737   0.52428   0.00000  Uiso   1.00
C1479  C     0.84836   0.83994   0.97609   0.00000  Uiso   1.00
C1480  C     0.95747   0.83338   0.74887   0.00000  Uiso   1.00
C1481  C     0.70913   0.83342   0.74926   0.00000  Uiso   1.00
C1482  C     0.91611   0.90769   0.51304   0.00000  Uiso   1.00
C1483  C     0.93706   0.78644   0.96459   0.00000  Uiso   1.00
C1484  C     0.76120   0.88909   0.98669   0.00000  Uiso   1.00
C1485  C     0.83502   0.83349   0.66386   0.00000  Uiso   1.00
C1486  C     0.77937   0.76322   0.50906   0.00000  Uiso   1.00
C1487  C     0.91020   0.90716   0.63644   0.00000  Uiso   1.00
C1488  C     0.84532   0.72650   0.89717   0.00000  Uiso   1.00
C1489  C     0.80921   0.94440   0.88746   0.00000  Uiso   1.00
C1490  C     0.85336   0.72526   0.61331   0.00000  Uiso   1.00
C1491  C     0.83294   0.83326   0.83620   0.00000  Uiso   1.00
C1492  C     0.86212   0.69022   0.77522   0.00000  Uiso   1.00
C1493  C     0.80572   0.97623   0.72325   0.00000  Uiso   1.00
C1494  C     0.80522   0.69078   0.72384   0.00000  Uiso   1.00
C1495  C     0.86137   0.97575   0.77618   0.00000  Uiso   1.00
C1496  C     0.68795   0.79233   0.74811   0.00000  Uiso   1.00
Cl1497 Cl    0.90206   0.71821   0.80513   0.00000  Uiso   1.00
Cl1498 Cl    0.77107   0.94735   0.68697   0.00000  Uiso   1.00
Cl1499 Cl    0.76856   0.71992   0.68968   0.00000  Uiso   1.00
Cl1500 Cl    0.89706   0.94633   0.81136   0.00000  Uiso   1.00
H1501  H     0.70406   0.76026   0.74768   0.00000  Uiso   1.00
H1502  H     0.95801   0.76346   0.98418   0.00000  Uiso   1.00
H1503  H     0.76231   0.86256   0.51297   0.00000  Uiso   1.00
H1504  H     0.74402   0.87685   0.95628   0.00000  Uiso   1.00
H1505  H     0.74337   0.91791   0.99971   0.00000  Uiso   1.00
H1506  H     0.77263   0.78902   0.98284   0.00000  Uiso   1.00
H1507  H     0.76084   0.76985   0.53901   0.00000  Uiso   1.00
H1508  H     0.76917   0.73022   0.99543   0.00000  Uiso   1.00
H1509  H     0.91603   0.87499   0.65495   0.00000  Uiso   1.00
H1510  H     0.91679   0.93511   0.66001   0.00000  Uiso   1.00
H1511  H     0.93211   0.91036   0.60882   0.00000  Uiso   1.00
H1512  H     0.96247   0.90658   0.74992   0.00000  Uiso   1.00
H1513  H     0.85645   0.69536   0.88125   0.00000  Uiso   1.00
H1514  H     0.81314   0.73326   0.88392   0.00000  Uiso   1.00
H1515  H     0.84508   0.71959   0.93362   0.00000  Uiso   1.00
H1516  H     0.79924   0.96366   0.85714   0.00000  Uiso   1.00
H1517  H     0.84389   0.94462   0.88925   0.00000  Uiso   1.00
H1518  H     0.79693   0.96239   0.91651   0.00000  Uiso   1.00
H1519  H     0.84300   0.69416   0.63036   0.00000  Uiso   1.00
H1520  H     0.87979   0.73947   0.63361   0.00000  Uiso   1.00
H1521  H     0.86405   0.71526   0.57996   0.00000  Uiso   1.00
H1522  H     0.96268   0.76028   0.74654   0.00000  Uiso   1.00
H1523  H     0.70396   0.90659   0.75049   0.00000  Uiso   1.00
H1524  H     0.93587   0.88297   0.53232   0.00000  Uiso   1.00
H1525  H     0.93277   0.94041   0.51385   0.00000  Uiso   1.00
H1526  H     0.91301   0.89741   0.97763   0.00000  Uiso   1.00
H1527  H     0.94560   0.82155   0.97385   0.00000  Uiso   1.00
H1528  H     0.94265   0.78065   0.92874   0.00000  Uiso   1.00
N1529  N     0.83333   0.95240   0.75000   0.00000  Uiso   1.00
N1530  N     0.83333   0.71427   0.75000   0.00000  Uiso   1.00
O1531  O     0.77226   0.87154   0.74999   0.00000  Uiso   1.00
O1532  O     0.89564   0.77664   0.97506   0.00000  Uiso   1.00
O1533  O     0.80163   0.90406   0.97767   0.00000  Uiso   1.00
O1534  O     0.82244   0.76092   0.51922   0.00000  Uiso   1.00
O1535  O     0.86857   0.91106   0.62040   0.00000  Uiso   1.00
O1536  O     0.87239   0.76226   0.88680   0.00000  Uiso   1.00
O1537  O     0.79211   0.90062   0.88449   0.00000  Uiso   1.00
O1538  O     0.81959   0.75574   0.60991   0.00000  Uiso   1.00
O1539  O     0.89441   0.79513   0.75000   0.00000  Uiso   1.00
O1540  O     0.89441   0.87154   0.75000   0.00000  Uiso   1.00
O1541  O     0.77226   0.79513   0.74999   0.00000  Uiso   1.00
O1542  O     0.83333   0.87155   0.68453   0.00000  Uiso   1.00
O1543  O     0.83334   0.79511   0.81547   0.00000  Uiso   1.00
O1544  O     0.83334   0.87155   0.81547   0.00000  Uiso   1.00
O1545  O     0.83333   0.79511   0.68453   0.00000  Uiso   1.00
O1546  O     0.87641   0.91413   0.53069   0.00000  Uiso   1.00
Zn1547 Zn    0.83333   0.88437   0.75000   0.00000  Uiso   1.00
Zn1548 Zn    0.83333   0.78229   0.75000   0.00000  Uiso   1.00
loop_
_geom_bond_atom_site_label_1
_geom_bond_atom_site_label_2
_geom_bond_distance
_geom_bond_site_symmetry_2
_ccdc_geom_bond_type
C1     C19     1.421   .     S
C1     O69     1.286   .     A
C1     O79     1.286   .     A
C2     C18     1.398   .     A
C2     H50     1.083   .     S
C2     C90     1.369   .     S
C3     C18     1.397   .     A
C3     H60     1.082   .     S
C3     C120    1.368   .     S
C4     C19     1.397   .     A
C4     H61     1.083   .     S
C4     C174    1.369   1_455 S
C5     C16     1.406   .     A
C5     O84     1.387   .     S
C5     C9      1.391   .     A
C6     O70     1.386   .     S
C6     C17     1.399   .     A
C6     C10     1.391   .     A
C7     C11     1.401   .     A
C7     O71     1.384   .     S
C7     C17     1.405   .     A
C8     C13     1.389   .     A
C8     C16     1.407   .     A
C8     O72     1.386   .     S
C9     O73     1.385   .     S
C9     C14     1.417   .     A
C10    C15     1.407   .     A
C10    O74     1.380   .     S
C11    C15     1.410   .     A
C11    O75     1.388   .     S
C12    O78     1.286   .     A
C12    O77     1.287   .     A
C12    C18     1.421   .     S
C13    C14     1.409   .     A
C13    O76     1.383   .     S
C14    C23     1.458   .     S
C15    C29     1.452   .     S
C16    C791    1.448   1_554 S
C17    C790    1.448   .     S
C19    C34     1.397   .     A
C20    O84     1.412   .     S
C20    H63     1.109   .     S
C20    H62     1.115   .     S
C20    H838    1.109   1_554 S
C21    H66     1.112   .     S
C21    H65     1.112   .     S
C21    O70     1.410   .     S
C21    H40     1.109   .     S
C22    H43     1.109   .     S
C22    O71     1.409   .     S
C22    H42     1.114   .     S
C22    H815    1.111   .     S
C23    O83     1.295   .     A
C23    O80     1.294   .     A
C24    O72     1.409   .     S
C24    H45     1.114   .     S
C24    H818    1.110   1_554 S
C24    H820    1.109   1_554 S
C25    H47     1.114   .     S
C25    H48     1.109   .     S
C25    O73     1.411   .     S
C25    H49     1.110   .     S
C26    H52     1.113   .     S
C26    H53     1.113   .     S
C26    H51     1.107   .     S
C26    O74     1.413   .     S
C27    H54     1.110   .     S
C27    H55     1.115   .     S
C27    O75     1.413   .     S
C27    H56     1.110   .     S
C28    H57     1.109   .     S
C28    O76     1.413   .     S
C28    H59     1.112   .     S
C28    H58     1.114   .     S
C29    O81     1.295   .     A
C29    O82     1.292   .     A
C30    Cl35    1.755   .     S
C30    N68     1.372   .     A
C30    C549    1.418   1_545 S
C31    N67     1.369   .     A
C31    Cl36    1.759   .     S
C31    C290    1.420   .     S
C32    N68     1.371   .     A
C32    Cl37    1.758   .     S
C32    C547    1.420   1_545 S
C33    N67     1.368   .     A
C33    Cl38    1.760   .     S
C33    C288    1.418   .     S
C34    H39     1.083   .     S
C34    C175    1.368   1_455 S
H41    C796    1.111   1_554 S
H44    C798    1.110   .     S
H46    C798    1.109   .     S
H64    C794    1.109   .     S
N67    Zn85    2.018   .     S
N68    Zn86    2.018   .     S
O69    Zn85    2.001   .     S
O77    Zn86    2.001   .     S
O78    Zn85    2.000   .     S
O79    Zn86    2.000   .     S
O80    Zn85    2.005   .     S
O81    Zn86    2.005   .     S
O82    Zn85    2.000   .     S
O83    Zn86    2.000   .     S
C87    C105    1.421   .     S
C87    O155    1.286   .     A
C87    O165    1.286   .     A
C88    C104    1.398   .     A
C88    H136    1.083   .     S
C88    C176    1.369   .     S
C89    C104    1.397   .     A
C89    H146    1.082   .     S
C89    C206    1.368   .     S
C90    C105    1.397   .     A
C90    H147    1.083   .     S
C91    C102    1.406   .     A
C91    O170    1.387   .     S
C91    C95     1.391   .     A
C92    O156    1.386   .     S
C92    C103    1.399   .     A
C92    C96     1.391   .     A
C93    C97     1.401   .     A
C93    O157    1.384   .     S
C93    C103    1.405   .     A
C94    C99     1.389   .     A
C94    C102    1.407   .     A
C94    O158    1.386   .     S
C95    O159    1.385   .     S
C95    C100    1.417   .     A
C96    C101    1.407   .     A
C96    O160    1.380   .     S
C97    C101    1.410   .     A
C97    O161    1.388   .     S
C98    O164    1.286   .     A
C98    O163    1.287   .     A
C98    C104    1.421   .     S
C99    C100    1.409   .     A
C99    O162    1.383   .     S
C100   C109    1.458   .     S
C101   C115    1.452   .     S
C102   C877    1.448   1_554 S
C103   C876    1.448   .     S
C105   C120    1.397   .     A
C106   O170    1.412   .     S
C106   H149    1.109   .     S
C106   H148    1.115   .     S
C106   H924    1.109   1_554 S
C107   H152    1.112   .     S
C107   H151    1.112   .     S
C107   O156    1.410   .     S
C107   H126    1.109   .     S
C108   H129    1.109   .     S
C108   O157    1.409   .     S
C108   H128    1.114   .     S
C108   H901    1.111   .     S
C109   O169    1.295   .     A
C109   O166    1.294   .     A
C110   O158    1.409   .     S
C110   H131    1.114   .     S
C110   H904    1.110   1_554 S
C110   H906    1.109   1_554 S
C111   H133    1.114   .     S
C111   H134    1.109   .     S
C111   O159    1.411   .     S
C111   H135    1.110   .     S
C112   H138    1.113   .     S
C112   H139    1.113   .     S
C112   H137    1.107   .     S
C112   O160    1.413   .     S
C113   H140    1.110   .     S
C113   H141    1.115   .     S
C113   O161    1.413   .     S
C113   H142    1.110   .     S
C114   H143    1.109   .     S
C114   O162    1.413   .     S
C114   H145    1.112   .     S
C114   H144    1.114   .     S
C115   O167    1.295   .     A
C115   O168    1.292   .     A
C116   Cl121   1.755   .     S
C116   N154    1.372   .     A
C116   C635    1.418   1_545 S
C117   N153    1.369   .     A
C117   Cl122   1.759   .     S
C117   C376    1.420   .     S
C118   N154    1.371   .     A
C118   Cl123   1.758   .     S
C118   C633    1.420   1_545 S
C119   N153    1.368   .     A
C119   Cl124   1.760   .     S
C119   C374    1.418   .     S
C120   H125    1.083   .     S
H127   C882    1.111   1_554 S
H130   C884    1.110   .     S
H132   C884    1.109   .     S
H150   C880    1.109   .     S
N153   Zn171   2.018   .     S
N154   Zn172   2.018   .     S
O155   Zn171   2.001   .     S
O163   Zn172   2.001   .     S
O164   Zn171   2.000   .     S
O165   Zn172   2.000   .     S
O166   Zn171   2.005   .     S
O167   Zn172   2.005   .     S
O168   Zn171   2.000   .     S
O169   Zn172   2.000   .     S
C173   C191    1.421   .     S
C173   O241    1.286   .     A
C173   O251    1.286   .     A
C174   C190    1.398   .     A
C174   H222    1.083   .     S
C174   C4      1.369   1_655 S
C175   C190    1.397   .     A
C175   H232    1.082   .     S
C175   C34     1.368   1_655 S
C176   C191    1.397   .     A
C176   H233    1.083   .     S
C177   C188    1.406   .     A
C177   O256    1.387   .     S
C177   C181    1.391   .     A
C178   O242    1.386   .     S
C178   C189    1.399   .     A
C178   C182    1.391   .     A
C179   C183    1.401   .     A
C179   O243    1.384   .     S
C179   C189    1.405   .     A
C180   C185    1.389   .     A
C180   C188    1.407   .     A
C180   O244    1.386   .     S
C181   O245    1.385   .     S
C181   C186    1.417   .     A
C182   C187    1.407   .     A
C182   O246    1.380   .     S
C183   C187    1.410   .     A
C183   O247    1.388   .     S
C184   O250    1.286   .     A
C184   O249    1.287   .     A
C184   C190    1.421   .     S
C185   C186    1.409   .     A
C185   O248    1.383   .     S
C186   C195    1.458   .     S
C187   C201    1.452   .     S
C188   C963    1.448   1_554 S
C189   C962    1.448   .     S
C191   C206    1.397   .     A
C192   O256    1.412   .     S
C192   H235    1.109   .     S
C192   H234    1.115   .     S
C192   H1010   1.109   1_554 S
C193   H238    1.112   .     S
C193   H237    1.112   .     S
C193   O242    1.410   .     S
C193   H212    1.109   .     S
C194   H215    1.109   .     S
C194   O243    1.409   .     S
C194   H214    1.114   .     S
C194   H987    1.111   .     S
C195   O255    1.295   .     A
C195   O252    1.294   .     A
C196   O244    1.409   .     S
C196   H217    1.114   .     S
C196   H990    1.110   1_554 S
C196   H992    1.109   1_554 S
C197   H219    1.114   .     S
C197   H220    1.109   .     S
C197   O245    1.411   .     S
C197   H221    1.110   .     S
C198   H224    1.113   .     S
C198   H225    1.113   .     S
C198   H223    1.107   .     S
C198   O246    1.413   .     S
C199   H226    1.110   .     S
C199   H227    1.115   .     S
C199   O247    1.413   .     S
C199   H228    1.110   .     S
C200   H229    1.109   .     S
C200   O248    1.413   .     S
C200   H231    1.112   .     S
C200   H230    1.114   .     S
C201   O253    1.295   .     A
C201   O254    1.292   .     A
C202   Cl207   1.755   .     S
C202   N240    1.372   .     A
C202   C721    1.418   1_545 S
C203   N239    1.369   .     A
C203   Cl208   1.759   .     S
C203   C462    1.420   .     S
C204   N240    1.371   .     A
C204   Cl209   1.758   .     S
C204   C719    1.420   1_545 S
C205   N239    1.368   .     A
C205   Cl210   1.760   .     S
C205   C460    1.418   .     S
C206   H211    1.083   .     S
H213   C968    1.111   1_554 S
H216   C970    1.110   .     S
H218   C970    1.109   .     S
H236   C966    1.109   .     S
N239   Zn257   2.018   .     S
N240   Zn258   2.018   .     S
O241   Zn257   2.001   .     S
O249   Zn258   2.001   .     S
O250   Zn257   2.000   .     S
O251   Zn258   2.000   .     S
O252   Zn257   2.005   .     S
O253   Zn258   2.005   .     S
O254   Zn257   2.000   .     S
O255   Zn258   2.000   .     S
C259   C277    1.421   .     S
C259   O327    1.286   .     A
C259   O337    1.286   .     A
C260   C276    1.398   .     A
C260   H308    1.083   .     S
C260   C348    1.369   .     S
C261   C276    1.397   .     A
C261   H318    1.082   .     S
C261   C378    1.368   .     S
C262   C277    1.397   .     A
C262   H319    1.083   .     S
C262   C432    1.369   1_455 S
C263   C274    1.406   .     A
C263   O342    1.387   .     S
C263   C267    1.391   .     A
C264   O328    1.386   .     S
C264   C275    1.399   .     A
C264   C268    1.391   .     A
C265   C269    1.401   .     A
C265   O329    1.384   .     S
C265   C275    1.405   .     A
C266   C271    1.389   .     A
C266   C274    1.407   .     A
C266   O330    1.386   .     S
C267   O331    1.385   .     S
C267   C272    1.417   .     A
C268   C273    1.407   .     A
C268   O332    1.380   .     S
C269   C273    1.410   .     A
C269   O333    1.388   .     S
C270   O336    1.286   .     A
C270   O335    1.287   .     A
C270   C276    1.421   .     S
C271   C272    1.409   .     A
C271   O334    1.383   .     S
C272   C281    1.458   .     S
C273   C287    1.452   .     S
C274   C1049   1.448   1_554 S
C275   C1048   1.448   .     S
C277   C292    1.397   .     A
C278   O342    1.412   .     S
C278   H321    1.109   .     S
C278   H320    1.115   .     S
C278   H1096   1.109   1_554 S
C279   H324    1.112   .     S
C279   H323    1.112   .     S
C279   O328    1.410   .     S
C279   H298    1.109   .     S
C280   H301    1.109   .     S
C280   O329    1.409   .     S
C280   H300    1.114   .     S
C280   H1073   1.111   .     S
C281   O341    1.295   .     A
C281   O338    1.294   .     A
C282   O330    1.409   .     S
C282   H303    1.114   .     S
C282   H1076   1.110   1_554 S
C282   H1078   1.109   1_554 S
C283   H305    1.114   .     S
C283   H306    1.109   .     S
C283   O331    1.411   .     S
C283   H307    1.110   .     S
C284   H310    1.113   .     S
C284   H311    1.113   .     S
C284   H309    1.107   .     S
C284   O332    1.413   .     S
C285   H312    1.110   .     S
C285   H313    1.115   .     S
C285   O333    1.413   .     S
C285   H314    1.110   .     S
C286   H315    1.109   .     S
C286   O334    1.413   .     S
C286   H317    1.112   .     S
C286   H316    1.114   .     S
C287   O339    1.295   .     A
C287   O340    1.292   .     A
C288   Cl293   1.755   .     S
C288   N326    1.372   .     A
C289   N325    1.369   .     A
C289   Cl294   1.759   .     S
C289   C548    1.420   .     S
C290   N326    1.371   .     A
C290   Cl295   1.758   .     S
C291   N325    1.368   .     A
C291   Cl296   1.760   .     S
C291   C546    1.418   .     S
C292   H297    1.083   .     S
C292   C433    1.368   1_455 S
H299   C1054   1.111   1_554 S
H302   C1056   1.110   .     S
H304   C1056   1.109   .     S
H322   C1052   1.109   .     S
N325   Zn343   2.018   .     S
N326   Zn344   2.018   .     S
O327   Zn343   2.001   .     S
O335   Zn344   2.001   .     S
O336   Zn343   2.000   .     S
O337   Zn344   2.000   .     S
O338   Zn343   2.005   .     S
O339   Zn344   2.005   .     S
O340   Zn343   2.000   .     S
O341   Zn344   2.000   .     S
C345   C363    1.421   .     S
C345   O413    1.286   .     A
C345   O423    1.286   .     A
C346   C362    1.398   .     A
C346   H394    1.083   .     S
C346   C434    1.369   .     S
C347   C362    1.397   .     A
C347   H404    1.082   .     S
C347   C464    1.368   .     S
C348   C363    1.397   .     A
C348   H405    1.083   .     S
C349   C360    1.406   .     A
C349   O428    1.387   .     S
C349   C353    1.391   .     A
C350   O414    1.386   .     S
C350   C361    1.399   .     A
C350   C354    1.391   .     A
C351   C355    1.401   .     A
C351   O415    1.384   .     S
C351   C361    1.405   .     A
C352   C357    1.389   .     A
C352   C360    1.407   .     A
C352   O416    1.386   .     S
C353   O417    1.385   .     S
C353   C358    1.417   .     A
C354   C359    1.407   .     A
C354   O418    1.380   .     S
C355   C359    1.410   .     A
C355   O419    1.388   .     S
C356   O422    1.286   .     A
C356   O421    1.287   .     A
C356   C362    1.421   .     S
C357   C358    1.409   .     A
C357   O420    1.383   .     S
C358   C367    1.458   .     S
C359   C373    1.452   .     S
C360   C1135   1.448   1_554 S
C361   C1134   1.448   .     S
C363   C378    1.397   .     A
C364   O428    1.412   .     S
C364   H407    1.109   .     S
C364   H406    1.115   .     S
C364   H1182   1.109   1_554 S
C365   H410    1.112   .     S
C365   H409    1.112   .     S
C365   O414    1.410   .     S
C365   H384    1.109   .     S
C366   H387    1.109   .     S
C366   O415    1.409   .     S
C366   H386    1.114   .     S
C366   H1159   1.111   .     S
C367   O427    1.295   .     A
C367   O424    1.294   .     A
C368   O416    1.409   .     S
C368   H389    1.114   .     S
C368   H1162   1.110   1_554 S
C368   H1164   1.109   1_554 S
C369   H391    1.114   .     S
C369   H392    1.109   .     S
C369   O417    1.411   .     S
C369   H393    1.110   .     S
C370   H396    1.113   .     S
C370   H397    1.113   .     S
C370   H395    1.107   .     S
C370   O418    1.413   .     S
C371   H398    1.110   .     S
C371   H399    1.115   .     S
C371   O419    1.413   .     S
C371   H400    1.110   .     S
C372   H401    1.109   .     S
C372   O420    1.413   .     S
C372   H403    1.112   .     S
C372   H402    1.114   .     S
C373   O425    1.295   .     A
C373   O426    1.292   .     A
C374   Cl379   1.755   .     S
C374   N412    1.372   .     A
C375   N411    1.369   .     A
C375   Cl380   1.759   .     S
C375   C634    1.420   .     S
C376   N412    1.371   .     A
C376   Cl381   1.758   .     S
C377   N411    1.368   .     A
C377   Cl382   1.760   .     S
C377   C632    1.418   .     S
C378   H383    1.083   .     S
H385   C1140   1.111   1_554 S
H388   C1142   1.110   .     S
H390   C1142   1.109   .     S
H408   C1138   1.109   .     S
N411   Zn429   2.018   .     S
N412   Zn430   2.018   .     S
O413   Zn429   2.001   .     S
O421   Zn430   2.001   .     S
O422   Zn429   2.000   .     S
O423   Zn430   2.000   .     S
O424   Zn429   2.005   .     S
O425   Zn430   2.005   .     S
O426   Zn429   2.000   .     S
O427   Zn430   2.000   .     S
C431   C449    1.421   .     S
C431   O499    1.286   .     A
C431   O509    1.286   .     A
C432   C448    1.398   .     A
C432   H480    1.083   .     S
C432   C262    1.369   1_655 S
C433   C448    1.397   .     A
C433   H490    1.082   .     S
C433   C292    1.368   1_655 S
C434   C449    1.397   .     A
C434   H491    1.083   .     S
C435   C446    1.406   .     A
C435   O514    1.387   .     S
C435   C439    1.391   .     A
C436   O500    1.386   .     S
C436   C447    1.399   .     A
C436   C440    1.391   .     A
C437   C441    1.401   .     A
C437   O501    1.384   .     S
C437   C447    1.405   .     A
C438   C443    1.389   .     A
C438   C446    1.407   .     A
C438   O502    1.386   .     S
C439   O503    1.385   .     S
C439   C444    1.417   .     A
C440   C445    1.407   .     A
C440   O504    1.380   .     S
C441   C445    1.410   .     A
C441   O505    1.388   .     S
C442   O508    1.286   .     A
C442   O507    1.287   .     A
C442   C448    1.421   .     S
C443   C444    1.409   .     A
C443   O506    1.383   .     S
C444   C453    1.458   .     S
C445   C459    1.452   .     S
C446   C1221   1.448   1_554 S
C447   C1220   1.448   .     S
C449   C464    1.397   .     A
C450   O514    1.412   .     S
C450   H493    1.109   .     S
C450   H492    1.115   .     S
C450   H1268   1.109   1_554 S
C451   H496    1.112   .     S
C451   H495    1.112   .     S
C451   O500    1.410   .     S
C451   H470    1.109   .     S
C452   H473    1.109   .     S
C452   O501    1.409   .     S
C452   H472    1.114   .     S
C452   H1245   1.111   .     S
C453   O513    1.295   .     A
C453   O510    1.294   .     A
C454   O502    1.409   .     S
C454   H475    1.114   .     S
C454   H1248   1.110   1_554 S
C454   H1250   1.109   1_554 S
C455   H477    1.114   .     S
C455   H478    1.109   .     S
C455   O503    1.411   .     S
C455   H479    1.110   .     S
C456   H482    1.113   .     S
C456   H483    1.113   .     S
C456   H481    1.107   .     S
C456   O504    1.413   .     S
C457   H484    1.110   .     S
C457   H485    1.115   .     S
C457   O505    1.413   .     S
C457   H486    1.110   .     S
C458   H487    1.109   .     S
C458   O506    1.413   .     S
C458   H489    1.112   .     S
C458   H488    1.114   .     S
C459   O511    1.295   .     A
C459   O512    1.292   .     A
C460   Cl465   1.755   .     S
C460   N498    1.372   .     A
C461   N497    1.369   .     A
C461   Cl466   1.759   .     S
C461   C720    1.420   .     S
C462   N498    1.371   .     A
C462   Cl467   1.758   .     S
C463   N497    1.368   .     A
C463   Cl468   1.760   .     S
C463   C718    1.418   .     S
C464   H469    1.083   .     S
H471   C1226   1.111   1_554 S
H474   C1228   1.110   .     S
H476   C1228   1.109   .     S
H494   C1224   1.109   .     S
N497   Zn515   2.018   .     S
N498   Zn516   2.018   .     S
O499   Zn515   2.001   .     S
O507   Zn516   2.001   .     S
O508   Zn515   2.000   .     S
O509   Zn516   2.000   .     S
O510   Zn515   2.005   .     S
O511   Zn516   2.005   .     S
O512   Zn515   2.000   .     S
O513   Zn516   2.000   .     S
C517   C535    1.421   .     S
C517   O585    1.286   .     A
C517   O595    1.286   .     A
C518   C534    1.398   .     A
C518   H566    1.083   .     S
C518   C606    1.369   .     S
C519   C534    1.397   .     A
C519   H576    1.082   .     S
C519   C636    1.368   .     S
C520   C535    1.397   .     A
C520   H577    1.083   .     S
C520   C690    1.369   1_455 S
C521   C532    1.406   .     A
C521   O600    1.387   .     S
C521   C525    1.391   .     A
C522   O586    1.386   .     S
C522   C533    1.399   .     A
C522   C526    1.391   .     A
C523   C527    1.401   .     A
C523   O587    1.384   .     S
C523   C533    1.405   .     A
C524   C529    1.389   .     A
C524   C532    1.407   .     A
C524   O588    1.386   .     S
C525   O589    1.385   .     S
C525   C530    1.417   .     A
C526   C531    1.407   .     A
C526   O590    1.380   .     S
C527   C531    1.410   .     A
C527   O591    1.388   .     S
C528   O594    1.286   .     A
C528   O593    1.287   .     A
C528   C534    1.421   .     S
C529   C530    1.409   .     A
C529   O592    1.383   .     S
C530   C539    1.458   .     S
C531   C545    1.452   .     S
C532   C1307   1.448   1_554 S
C533   C1306   1.448   .     S
C535   C550    1.397   .     A
C536   O600    1.412   .     S
C536   H579    1.109   .     S
C536   H578    1.115   .     S
C536   H1354   1.109   1_554 S
C537   H582    1.112   .     S
C537   H581    1.112   .     S
C537   O586    1.410   .     S
C537   H556    1.109   .     S
C538   H559    1.109   .     S
C538   O587    1.409   .     S
C538   H558    1.114   .     S
C538   H1331   1.111   .     S
C539   O599    1.295   .     A
C539   O596    1.294   .     A
C540   O588    1.409   .     S
C540   H561    1.114   .     S
C540   H1334   1.110   1_554 S
C540   H1336   1.109   1_554 S
C541   H563    1.114   .     S
C541   H564    1.109   .     S
C541   O589    1.411   .     S
C541   H565    1.110   .     S
C542   H568    1.113   .     S
C542   H569    1.113   .     S
C542   H567    1.107   .     S
C542   O590    1.413   .     S
C543   H570    1.110   .     S
C543   H571    1.115   .     S
C543   O591    1.413   .     S
C543   H572    1.110   .     S
C544   H573    1.109   .     S
C544   O592    1.413   .     S
C544   H575    1.112   .     S
C544   H574    1.114   .     S
C545   O597    1.295   .     A
C545   O598    1.292   .     A
C546   Cl551   1.755   .     S
C546   N584    1.372   .     A
C547   N583    1.369   .     A
C547   Cl552   1.759   .     S
C547   C32     1.420   1_565 S
C548   N584    1.371   .     A
C548   Cl553   1.758   .     S
C549   N583    1.368   .     A
C549   Cl554   1.760   .     S
C549   C30     1.418   1_565 S
C550   H555    1.083   .     S
C550   C691    1.368   1_455 S
H557   C1312   1.111   1_554 S
H560   C1314   1.110   .     S
H562   C1314   1.109   .     S
H580   C1310   1.109   .     S
N583   Zn601   2.018   .     S
N584   Zn602   2.018   .     S
O585   Zn601   2.001   .     S
O593   Zn602   2.001   .     S
O594   Zn601   2.000   .     S
O595   Zn602   2.000   .     S
O596   Zn601   2.005   .     S
O597   Zn602   2.005   .     S
O598   Zn601   2.000   .     S
O599   Zn602   2.000   .     S
C603   C621    1.421   .     S
C603   O671    1.286   .     A
C603   O681    1.286   .     A
C604   C620    1.398   .     A
C604   H652    1.083   .     S
C604   C692    1.369   .     S
C605   C620    1.397   .     A
C605   H662    1.082   .     S
C605   C722    1.368   .     S
C606   C621    1.397   .     A
C606   H663    1.083   .     S
C607   C618    1.406   .     A
C607   O686    1.387   .     S
C607   C611    1.391   .     A
C608   O672    1.386   .     S
C608   C619    1.399   .     A
C608   C612    1.391   .     A
C609   C613    1.401   .     A
C609   O673    1.384   .     S
C609   C619    1.405   .     A
C610   C615    1.389   .     A
C610   C618    1.407   .     A
C610   O674    1.386   .     S
C611   O675    1.385   .     S
C611   C616    1.417   .     A
C612   C617    1.407   .     A
C612   O676    1.380   .     S
C613   C617    1.410   .     A
C613   O677    1.388   .     S
C614   O680    1.286   .     A
C614   O679    1.287   .     A
C614   C620    1.421   .     S
C615   C616    1.409   .     A
C615   O678    1.383   .     S
C616   C625    1.458   .     S
C617   C631    1.452   .     S
C618   C1393   1.448   1_554 S
C619   C1392   1.448   .     S
C621   C636    1.397   .     A
C622   O686    1.412   .     S
C622   H665    1.109   .     S
C622   H664    1.115   .     S
C622   H1440   1.109   1_554 S
C623   H668    1.112   .     S
C623   H667    1.112   .     S
C623   O672    1.410   .     S
C623   H642    1.109   .     S
C624   H645    1.109   .     S
C624   O673    1.409   .     S
C624   H644    1.114   .     S
C624   H1417   1.111   .     S
C625   O685    1.295   .     A
C625   O682    1.294   .     A
C626   O674    1.409   .     S
C626   H647    1.114   .     S
C626   H1420   1.110   1_554 S
C626   H1422   1.109   1_554 S
C627   H649    1.114   .     S
C627   H650    1.109   .     S
C627   O675    1.411   .     S
C627   H651    1.110   .     S
C628   H654    1.113   .     S
C628   H655    1.113   .     S
C628   H653    1.107   .     S
C628   O676    1.413   .     S
C629   H656    1.110   .     S
C629   H657    1.115   .     S
C629   O677    1.413   .     S
C629   H658    1.110   .     S
C630   H659    1.109   .     S
C630   O678    1.413   .     S
C630   H661    1.112   .     S
C630   H660    1.114   .     S
C631   O683    1.295   .     A
C631   O684    1.292   .     A
C632   Cl637   1.755   .     S
C632   N670    1.372   .     A
C633   N669    1.369   .     A
C633   Cl638   1.759   .     S
C633   C118    1.420   1_565 S
C634   N670    1.371   .     A
C634   Cl639   1.758   .     S
C635   N669    1.368   .     A
C635   Cl640   1.760   .     S
C635   C116    1.418   1_565 S
C636   H641    1.083   .     S
H643   C1398   1.111   1_554 S
H646   C1400   1.110   .     S
H648   C1400   1.109   .     S
H666   C1396   1.109   .     S
N669   Zn687   2.018   .     S
N670   Zn688   2.018   .     S
O671   Zn687   2.001   .     S
O679   Zn688   2.001   .     S
O680   Zn687   2.000   .     S
O681   Zn688   2.000   .     S
O682   Zn687   2.005   .     S
O683   Zn688   2.005   .     S
O684   Zn687   2.000   .     S
O685   Zn688   2.000   .     S
C689   C707    1.421   .     S
C689   O757    1.286   .     A
C689   O767    1.286   .     A
C690   C706    1.398   .     A
C690   H738    1.083   .     S
C690   C520    1.369   1_655 S
C691   C706    1.397   .     A
C691   H748    1.082   .     S
C691   C550    1.368   1_655 S
C692   C707    1.397   .     A
C692   H749    1.083   .     S
C693   C704    1.406   .     A
C693   O772    1.387   .     S
C693   C697    1.391   .     A
C694   O758    1.386   .     S
C694   C705    1.399   .     A
C694   C698    1.391   .     A
C695   C699    1.401   .     A
C695   O759    1.384   .     S
C695   C705    1.405   .     A
C696   C701    1.389   .     A
C696   C704    1.407   .     A
C696   O760    1.386   .     S
C697   O761    1.385   .     S
C697   C702    1.417   .     A
C698   C703    1.407   .     A
C698   O762    1.380   .     S
C699   C703    1.410   .     A
C699   O763    1.388   .     S
C700   O766    1.286   .     A
C700   O765    1.287   .     A
C700   C706    1.421   .     S
C701   C702    1.409   .     A
C701   O764    1.383   .     S
C702   C711    1.458   .     S
C703   C717    1.452   .     S
C704   C1479   1.448   1_554 S
C705   C1478   1.448   .     S
C707   C722    1.397   .     A
C708   O772    1.412   .     S
C708   H751    1.109   .     S
C708   H750    1.115   .     S
C708   H1526   1.109   1_554 S
C709   H754    1.112   .     S
C709   H753    1.112   .     S
C709   O758    1.410   .     S
C709   H728    1.109   .     S
C710   H731    1.109   .     S
C710   O759    1.409   .     S
C710   H730    1.114   .     S
C710   H1503   1.111   .     S
C711   O771    1.295   .     A
C711   O768    1.294   .     A
C712   O760    1.409   .     S
C712   H733    1.114   .     S
C712   H1506   1.110   1_554 S
C712   H1508   1.109   1_554 S
C713   H735    1.114   .     S
C713   H736    1.109   .     S
C713   O761    1.411   .     S
C713   H737    1.110   .     S
C714   H740    1.113   .     S
C714   H741    1.113   .     S
C714   H739    1.107   .     S
C714   O762    1.413   .     S
C715   H742    1.110   .     S
C715   H743    1.115   .     S
C715   O763    1.413   .     S
C715   H744    1.110   .     S
C716   H745    1.109   .     S
C716   O764    1.413   .     S
C716   H747    1.112   .     S
C716   H746    1.114   .     S
C717   O769    1.295   .     A
C717   O770    1.292   .     A
C718   Cl723   1.755   .     S
C718   N756    1.372   .     A
C719   N755    1.369   .     A
C719   Cl724   1.759   .     S
C719   C204    1.420   1_565 S
C720   N756    1.371   .     A
C720   Cl725   1.758   .     S
C721   N755    1.368   .     A
C721   Cl726   1.760   .     S
C721   C202    1.418   1_565 S
C722   H727    1.083   .     S
H729   C1484   1.111   1_554 S
H732   C1486   1.110   .     S
H734   C1486   1.109   .     S
H752   C1482   1.109   .     S
N755   Zn773   2.018   .     S
N756   Zn774   2.018   .     S
O757   Zn773   2.001   .     S
O765   Zn774   2.001   .     S
O766   Zn773   2.000   .     S
O767   Zn774   2.000   .     S
O768   Zn773   2.005   .     S
O769   Zn774   2.005   .     S
O770   Zn773   2.000   .     S
O771   Zn774   2.000   .     S
C775   C793    1.421   .     S
C775   O843    1.286   .     A
C775   O853    1.286   .     A
C776   C792    1.398   .     A
C776   H824    1.083   .     S
C776   C864    1.369   .     S
C777   C792    1.397   .     A
C777   H834    1.082   .     S
C777   C894    1.368   .     S
C778   C793    1.397   .     A
C778   H835    1.083   .     S
C778   C948    1.369   1_455 S
C779   C790    1.406   .     A
C779   O858    1.387   .     S
C779   C783    1.391   .     A
C780   O844    1.386   .     S
C780   C791    1.399   .     A
C780   C784    1.391   .     A
C781   C785    1.401   .     A
C781   O845    1.384   .     S
C781   C791    1.405   .     A
C782   C787    1.389   .     A
C782   C790    1.407   .     A
C782   O846    1.386   .     S
C783   O847    1.385   .     S
C783   C788    1.417   .     A
C784   C789    1.407   .     A
C784   O848    1.380   .     S
C785   C789    1.410   .     A
C785   O849    1.388   .     S
C786   O852    1.286   .     A
C786   O851    1.287   .     A
C786   C792    1.421   .     S
C787   C788    1.409   .     A
C787   O850    1.383   .     S
C788   C797    1.458   .     S
C789   C803    1.452   .     S
C791   C16     1.448   1_556 S
C793   C808    1.397   .     A
C794   O858    1.412   .     S
C794   H837    1.109   .     S
C794   H836    1.115   .     S
C795   H840    1.112   .     S
C795   H839    1.112   .     S
C795   O844    1.410   .     S
C795   H814    1.109   .     S
C796   H817    1.109   .     S
C796   O845    1.409   .     S
C796   H816    1.114   .     S
C796   H41     1.111   1_556 S
C797   O857    1.295   .     A
C797   O854    1.294   .     A
C798   O846    1.409   .     S
C798   H819    1.114   .     S
C799   H821    1.114   .     S
C799   H822    1.109   .     S
C799   O847    1.411   .     S
C799   H823    1.110   .     S
C800   H826    1.113   .     S
C800   H827    1.113   .     S
C800   H825    1.107   .     S
C800   O848    1.413   .     S
C801   H828    1.110   .     S
C801   H829    1.115   .     S
C801   O849    1.413   .     S
C801   H830    1.110   .     S
C802   H831    1.109   .     S
C802   O850    1.413   .     S
C802   H833    1.112   .     S
C802   H832    1.114   .     S
C803   O855    1.295   .     A
C803   O856    1.292   .     A
C804   Cl809   1.755   .     S
C804   N842    1.372   .     A
C804   C1323   1.418   1_545 S
C805   N841    1.369   .     A
C805   Cl810   1.759   .     S
C805   C1064   1.420   .     S
C806   N842    1.371   .     A
C806   Cl811   1.758   .     S
C806   C1321   1.420   1_545 S
C807   N841    1.368   .     A
C807   Cl812   1.760   .     S
C807   C1062   1.418   .     S
C808   H813    1.083   .     S
C808   C949    1.368   1_455 S
H818   C24     1.110   1_556 S
H820   C24     1.109   1_556 S
H838   C20     1.109   1_556 S
N841   Zn859   2.018   .     S
N842   Zn860   2.018   .     S
O843   Zn859   2.001   .     S
O851   Zn860   2.001   .     S
O852   Zn859   2.000   .     S
O853   Zn860   2.000   .     S
O854   Zn859   2.005   .     S
O855   Zn860   2.005   .     S
O856   Zn859   2.000   .     S
O857   Zn860   2.000   .     S
C861   C879    1.421   .     S
C861   O929    1.286   .     A
C861   O939    1.286   .     A
C862   C878    1.398   .     A
C862   H910    1.083   .     S
C862   C950    1.369   .     S
C863   C878    1.397   .     A
C863   H920    1.082   .     S
C863   C980    1.368   .     S
C864   C879    1.397   .     A
C864   H921    1.083   .     S
C865   C876    1.406   .     A
C865   O944    1.387   .     S
C865   C869    1.391   .     A
C866   O930    1.386   .     S
C866   C877    1.399   .     A
C866   C870    1.391   .     A
C867   C871    1.401   .     A
C867   O931    1.384   .     S
C867   C877    1.405   .     A
C868   C873    1.389   .     A
C868   C876    1.407   .     A
C868   O932    1.386   .     S
C869   O933    1.385   .     S
C869   C874    1.417   .     A
C870   C875    1.407   .     A
C870   O934    1.380   .     S
C871   C875    1.410   .     A
C871   O935    1.388   .     S
C872   O938    1.286   .     A
C872   O937    1.287   .     A
C872   C878    1.421   .     S
C873   C874    1.409   .     A
C873   O936    1.383   .     S
C874   C883    1.458   .     S
C875   C889    1.452   .     S
C877   C102    1.448   1_556 S
C879   C894    1.397   .     A
C880   O944    1.412   .     S
C880   H923    1.109   .     S
C880   H922    1.115   .     S
C881   H926    1.112   .     S
C881   H925    1.112   .     S
C881   O930    1.410   .     S
C881   H900    1.109   .     S
C882   H903    1.109   .     S
C882   O931    1.409   .     S
C882   H902    1.114   .     S
C882   H127    1.111   1_556 S
C883   O943    1.295   .     A
C883   O940    1.294   .     A
C884   O932    1.409   .     S
C884   H905    1.114   .     S
C885   H907    1.114   .     S
C885   H908    1.109   .     S
C885   O933    1.411   .     S
C885   H909    1.110   .     S
C886   H912    1.113   .     S
C886   H913    1.113   .     S
C886   H911    1.107   .     S
C886   O934    1.413   .     S
C887   H914    1.110   .     S
C887   H915    1.115   .     S
C887   O935    1.413   .     S
C887   H916    1.110   .     S
C888   H917    1.109   .     S
C888   O936    1.413   .     S
C888   H919    1.112   .     S
C888   H918    1.114   .     S
C889   O941    1.295   .     A
C889   O942    1.292   .     A
C890   Cl895   1.755   .     S
C890   N928    1.372   .     A
C890   C1409   1.418   1_545 S
C891   N927    1.369   .     A
C891   Cl896   1.759   .     S
C891   C1150   1.420   .     S
C892   N928    1.371   .     A
C892   Cl897   1.758   .     S
C892   C1407   1.420   1_545 S
C893   N927    1.368   .     A
C893   Cl898   1.760   .     S
C893   C1148   1.418   .     S
C894   H899    1.083   .     S
H904   C110    1.110   1_556 S
H906   C110    1.109   1_556 S
H924   C106    1.109   1_556 S
N927   Zn945   2.018   .     S
N928   Zn946   2.018   .     S
O929   Zn945   2.001   .     S
O937   Zn946   2.001   .     S
O938   Zn945   2.000   .     S
O939   Zn946   2.000   .     S
O940   Zn945   2.005   .     S
O941   Zn946   2.005   .     S
O942   Zn945   2.000   .     S
O943   Zn946   2.000   .     S
C947   C965    1.421   .     S
C947   O1015   1.286   .     A
C947   O1025   1.286   .     A
C948   C964    1.398   .     A
C948   H996    1.083   .     S
C948   C778    1.369   1_655 S
C949   C964    1.397   .     A
C949   H1006   1.082   .     S
C949   C808    1.368   1_655 S
C950   C965    1.397   .     A
C950   H1007   1.083   .     S
C951   C962    1.406   .     A
C951   O1030   1.387   .     S
C951   C955    1.391   .     A
C952   O1016   1.386   .     S
C952   C963    1.399   .     A
C952   C956    1.391   .     A
C953   C957    1.401   .     A
C953   O1017   1.384   .     S
C953   C963    1.405   .     A
C954   C959    1.389   .     A
C954   C962    1.407   .     A
C954   O1018   1.386   .     S
C955   O1019   1.385   .     S
C955   C960    1.417   .     A
C956   C961    1.407   .     A
C956   O1020   1.380   .     S
C957   C961    1.410   .     A
C957   O1021   1.388   .     S
C958   O1024   1.286   .     A
C958   O1023   1.287   .     A
C958   C964    1.421   .     S
C959   C960    1.409   .     A
C959   O1022   1.383   .     S
C960   C969    1.458   .     S
C961   C975    1.452   .     S
C963   C188    1.448   1_556 S
C965   C980    1.397   .     A
C966   O1030   1.412   .     S
C966   H1009   1.109   .     S
C966   H1008   1.115   .     S
C967   H1012   1.112   .     S
C967   H1011   1.112   .     S
C967   O1016   1.410   .     S
C967   H986    1.109   .     S
C968   H989    1.109   .     S
C968   O1017   1.409   .     S
C968   H988    1.114   .     S
C968   H213    1.111   1_556 S
C969   O1029   1.295   .     A
C969   O1026   1.294   .     A
C970   O1018   1.409   .     S
C970   H991    1.114   .     S
C971   H993    1.114   .     S
C971   H994    1.109   .     S
C971   O1019   1.411   .     S
C971   H995    1.110   .     S
C972   H998    1.113   .     S
C972   H999    1.113   .     S
C972   H997    1.107   .     S
C972   O1020   1.413   .     S
C973   H1000   1.110   .     S
C973   H1001   1.115   .     S
C973   O1021   1.413   .     S
C973   H1002   1.110   .     S
C974   H1003   1.109   .     S
C974   O1022   1.413   .     S
C974   H1005   1.112   .     S
C974   H1004   1.114   .     S
C975   O1027   1.295   .     A
C975   O1028   1.292   .     A
C976   Cl981   1.755   .     S
C976   N1014   1.372   .     A
C976   C1495   1.418   1_545 S
C977   N1013   1.369   .     A
C977   Cl982   1.759   .     S
C977   C1236   1.420   .     S
C978   N1014   1.371   .     A
C978   Cl983   1.758   .     S
C978   C1493   1.420   1_545 S
C979   N1013   1.368   .     A
C979   Cl984   1.760   .     S
C979   C1234   1.418   .     S
C980   H985    1.083   .     S
H990   C196    1.110   1_556 S
H992   C196    1.109   1_556 S
H1010  C192    1.109   1_556 S
N1013  Zn1031  2.018   .     S
N1014  Zn1032  2.018   .     S
O1015  Zn1031  2.001   .     S
O1023  Zn1032  2.001   .     S
O1024  Zn1031  2.000   .     S
O1025  Zn1032  2.000   .     S
O1026  Zn1031  2.005   .     S
O1027  Zn1032  2.005   .     S
O1028  Zn1031  2.000   .     S
O1029  Zn1032  2.000   .     S
C1033  C1051   1.421   .     S
C1033  O1101   1.286   .     A
C1033  O1111   1.286   .     A
C1034  C1050   1.398   .     A
C1034  H1082   1.083   .     S
C1034  C1122   1.369   .     S
C1035  C1050   1.397   .     A
C1035  H1092   1.082   .     S
C1035  C1152   1.368   .     S
C1036  C1051   1.397   .     A
C1036  H1093   1.083   .     S
C1036  C1206   1.369   1_455 S
C1037  C1048   1.406   .     A
C1037  O1116   1.387   .     S
C1037  C1041   1.391   .     A
C1038  O1102   1.386   .     S
C1038  C1049   1.399   .     A
C1038  C1042   1.391   .     A
C1039  C1043   1.401   .     A
C1039  O1103   1.384   .     S
C1039  C1049   1.405   .     A
C1040  C1045   1.389   .     A
C1040  C1048   1.407   .     A
C1040  O1104   1.386   .     S
C1041  O1105   1.385   .     S
C1041  C1046   1.417   .     A
C1042  C1047   1.407   .     A
C1042  O1106   1.380   .     S
C1043  C1047   1.410   .     A
C1043  O1107   1.388   .     S
C1044  O1110   1.286   .     A
C1044  O1109   1.287   .     A
C1044  C1050   1.421   .     S
C1045  C1046   1.409   .     A
C1045  O1108   1.383   .     S
C1046  C1055   1.458   .     S
C1047  C1061   1.452   .     S
C1049  C274    1.448   1_556 S
C1051  C1066   1.397   .     A
C1052  O1116   1.412   .     S
C1052  H1095   1.109   .     S
C1052  H1094   1.115   .     S
C1053  H1098   1.112   .     S
C1053  H1097   1.112   .     S
C1053  O1102   1.410   .     S
C1053  H1072   1.109   .     S
C1054  H1075   1.109   .     S
C1054  O1103   1.409   .     S
C1054  H1074   1.114   .     S
C1054  H299    1.111   1_556 S
C1055  O1115   1.295   .     A
C1055  O1112   1.294   .     A
C1056  O1104   1.409   .     S
C1056  H1077   1.114   .     S
C1057  H1079   1.114   .     S
C1057  H1080   1.109   .     S
C1057  O1105   1.411   .     S
C1057  H1081   1.110   .     S
C1058  H1084   1.113   .     S
C1058  H1085   1.113   .     S
C1058  H1083   1.107   .     S
C1058  O1106   1.413   .     S
C1059  H1086   1.110   .     S
C1059  H1087   1.115   .     S
C1059  O1107   1.413   .     S
C1059  H1088   1.110   .     S
C1060  H1089   1.109   .     S
C1060  O1108   1.413   .     S
C1060  H1091   1.112   .     S
C1060  H1090   1.114   .     S
C1061  O1113   1.295   .     A
C1061  O1114   1.292   .     A
C1062  Cl1067  1.755   .     S
C1062  N1100   1.372   .     A
C1063  N1099   1.369   .     A
C1063  Cl1068  1.759   .     S
C1063  C1322   1.420   .     S
C1064  N1100   1.371   .     A
C1064  Cl1069  1.758   .     S
C1065  N1099   1.368   .     A
C1065  Cl1070  1.760   .     S
C1065  C1320   1.418   .     S
C1066  H1071   1.083   .     S
C1066  C1207   1.368   1_455 S
H1076  C282    1.110   1_556 S
H1078  C282    1.109   1_556 S
H1096  C278    1.109   1_556 S
N1099  Zn1117  2.018   .     S
N1100  Zn1118  2.018   .     S
O1101  Zn1117  2.001   .     S
O1109  Zn1118  2.001   .     S
O1110  Zn1117  2.000   .     S
O1111  Zn1118  2.000   .     S
O1112  Zn1117  2.005   .     S
O1113  Zn1118  2.005   .     S
O1114  Zn1117  2.000   .     S
O1115  Zn1118  2.000   .     S
C1119  C1137   1.421   .     S
C1119  O1187   1.286   .     A
C1119  O1197   1.286   .     A
C1120  C1136   1.398   .     A
C1120  H1168   1.083   .     S
C1120  C1208   1.369   .     S
C1121  C1136   1.397   .     A
C1121  H1178   1.082   .     S
C1121  C1238   1.368   .     S
C1122  C1137   1.397   .     A
C1122  H1179   1.083   .     S
C1123  C1134   1.406   .     A
C1123  O1202   1.387   .     S
C1123  C1127   1.391   .     A
C1124  O1188   1.386   .     S
C1124  C1135   1.399   .     A
C1124  C1128   1.391   .     A
C1125  C1129   1.401   .     A
C1125  O1189   1.384   .     S
C1125  C1135   1.405   .     A
C1126  C1131   1.389   .     A
C1126  C1134   1.407   .     A
C1126  O1190   1.386   .     S
C1127  O1191   1.385   .     S
C1127  C1132   1.417   .     A
C1128  C1133   1.407   .     A
C1128  O1192   1.380   .     S
C1129  C1133   1.410   .     A
C1129  O1193   1.388   .     S
C1130  O1196   1.286   .     A
C1130  O1195   1.287   .     A
C1130  C1136   1.421   .     S
C1131  C1132   1.409   .     A
C1131  O1194   1.383   .     S
C1132  C1141   1.458   .     S
C1133  C1147   1.452   .     S
C1135  C360    1.448   1_556 S
C1137  C1152   1.397   .     A
C1138  O1202   1.412   .     S
C1138  H1181   1.109   .     S
C1138  H1180   1.115   .     S
C1139  H1184   1.112   .     S
C1139  H1183   1.112   .     S
C1139  O1188   1.410   .     S
C1139  H1158   1.109   .     S
C1140  H1161   1.109   .     S
C1140  O1189   1.409   .     S
C1140  H1160   1.114   .     S
C1140  H385    1.111   1_556 S
C1141  O1201   1.295   .     A
C1141  O1198   1.294   .     A
C1142  O1190   1.409   .     S
C1142  H1163   1.114   .     S
C1143  H1165   1.114   .     S
C1143  H1166   1.109   .     S
C1143  O1191   1.411   .     S
C1143  H1167   1.110   .     S
C1144  H1170   1.113   .     S
C1144  H1171   1.113   .     S
C1144  H1169   1.107   .     S
C1144  O1192   1.413   .     S
C1145  H1172   1.110   .     S
C1145  H1173   1.115   .     S
C1145  O1193   1.413   .     S
C1145  H1174   1.110   .     S
C1146  H1175   1.109   .     S
C1146  O1194   1.413   .     S
C1146  H1177   1.112   .     S
C1146  H1176   1.114   .     S
C1147  O1199   1.295   .     A
C1147  O1200   1.292   .     A
C1148  Cl1153  1.755   .     S
C1148  N1186   1.372   .     A
C1149  N1185   1.369   .     A
C1149  Cl1154  1.759   .     S
C1149  C1408   1.420   .     S
C1150  N1186   1.371   .     A
C1150  Cl1155  1.758   .     S
C1151  N1185   1.368   .     A
C1151  Cl1156  1.760   .     S
C1151  C1406   1.418   .     S
C1152  H1157   1.083   .     S
H1162  C368    1.110   1_556 S
H1164  C368    1.109   1_556 S
H1182  C364    1.109   1_556 S
N1185  Zn1203  2.018   .     S
N1186  Zn1204  2.018   .     S
O1187  Zn1203  2.001   .     S
O1195  Zn1204  2.001   .     S
O1196  Zn1203  2.000   .     S
O1197  Zn1204  2.000   .     S
O1198  Zn1203  2.005   .     S
O1199  Zn1204  2.005   .     S
O1200  Zn1203  2.000   .     S
O1201  Zn1204  2.000   .     S
C1205  C1223   1.421   .     S
C1205  O1273   1.286   .     A
C1205  O1283   1.286   .     A
C1206  C1222   1.398   .     A
C1206  H1254   1.083   .     S
C1206  C1036   1.369   1_655 S
C1207  C1222   1.397   .     A
C1207  H1264   1.082   .     S
C1207  C1066   1.368   1_655 S
C1208  C1223   1.397   .     A
C1208  H1265   1.083   .     S
C1209  C1220   1.406   .     A
C1209  O1288   1.387   .     S
C1209  C1213   1.391   .     A
C1210  O1274   1.386   .     S
C1210  C1221   1.399   .     A
C1210  C1214   1.391   .     A
C1211  C1215   1.401   .     A
C1211  O1275   1.384   .     S
C1211  C1221   1.405   .     A
C1212  C1217   1.389   .     A
C1212  C1220   1.407   .     A
C1212  O1276   1.386   .     S
C1213  O1277   1.385   .     S
C1213  C1218   1.417   .     A
C1214  C1219   1.407   .     A
C1214  O1278   1.380   .     S
C1215  C1219   1.410   .     A
C1215  O1279   1.388   .     S
C1216  O1282   1.286   .     A
C1216  O1281   1.287   .     A
C1216  C1222   1.421   .     S
C1217  C1218   1.409   .     A
C1217  O1280   1.383   .     S
C1218  C1227   1.458   .     S
C1219  C1233   1.452   .     S
C1221  C446    1.448   1_556 S
C1223  C1238   1.397   .     A
C1224  O1288   1.412   .     S
C1224  H1267   1.109   .     S
C1224  H1266   1.115   .     S
C1225  H1270   1.112   .     S
C1225  H1269   1.112   .     S
C1225  O1274   1.410   .     S
C1225  H1244   1.109   .     S
C1226  H1247   1.109   .     S
C1226  O1275   1.409   .     S
C1226  H1246   1.114   .     S
C1226  H471    1.111   1_556 S
C1227  O1287   1.295   .     A
C1227  O1284   1.294   .     A
C1228  O1276   1.409   .     S
C1228  H1249   1.114   .     S
C1229  H1251   1.114   .     S
C1229  H1252   1.109   .     S
C1229  O1277   1.411   .     S
C1229  H1253   1.110   .     S
C1230  H1256   1.113   .     S
C1230  H1257   1.113   .     S
C1230  H1255   1.107   .     S
C1230  O1278   1.413   .     S
C1231  H1258   1.110   .     S
C1231  H1259   1.115   .     S
C1231  O1279   1.413   .     S
C1231  H1260   1.110   .     S
C1232  H1261   1.109   .     S
C1232  O1280   1.413   .     S
C1232  H1263   1.112   .     S
C1232  H1262   1.114   .     S
C1233  O1285   1.295   .     A
C1233  O1286   1.292   .     A
C1234  Cl1239  1.755   .     S
C1234  N1272   1.372   .     A
C1235  N1271   1.369   .     A
C1235  Cl1240  1.759   .     S
C1235  C1494   1.420   .     S
C1236  N1272   1.371   .     A
C1236  Cl1241  1.758   .     S
C1237  N1271   1.368   .     A
C1237  Cl1242  1.760   .     S
C1237  C1492   1.418   .     S
C1238  H1243   1.083   .     S
H1248  C454    1.110   1_556 S
H1250  C454    1.109   1_556 S
H1268  C450    1.109   1_556 S
N1271  Zn1289  2.018   .     S
N1272  Zn1290  2.018   .     S
O1273  Zn1289  2.001   .     S
O1281  Zn1290  2.001   .     S
O1282  Zn1289  2.000   .     S
O1283  Zn1290  2.000   .     S
O1284  Zn1289  2.005   .     S
O1285  Zn1290  2.005   .     S
O1286  Zn1289  2.000   .     S
O1287  Zn1290  2.000   .     S
C1291  C1309   1.421   .     S
C1291  O1359   1.286   .     A
C1291  O1369   1.286   .     A
C1292  C1308   1.398   .     A
C1292  H1340   1.083   .     S
C1292  C1380   1.369   .     S
C1293  C1308   1.397   .     A
C1293  H1350   1.082   .     S
C1293  C1410   1.368   .     S
C1294  C1309   1.397   .     A
C1294  H1351   1.083   .     S
C1294  C1464   1.369   1_455 S
C1295  C1306   1.406   .     A
C1295  O1374   1.387   .     S
C1295  C1299   1.391   .     A
C1296  O1360   1.386   .     S
C1296  C1307   1.399   .     A
C1296  C1300   1.391   .     A
C1297  C1301   1.401   .     A
C1297  O1361   1.384   .     S
C1297  C1307   1.405   .     A
C1298  C1303   1.389   .     A
C1298  C1306   1.407   .     A
C1298  O1362   1.386   .     S
C1299  O1363   1.385   .     S
C1299  C1304   1.417   .     A
C1300  C1305   1.407   .     A
C1300  O1364   1.380   .     S
C1301  C1305   1.410   .     A
C1301  O1365   1.388   .     S
C1302  O1368   1.286   .     A
C1302  O1367   1.287   .     A
C1302  C1308   1.421   .     S
C1303  C1304   1.409   .     A
C1303  O1366   1.383   .     S
C1304  C1313   1.458   .     S
C1305  C1319   1.452   .     S
C1307  C532    1.448   1_556 S
C1309  C1324   1.397   .     A
C1310  O1374   1.412   .     S
C1310  H1353   1.109   .     S
C1310  H1352   1.115   .     S
C1311  H1356   1.112   .     S
C1311  H1355   1.112   .     S
C1311  O1360   1.410   .     S
C1311  H1330   1.109   .     S
C1312  H1333   1.109   .     S
C1312  O1361   1.409   .     S
C1312  H1332   1.114   .     S
C1312  H557    1.111   1_556 S
C1313  O1373   1.295   .     A
C1313  O1370   1.294   .     A
C1314  O1362   1.409   .     S
C1314  H1335   1.114   .     S
C1315  H1337   1.114   .     S
C1315  H1338   1.109   .     S
C1315  O1363   1.411   .     S
C1315  H1339   1.110   .     S
C1316  H1342   1.113   .     S
C1316  H1343   1.113   .     S
C1316  H1341   1.107   .     S
C1316  O1364   1.413   .     S
C1317  H1344   1.110   .     S
C1317  H1345   1.115   .     S
C1317  O1365   1.413   .     S
C1317  H1346   1.110   .     S
C1318  H1347   1.109   .     S
C1318  O1366   1.413   .     S
C1318  H1349   1.112   .     S
C1318  H1348   1.114   .     S
C1319  O1371   1.295   .     A
C1319  O1372   1.292   .     A
C1320  Cl1325  1.755   .     S
C1320  N1358   1.372   .     A
C1321  N1357   1.369   .     A
C1321  Cl1326  1.759   .     S
C1321  C806    1.420   1_565 S
C1322  N1358   1.371   .     A
C1322  Cl1327  1.758   .     S
C1323  N1357   1.368   .     A
C1323  Cl1328  1.760   .     S
C1323  C804    1.418   1_565 S
C1324  H1329   1.083   .     S
C1324  C1465   1.368   1_455 S
H1334  C540    1.110   1_556 S
H1336  C540    1.109   1_556 S
H1354  C536    1.109   1_556 S
N1357  Zn1375  2.018   .     S
N1358  Zn1376  2.018   .     S
O1359  Zn1375  2.001   .     S
O1367  Zn1376  2.001   .     S
O1368  Zn1375  2.000   .     S
O1369  Zn1376  2.000   .     S
O1370  Zn1375  2.005   .     S
O1371  Zn1376  2.005   .     S
O1372  Zn1375  2.000   .     S
O1373  Zn1376  2.000   .     S
C1377  C1395   1.421   .     S
C1377  O1445   1.286   .     A
C1377  O1455   1.286   .     A
C1378  C1394   1.398   .     A
C1378  H1426   1.083   .     S
C1378  C1466   1.369   .     S
C1379  C1394   1.397   .     A
C1379  H1436   1.082   .     S
C1379  C1496   1.368   .     S
C1380  C1395   1.397   .     A
C1380  H1437   1.083   .     S
C1381  C1392   1.406   .     A
C1381  O1460   1.387   .     S
C1381  C1385   1.391   .     A
C1382  O1446   1.386   .     S
C1382  C1393   1.399   .     A
C1382  C1386   1.391   .     A
C1383  C1387   1.401   .     A
C1383  O1447   1.384   .     S
C1383  C1393   1.405   .     A
C1384  C1389   1.389   .     A
C1384  C1392   1.407   .     A
C1384  O1448   1.386   .     S
C1385  O1449   1.385   .     S
C1385  C1390   1.417   .     A
C1386  C1391   1.407   .     A
C1386  O1450   1.380   .     S
C1387  C1391   1.410   .     A
C1387  O1451   1.388   .     S
C1388  O1454   1.286   .     A
C1388  O1453   1.287   .     A
C1388  C1394   1.421   .     S
C1389  C1390   1.409   .     A
C1389  O1452   1.383   .     S
C1390  C1399   1.458   .     S
C1391  C1405   1.452   .     S
C1393  C618    1.448   1_556 S
C1395  C1410   1.397   .     A
C1396  O1460   1.412   .     S
C1396  H1439   1.109   .     S
C1396  H1438   1.115   .     S
C1397  H1442   1.112   .     S
C1397  H1441   1.112   .     S
C1397  O1446   1.410   .     S
C1397  H1416   1.109   .     S
C1398  H1419   1.109   .     S
C1398  O1447   1.409   .     S
C1398  H1418   1.114   .     S
C1398  H643    1.111   1_556 S
C1399  O1459   1.295   .     A
C1399  O1456   1.294   .     A
C1400  O1448   1.409   .     S
C1400  H1421   1.114   .     S
C1401  H1423   1.114   .     S
C1401  H1424   1.109   .     S
C1401  O1449   1.411   .     S
C1401  H1425   1.110   .     S
C1402  H1428   1.113   .     S
C1402  H1429   1.113   .     S
C1402  H1427   1.107   .     S
C1402  O1450   1.413   .     S
C1403  H1430   1.110   .     S
C1403  H1431   1.115   .     S
C1403  O1451   1.413   .     S
C1403  H1432   1.110   .     S
C1404  H1433   1.109   .     S
C1404  O1452   1.413   .     S
C1404  H1435   1.112   .     S
C1404  H1434   1.114   .     S
C1405  O1457   1.295   .     A
C1405  O1458   1.292   .     A
C1406  Cl1411  1.755   .     S
C1406  N1444   1.372   .     A
C1407  N1443   1.369   .     A
C1407  Cl1412  1.759   .     S
C1407  C892    1.420   1_565 S
C1408  N1444   1.371   .     A
C1408  Cl1413  1.758   .     S
C1409  N1443   1.368   .     A
C1409  Cl1414  1.760   .     S
C1409  C890    1.418   1_565 S
C1410  H1415   1.083   .     S
H1420  C626    1.110   1_556 S
H1422  C626    1.109   1_556 S
H1440  C622    1.109   1_556 S
N1443  Zn1461  2.018   .     S
N1444  Zn1462  2.018   .     S
O1445  Zn1461  2.001   .     S
O1453  Zn1462  2.001   .     S
O1454  Zn1461  2.000   .     S
O1455  Zn1462  2.000   .     S
O1456  Zn1461  2.005   .     S
O1457  Zn1462  2.005   .     S
O1458  Zn1461  2.000   .     S
O1459  Zn1462  2.000   .     S
C1463  C1481   1.421   .     S
C1463  O1531   1.286   .     A
C1463  O1541   1.286   .     A
C1464  C1480   1.398   .     A
C1464  H1512   1.083   .     S
C1464  C1294   1.369   1_655 S
C1465  C1480   1.397   .     A
C1465  H1522   1.082   .     S
C1465  C1324   1.368   1_655 S
C1466  C1481   1.397   .     A
C1466  H1523   1.083   .     S
C1467  C1478   1.406   .     A
C1467  O1546   1.387   .     S
C1467  C1471   1.391   .     A
C1468  O1532   1.386   .     S
C1468  C1479   1.399   .     A
C1468  C1472   1.391   .     A
C1469  C1473   1.401   .     A
C1469  O1533   1.384   .     S
C1469  C1479   1.405   .     A
C1470  C1475   1.389   .     A
C1470  C1478   1.407   .     A
C1470  O1534   1.386   .     S
C1471  O1535   1.385   .     S
C1471  C1476   1.417   .     A
C1472  C1477   1.407   .     A
C1472  O1536   1.380   .     S
C1473  C1477   1.410   .     A
C1473  O1537   1.388   .     S
C1474  O1540   1.286   .     A
C1474  O1539   1.287   .     A
C1474  C1480   1.421   .     S
C1475  C1476   1.409   .     A
C1475  O1538   1.383   .     S
C1476  C1485   1.458   .     S
C1477  C1491   1.452   .     S
C1479  C704    1.448   1_556 S
C1481  C1496   1.397   .     A
C1482  O1546   1.412   .     S
C1482  H1525   1.109   .     S
C1482  H1524   1.115   .     S
C1483  H1528   1.112   .     S
C1483  H1527   1.112   .     S
C1483  O1532   1.410   .     S
C1483  H1502   1.109   .     S
C1484  H1505   1.109   .     S
C1484  O1533   1.409   .     S
C1484  H1504   1.114   .     S
C1484  H729    1.111   1_556 S
C1485  O1545   1.295   .     A
C1485  O1542   1.294   .     A
C1486  O1534   1.409   .     S
C1486  H1507   1.114   .     S
C1487  H1509   1.114   .     S
C1487  H1510   1.109   .     S
C1487  O1535   1.411   .     S
C1487  H1511   1.110   .     S
C1488  H1514   1.113   .     S
C1488  H1515   1.113   .     S
C1488  H1513   1.107   .     S
C1488  O1536   1.413   .     S
C1489  H1516   1.110   .     S
C1489  H1517   1.115   .     S
C1489  O1537   1.413   .     S
C1489  H1518   1.110   .     S
C1490  H1519   1.109   .     S
C1490  O1538   1.413   .     S
C1490  H1521   1.112   .     S
C1490  H1520   1.114   .     S
C1491  O1543   1.295   .     A
C1491  O1544   1.292   .     A
C1492  Cl1497  1.755   .     S
C1492  N1530   1.372   .     A
C1493  N1529   1.369   .     A
C1493  Cl1498  1.759   .     S
C1493  C978    1.420   1_565 S
C1494  N1530   1.371   .     A
C1494  Cl1499  1.758   .     S
C1495  N1529   1.368   .     A
C1495  Cl1500  1.760   .     S
C1495  C976    1.418   1_565 S
C1496  H1501   1.083   .     S
H1506  C712    1.110   1_556 S
H1508  C712    1.109   1_556 S
H1526  C708    1.109   1_556 S
N1529  Zn1547  2.018   .     S
N1530  Zn1548  2.018   .     S
O1531  Zn1547  2.001   .     S
O1539  Zn1548  2.001   .     S
O1540  Zn1547  2.000   .     S
O1541  Zn1548  2.000   .     S
O1542  Zn1547  2.005   .     S
O1543  Zn1548  2.005   .     S
O1544  Zn1547  2.000   .     S
O1545  Zn1548  2.000   .     S
