data_str_m2_o1_o18_pcu_sym.123
_audit_creation_date              2020-01-03
_audit_creation_method            'Materials Studio'
_symmetry_space_group_name_H-M    'P1'
_symmetry_Int_Tables_number       1
_symmetry_cell_setting            triclinic
loop_
_symmetry_equiv_pos_as_xyz
  x,y,z
_cell_length_a                    28.6647
_cell_length_b                    32.4917
_cell_length_c                    30.8563
_cell_angle_alpha                 89.0818
_cell_angle_beta                  74.7528
_cell_angle_gamma                 89.6568
loop_
_atom_site_label
_atom_site_type_symbol
_atom_site_fract_x
_atom_site_fract_y
_atom_site_fract_z
_atom_site_U_iso_or_equiv
_atom_site_adp_type
_atom_site_occupancy
C1     C     0.00005   0.08739   0.25005   0.00000  Uiso   1.00
C2     C     0.33328   0.24594   0.24996   0.00000  Uiso   1.00
C3     C     0.19190   0.19054   0.04481   0.00000  Uiso   1.00
C4     C     0.13882   0.15830   0.45253   0.00000  Uiso   1.00
C5     C     0.24018   0.19593   0.02223   0.00000  Uiso   1.00
C6     C     0.09040   0.15357   0.47495   0.00000  Uiso   1.00
C7     C     0.29049   0.02150   0.25190   0.00000  Uiso   1.00
C8     C     0.04284   0.31183   0.24812   0.00000  Uiso   1.00
C9     C     0.29042   0.31226   0.25185   0.00000  Uiso   1.00
C10    C     0.04291   0.02107   0.24818   0.00000  Uiso   1.00
C11    C     0.33325   0.29058   0.24996   0.00000  Uiso   1.00
C12    C     0.00008   0.04276   0.25007   0.00000  Uiso   1.00
C13    C     0.18380   0.14190   0.27896   0.00000  Uiso   1.00
C14    C     0.14953   0.19144   0.22104   0.00000  Uiso   1.00
C15    C     0.13441   0.14177   0.27916   0.00000  Uiso   1.00
C16    C     0.19892   0.19157   0.22085   0.00000  Uiso   1.00
C17    C     0.30618   0.16703   0.33609   0.00000  Uiso   1.00
C18    C     0.02716   0.16664   0.16388   0.00000  Uiso   1.00
C19    C     0.29104   0.17073   0.38513   0.00000  Uiso   1.00
C20    C     0.04219   0.16577   0.11458   0.00000  Uiso   1.00
C21    C     0.30567   0.19292   0.45469   0.00000  Uiso   1.00
C22    C     0.02575   0.15242   0.04326   0.00000  Uiso   1.00
C23    C     0.32278   0.18492   0.40905   0.00000  Uiso   1.00
C24    C     0.00948   0.15630   0.08967   0.00000  Uiso   1.00
C25    C     0.24253   0.16350   0.40745   0.00000  Uiso   1.00
C26    C     0.09087   0.17273   0.09252   0.00000  Uiso   1.00
C27    C     0.22384   0.17287   0.45308   0.00000  Uiso   1.00
C28    C     0.10816   0.16980   0.04560   0.00000  Uiso   1.00
C29    C     0.25662   0.18711   0.47681   0.00000  Uiso   1.00
C30    C     0.07471   0.15870   0.02115   0.00000  Uiso   1.00
C31    C     0.17371   0.16876   0.47559   0.00000  Uiso   1.00
C32    C     0.15779   0.17630   0.02258   0.00000  Uiso   1.00
Cu33   Cu    0.04689   0.16667   0.25000   0.00000  Uiso   1.00
Cu34   Cu    0.28645   0.16666   0.25000   0.00000  Uiso   1.00
H35    H     0.11484   0.17920   0.11307   0.00000  Uiso   1.00
H36    H     0.22016   0.15057   0.38813   0.00000  Uiso   1.00
H37    H     0.30504   0.15069   0.10611   0.00000  Uiso   1.00
H38    H     0.02705   0.19089   0.39230   0.00000  Uiso   1.00
H39    H     0.33061   0.20455   0.47252   0.00000  Uiso   1.00
H40    H     0.00016   0.14375   0.02473   0.00000  Uiso   1.00
H41    H     0.18250   0.19899   0.07961   0.00000  Uiso   1.00
H42    H     0.14729   0.15427   0.41676   0.00000  Uiso   1.00
H43    H     0.25695   0.03768   0.25345   0.00000  Uiso   1.00
H44    H     0.07638   0.29565   0.24657   0.00000  Uiso   1.00
H45    H     0.25686   0.29643   0.25338   0.00000  Uiso   1.00
H46    H     0.07647   0.03690   0.24665   0.00000  Uiso   1.00
N47    N     0.11736   0.16668   0.24999   0.00000  Uiso   1.00
N48    N     0.21597   0.16666   0.25001   0.00000  Uiso   1.00
O49    O     0.03958   0.10655   0.25000   0.00000  Uiso   1.00
O50    O     0.29375   0.22678   0.25000   0.00000  Uiso   1.00
O51    O     0.29372   0.10654   0.25000   0.00000  Uiso   1.00
O52    O     0.03961   0.22679   0.25000   0.00000  Uiso   1.00
O53    O     0.01852   0.16668   0.31492   0.00000  Uiso   1.00
O54    O     0.31481   0.16666   0.18508   0.00000  Uiso   1.00
O55    O     0.27267   0.16667   0.31492   0.00000  Uiso   1.00
O56    O     0.06067   0.16667   0.18508   0.00000  Uiso   1.00
H57    H     0.26488   0.20716   0.04058   0.00000  Uiso   1.00
H58    H     0.06509   0.14534   0.45589   0.00000  Uiso   1.00
H59    H     0.19635   0.12205   0.30206   0.00000  Uiso   1.00
H60    H     0.13698   0.21129   0.19795   0.00000  Uiso   1.00
Br61   Br    0.09343   0.10529   0.32169   0.00000  Uiso   1.00
Br62   Br    0.23988   0.22810   0.17836   0.00000  Uiso   1.00
C63    C     0.33339   0.08739   0.25005   0.00000  Uiso   1.00
C64    C     0.66661   0.24594   0.24996   0.00000  Uiso   1.00
C65    C     0.52523   0.19054   0.04481   0.00000  Uiso   1.00
C66    C     0.47215   0.15830   0.45253   0.00000  Uiso   1.00
C67    C     0.57351   0.19593   0.02223   0.00000  Uiso   1.00
C68    C     0.42374   0.15357   0.47495   0.00000  Uiso   1.00
C69    C     0.62382   0.02150   0.25190   0.00000  Uiso   1.00
C70    C     0.37617   0.31183   0.24812   0.00000  Uiso   1.00
C71    C     0.62375   0.31226   0.25185   0.00000  Uiso   1.00
C72    C     0.37624   0.02107   0.24818   0.00000  Uiso   1.00
C73    C     0.66659   0.29058   0.24996   0.00000  Uiso   1.00
C74    C     0.33341   0.04276   0.25007   0.00000  Uiso   1.00
C75    C     0.51713   0.14190   0.27896   0.00000  Uiso   1.00
C76    C     0.48287   0.19144   0.22104   0.00000  Uiso   1.00
C77    C     0.46774   0.14177   0.27916   0.00000  Uiso   1.00
C78    C     0.53226   0.19157   0.22085   0.00000  Uiso   1.00
C79    C     0.63951   0.16703   0.33609   0.00000  Uiso   1.00
C80    C     0.36050   0.16664   0.16388   0.00000  Uiso   1.00
C81    C     0.62437   0.17073   0.38513   0.00000  Uiso   1.00
C82    C     0.37552   0.16577   0.11458   0.00000  Uiso   1.00
C83    C     0.63900   0.19292   0.45469   0.00000  Uiso   1.00
C84    C     0.35909   0.15242   0.04326   0.00000  Uiso   1.00
C85    C     0.65611   0.18492   0.40905   0.00000  Uiso   1.00
C86    C     0.34281   0.15630   0.08967   0.00000  Uiso   1.00
C87    C     0.57587   0.16350   0.40745   0.00000  Uiso   1.00
C88    C     0.42420   0.17273   0.09252   0.00000  Uiso   1.00
C89    C     0.55717   0.17287   0.45308   0.00000  Uiso   1.00
C90    C     0.44149   0.16980   0.04560   0.00000  Uiso   1.00
C91    C     0.58996   0.18711   0.47681   0.00000  Uiso   1.00
C92    C     0.40805   0.15870   0.02115   0.00000  Uiso   1.00
C93    C     0.50704   0.16876   0.47559   0.00000  Uiso   1.00
C94    C     0.49112   0.17630   0.02258   0.00000  Uiso   1.00
Cu95   Cu    0.38022   0.16667   0.25000   0.00000  Uiso   1.00
Cu96   Cu    0.61978   0.16666   0.25000   0.00000  Uiso   1.00
H97    H     0.44817   0.17920   0.11307   0.00000  Uiso   1.00
H98    H     0.55349   0.15057   0.38813   0.00000  Uiso   1.00
H99    H     0.63837   0.15069   0.10611   0.00000  Uiso   1.00
H100   H     0.36039   0.19089   0.39230   0.00000  Uiso   1.00
H101   H     0.66394   0.20455   0.47252   0.00000  Uiso   1.00
H102   H     0.33349   0.14375   0.02473   0.00000  Uiso   1.00
H103   H     0.51583   0.19899   0.07961   0.00000  Uiso   1.00
H104   H     0.48062   0.15427   0.41676   0.00000  Uiso   1.00
H105   H     0.59028   0.03768   0.25345   0.00000  Uiso   1.00
H106   H     0.40971   0.29565   0.24657   0.00000  Uiso   1.00
H107   H     0.59019   0.29643   0.25338   0.00000  Uiso   1.00
H108   H     0.40980   0.03690   0.24665   0.00000  Uiso   1.00
N109   N     0.45069   0.16668   0.24999   0.00000  Uiso   1.00
N110   N     0.54931   0.16666   0.25001   0.00000  Uiso   1.00
O111   O     0.37291   0.10655   0.25000   0.00000  Uiso   1.00
O112   O     0.62709   0.22678   0.25000   0.00000  Uiso   1.00
O113   O     0.62706   0.10654   0.25000   0.00000  Uiso   1.00
O114   O     0.37294   0.22679   0.25000   0.00000  Uiso   1.00
O115   O     0.35186   0.16668   0.31492   0.00000  Uiso   1.00
O116   O     0.64814   0.16666   0.18508   0.00000  Uiso   1.00
O117   O     0.60600   0.16667   0.31492   0.00000  Uiso   1.00
O118   O     0.39400   0.16667   0.18508   0.00000  Uiso   1.00
H119   H     0.59822   0.20716   0.04058   0.00000  Uiso   1.00
H120   H     0.39842   0.14534   0.45589   0.00000  Uiso   1.00
H121   H     0.52968   0.12205   0.30206   0.00000  Uiso   1.00
H122   H     0.47032   0.21129   0.19795   0.00000  Uiso   1.00
Br123  Br    0.42677   0.10529   0.32169   0.00000  Uiso   1.00
Br124  Br    0.57321   0.22810   0.17836   0.00000  Uiso   1.00
C125   C     0.66672   0.08739   0.25005   0.00000  Uiso   1.00
C126   C     0.99994   0.24594   0.24996   0.00000  Uiso   1.00
C127   C     0.85857   0.19054   0.04481   0.00000  Uiso   1.00
C128   C     0.80548   0.15830   0.45253   0.00000  Uiso   1.00
C129   C     0.90684   0.19593   0.02223   0.00000  Uiso   1.00
C130   C     0.75707   0.15357   0.47495   0.00000  Uiso   1.00
C131   C     0.95716   0.02150   0.25190   0.00000  Uiso   1.00
C132   C     0.70950   0.31183   0.24812   0.00000  Uiso   1.00
C133   C     0.95708   0.31226   0.25185   0.00000  Uiso   1.00
C134   C     0.70958   0.02107   0.24818   0.00000  Uiso   1.00
C135   C     0.99992   0.29058   0.24996   0.00000  Uiso   1.00
C136   C     0.66674   0.04276   0.25007   0.00000  Uiso   1.00
C137   C     0.85046   0.14190   0.27896   0.00000  Uiso   1.00
C138   C     0.81620   0.19144   0.22104   0.00000  Uiso   1.00
C139   C     0.80107   0.14177   0.27916   0.00000  Uiso   1.00
C140   C     0.86559   0.19157   0.22085   0.00000  Uiso   1.00
C141   C     0.97284   0.16703   0.33609   0.00000  Uiso   1.00
C142   C     0.69383   0.16664   0.16388   0.00000  Uiso   1.00
C143   C     0.95770   0.17073   0.38513   0.00000  Uiso   1.00
C144   C     0.70885   0.16577   0.11458   0.00000  Uiso   1.00
C145   C     0.97233   0.19292   0.45469   0.00000  Uiso   1.00
C146   C     0.69242   0.15242   0.04326   0.00000  Uiso   1.00
C147   C     0.98944   0.18492   0.40905   0.00000  Uiso   1.00
C148   C     0.67614   0.15630   0.08967   0.00000  Uiso   1.00
C149   C     0.90920   0.16350   0.40745   0.00000  Uiso   1.00
C150   C     0.75753   0.17273   0.09252   0.00000  Uiso   1.00
C151   C     0.89050   0.17287   0.45308   0.00000  Uiso   1.00
C152   C     0.77482   0.16980   0.04560   0.00000  Uiso   1.00
C153   C     0.92329   0.18711   0.47681   0.00000  Uiso   1.00
C154   C     0.74138   0.15870   0.02115   0.00000  Uiso   1.00
C155   C     0.84037   0.16876   0.47559   0.00000  Uiso   1.00
C156   C     0.82446   0.17630   0.02258   0.00000  Uiso   1.00
Cu157  Cu    0.71355   0.16667   0.25000   0.00000  Uiso   1.00
Cu158  Cu    0.95311   0.16666   0.25000   0.00000  Uiso   1.00
H159   H     0.78151   0.17920   0.11307   0.00000  Uiso   1.00
H160   H     0.88682   0.15057   0.38813   0.00000  Uiso   1.00
H161   H     0.97171   0.15069   0.10611   0.00000  Uiso   1.00
H162   H     0.69372   0.19089   0.39230   0.00000  Uiso   1.00
H163   H     0.99728   0.20455   0.47252   0.00000  Uiso   1.00
H164   H     0.66682   0.14375   0.02473   0.00000  Uiso   1.00
H165   H     0.84916   0.19899   0.07961   0.00000  Uiso   1.00
H166   H     0.81396   0.15427   0.41676   0.00000  Uiso   1.00
H167   H     0.92361   0.03768   0.25345   0.00000  Uiso   1.00
H168   H     0.74305   0.29565   0.24657   0.00000  Uiso   1.00
H169   H     0.92353   0.29643   0.25338   0.00000  Uiso   1.00
H170   H     0.74313   0.03690   0.24665   0.00000  Uiso   1.00
N171   N     0.78403   0.16668   0.24999   0.00000  Uiso   1.00
N172   N     0.88264   0.16666   0.25001   0.00000  Uiso   1.00
O173   O     0.70625   0.10655   0.25000   0.00000  Uiso   1.00
O174   O     0.96042   0.22678   0.25000   0.00000  Uiso   1.00
O175   O     0.96039   0.10654   0.25000   0.00000  Uiso   1.00
O176   O     0.70628   0.22679   0.25000   0.00000  Uiso   1.00
O177   O     0.68519   0.16668   0.31492   0.00000  Uiso   1.00
O178   O     0.98148   0.16666   0.18508   0.00000  Uiso   1.00
O179   O     0.93933   0.16667   0.31492   0.00000  Uiso   1.00
O180   O     0.72733   0.16667   0.18508   0.00000  Uiso   1.00
H181   H     0.93155   0.20716   0.04058   0.00000  Uiso   1.00
H182   H     0.73175   0.14534   0.45589   0.00000  Uiso   1.00
H183   H     0.86301   0.12205   0.30206   0.00000  Uiso   1.00
H184   H     0.80365   0.21129   0.19795   0.00000  Uiso   1.00
Br185  Br    0.76010   0.10529   0.32169   0.00000  Uiso   1.00
Br186  Br    0.90655   0.22810   0.17836   0.00000  Uiso   1.00
C187   C     0.00005   0.42073   0.25005   0.00000  Uiso   1.00
C188   C     0.33328   0.57927   0.24996   0.00000  Uiso   1.00
C189   C     0.19190   0.52388   0.04481   0.00000  Uiso   1.00
C190   C     0.13882   0.49163   0.45253   0.00000  Uiso   1.00
C191   C     0.24018   0.52926   0.02223   0.00000  Uiso   1.00
C192   C     0.09040   0.48690   0.47495   0.00000  Uiso   1.00
C193   C     0.29049   0.35484   0.25190   0.00000  Uiso   1.00
C194   C     0.04284   0.64516   0.24812   0.00000  Uiso   1.00
C195   C     0.29042   0.64559   0.25185   0.00000  Uiso   1.00
C196   C     0.04291   0.35441   0.24818   0.00000  Uiso   1.00
C197   C     0.33325   0.62391   0.24996   0.00000  Uiso   1.00
C198   C     0.00008   0.37609   0.25007   0.00000  Uiso   1.00
C199   C     0.18380   0.47524   0.27896   0.00000  Uiso   1.00
C200   C     0.14953   0.52477   0.22104   0.00000  Uiso   1.00
C201   C     0.13441   0.47510   0.27916   0.00000  Uiso   1.00
C202   C     0.19892   0.52491   0.22085   0.00000  Uiso   1.00
C203   C     0.30618   0.50036   0.33609   0.00000  Uiso   1.00
C204   C     0.02716   0.49997   0.16388   0.00000  Uiso   1.00
C205   C     0.29104   0.50406   0.38513   0.00000  Uiso   1.00
C206   C     0.04219   0.49911   0.11458   0.00000  Uiso   1.00
C207   C     0.30567   0.52625   0.45469   0.00000  Uiso   1.00
C208   C     0.02575   0.48575   0.04326   0.00000  Uiso   1.00
C209   C     0.32278   0.51825   0.40905   0.00000  Uiso   1.00
C210   C     0.00948   0.48963   0.08967   0.00000  Uiso   1.00
C211   C     0.24253   0.49683   0.40745   0.00000  Uiso   1.00
C212   C     0.09087   0.50606   0.09252   0.00000  Uiso   1.00
C213   C     0.22384   0.50620   0.45308   0.00000  Uiso   1.00
C214   C     0.10816   0.50313   0.04560   0.00000  Uiso   1.00
C215   C     0.25662   0.52044   0.47681   0.00000  Uiso   1.00
C216   C     0.07471   0.49204   0.02115   0.00000  Uiso   1.00
C217   C     0.17371   0.50209   0.47559   0.00000  Uiso   1.00
C218   C     0.15779   0.50963   0.02258   0.00000  Uiso   1.00
Cu219  Cu    0.04689   0.50001   0.25000   0.00000  Uiso   1.00
Cu220  Cu    0.28645   0.49999   0.25000   0.00000  Uiso   1.00
H221   H     0.11484   0.51253   0.11307   0.00000  Uiso   1.00
H222   H     0.22016   0.48390   0.38813   0.00000  Uiso   1.00
H223   H     0.30504   0.48402   0.10611   0.00000  Uiso   1.00
H224   H     0.02705   0.52422   0.39230   0.00000  Uiso   1.00
H225   H     0.33061   0.53788   0.47252   0.00000  Uiso   1.00
H226   H     0.00016   0.47708   0.02473   0.00000  Uiso   1.00
H227   H     0.18250   0.53232   0.07961   0.00000  Uiso   1.00
H228   H     0.14729   0.48761   0.41676   0.00000  Uiso   1.00
H229   H     0.25695   0.37101   0.25345   0.00000  Uiso   1.00
H230   H     0.07638   0.62899   0.24657   0.00000  Uiso   1.00
H231   H     0.25686   0.62976   0.25338   0.00000  Uiso   1.00
H232   H     0.07647   0.37024   0.24665   0.00000  Uiso   1.00
N233   N     0.11736   0.50001   0.24999   0.00000  Uiso   1.00
N234   N     0.21597   0.49999   0.25001   0.00000  Uiso   1.00
O235   O     0.03958   0.43989   0.25000   0.00000  Uiso   1.00
O236   O     0.29375   0.56011   0.25000   0.00000  Uiso   1.00
O237   O     0.29372   0.43988   0.25000   0.00000  Uiso   1.00
O238   O     0.03961   0.56012   0.25000   0.00000  Uiso   1.00
O239   O     0.01852   0.50001   0.31492   0.00000  Uiso   1.00
O240   O     0.31481   0.49999   0.18508   0.00000  Uiso   1.00
O241   O     0.27267   0.50000   0.31492   0.00000  Uiso   1.00
O242   O     0.06067   0.50000   0.18508   0.00000  Uiso   1.00
H243   H     0.26488   0.54050   0.04058   0.00000  Uiso   1.00
H244   H     0.06509   0.47868   0.45589   0.00000  Uiso   1.00
H245   H     0.19635   0.45538   0.30206   0.00000  Uiso   1.00
H246   H     0.13698   0.54463   0.19795   0.00000  Uiso   1.00
Br247  Br    0.09343   0.43862   0.32169   0.00000  Uiso   1.00
Br248  Br    0.23988   0.56143   0.17836   0.00000  Uiso   1.00
C249   C     0.33339   0.42073   0.25005   0.00000  Uiso   1.00
C250   C     0.66661   0.57927   0.24996   0.00000  Uiso   1.00
C251   C     0.52523   0.52388   0.04481   0.00000  Uiso   1.00
C252   C     0.47215   0.49163   0.45253   0.00000  Uiso   1.00
C253   C     0.57351   0.52926   0.02223   0.00000  Uiso   1.00
C254   C     0.42374   0.48690   0.47495   0.00000  Uiso   1.00
C255   C     0.62382   0.35484   0.25190   0.00000  Uiso   1.00
C256   C     0.37617   0.64516   0.24812   0.00000  Uiso   1.00
C257   C     0.62375   0.64559   0.25185   0.00000  Uiso   1.00
C258   C     0.37624   0.35441   0.24818   0.00000  Uiso   1.00
C259   C     0.66659   0.62391   0.24996   0.00000  Uiso   1.00
C260   C     0.33341   0.37609   0.25007   0.00000  Uiso   1.00
C261   C     0.51713   0.47524   0.27896   0.00000  Uiso   1.00
C262   C     0.48287   0.52477   0.22104   0.00000  Uiso   1.00
C263   C     0.46774   0.47510   0.27916   0.00000  Uiso   1.00
C264   C     0.53226   0.52491   0.22085   0.00000  Uiso   1.00
C265   C     0.63951   0.50036   0.33609   0.00000  Uiso   1.00
C266   C     0.36050   0.49997   0.16388   0.00000  Uiso   1.00
C267   C     0.62437   0.50406   0.38513   0.00000  Uiso   1.00
C268   C     0.37552   0.49911   0.11458   0.00000  Uiso   1.00
C269   C     0.63900   0.52625   0.45469   0.00000  Uiso   1.00
C270   C     0.35909   0.48575   0.04326   0.00000  Uiso   1.00
C271   C     0.65611   0.51825   0.40905   0.00000  Uiso   1.00
C272   C     0.34281   0.48963   0.08967   0.00000  Uiso   1.00
C273   C     0.57587   0.49683   0.40745   0.00000  Uiso   1.00
C274   C     0.42420   0.50606   0.09252   0.00000  Uiso   1.00
C275   C     0.55717   0.50620   0.45308   0.00000  Uiso   1.00
C276   C     0.44149   0.50313   0.04560   0.00000  Uiso   1.00
C277   C     0.58996   0.52044   0.47681   0.00000  Uiso   1.00
C278   C     0.40805   0.49204   0.02115   0.00000  Uiso   1.00
C279   C     0.50704   0.50209   0.47559   0.00000  Uiso   1.00
C280   C     0.49112   0.50963   0.02258   0.00000  Uiso   1.00
Cu281  Cu    0.38022   0.50001   0.25000   0.00000  Uiso   1.00
Cu282  Cu    0.61978   0.49999   0.25000   0.00000  Uiso   1.00
H283   H     0.44817   0.51253   0.11307   0.00000  Uiso   1.00
H284   H     0.55349   0.48390   0.38813   0.00000  Uiso   1.00
H285   H     0.63837   0.48402   0.10611   0.00000  Uiso   1.00
H286   H     0.36039   0.52422   0.39230   0.00000  Uiso   1.00
H287   H     0.66394   0.53788   0.47252   0.00000  Uiso   1.00
H288   H     0.33349   0.47708   0.02473   0.00000  Uiso   1.00
H289   H     0.51583   0.53232   0.07961   0.00000  Uiso   1.00
H290   H     0.48062   0.48761   0.41676   0.00000  Uiso   1.00
H291   H     0.59028   0.37101   0.25345   0.00000  Uiso   1.00
H292   H     0.40971   0.62899   0.24657   0.00000  Uiso   1.00
H293   H     0.59019   0.62976   0.25338   0.00000  Uiso   1.00
H294   H     0.40980   0.37024   0.24665   0.00000  Uiso   1.00
N295   N     0.45069   0.50001   0.24999   0.00000  Uiso   1.00
N296   N     0.54931   0.49999   0.25001   0.00000  Uiso   1.00
O297   O     0.37291   0.43989   0.25000   0.00000  Uiso   1.00
O298   O     0.62709   0.56011   0.25000   0.00000  Uiso   1.00
O299   O     0.62706   0.43988   0.25000   0.00000  Uiso   1.00
O300   O     0.37294   0.56012   0.25000   0.00000  Uiso   1.00
O301   O     0.35186   0.50001   0.31492   0.00000  Uiso   1.00
O302   O     0.64814   0.49999   0.18508   0.00000  Uiso   1.00
O303   O     0.60600   0.50000   0.31492   0.00000  Uiso   1.00
O304   O     0.39400   0.50000   0.18508   0.00000  Uiso   1.00
H305   H     0.59822   0.54050   0.04058   0.00000  Uiso   1.00
H306   H     0.39842   0.47868   0.45589   0.00000  Uiso   1.00
H307   H     0.52968   0.45538   0.30206   0.00000  Uiso   1.00
H308   H     0.47032   0.54463   0.19795   0.00000  Uiso   1.00
Br309  Br    0.42677   0.43862   0.32169   0.00000  Uiso   1.00
Br310  Br    0.57321   0.56143   0.17836   0.00000  Uiso   1.00
C311   C     0.66672   0.42073   0.25005   0.00000  Uiso   1.00
C312   C     0.99994   0.57927   0.24996   0.00000  Uiso   1.00
C313   C     0.85857   0.52388   0.04481   0.00000  Uiso   1.00
C314   C     0.80548   0.49163   0.45253   0.00000  Uiso   1.00
C315   C     0.90684   0.52926   0.02223   0.00000  Uiso   1.00
C316   C     0.75707   0.48690   0.47495   0.00000  Uiso   1.00
C317   C     0.95716   0.35484   0.25190   0.00000  Uiso   1.00
C318   C     0.70950   0.64516   0.24812   0.00000  Uiso   1.00
C319   C     0.95708   0.64559   0.25185   0.00000  Uiso   1.00
C320   C     0.70958   0.35441   0.24818   0.00000  Uiso   1.00
C321   C     0.99992   0.62391   0.24996   0.00000  Uiso   1.00
C322   C     0.66674   0.37609   0.25007   0.00000  Uiso   1.00
C323   C     0.85046   0.47524   0.27896   0.00000  Uiso   1.00
C324   C     0.81620   0.52477   0.22104   0.00000  Uiso   1.00
C325   C     0.80107   0.47510   0.27916   0.00000  Uiso   1.00
C326   C     0.86559   0.52491   0.22085   0.00000  Uiso   1.00
C327   C     0.97284   0.50036   0.33609   0.00000  Uiso   1.00
C328   C     0.69383   0.49997   0.16388   0.00000  Uiso   1.00
C329   C     0.95770   0.50406   0.38513   0.00000  Uiso   1.00
C330   C     0.70885   0.49911   0.11458   0.00000  Uiso   1.00
C331   C     0.97233   0.52625   0.45469   0.00000  Uiso   1.00
C332   C     0.69242   0.48575   0.04326   0.00000  Uiso   1.00
C333   C     0.98944   0.51825   0.40905   0.00000  Uiso   1.00
C334   C     0.67614   0.48963   0.08967   0.00000  Uiso   1.00
C335   C     0.90920   0.49683   0.40745   0.00000  Uiso   1.00
C336   C     0.75753   0.50606   0.09252   0.00000  Uiso   1.00
C337   C     0.89050   0.50620   0.45308   0.00000  Uiso   1.00
C338   C     0.77482   0.50313   0.04560   0.00000  Uiso   1.00
C339   C     0.92329   0.52044   0.47681   0.00000  Uiso   1.00
C340   C     0.74138   0.49204   0.02115   0.00000  Uiso   1.00
C341   C     0.84037   0.50209   0.47559   0.00000  Uiso   1.00
C342   C     0.82446   0.50963   0.02258   0.00000  Uiso   1.00
Cu343  Cu    0.71355   0.50001   0.25000   0.00000  Uiso   1.00
Cu344  Cu    0.95311   0.49999   0.25000   0.00000  Uiso   1.00
H345   H     0.78151   0.51253   0.11307   0.00000  Uiso   1.00
H346   H     0.88682   0.48390   0.38813   0.00000  Uiso   1.00
H347   H     0.97171   0.48402   0.10611   0.00000  Uiso   1.00
H348   H     0.69372   0.52422   0.39230   0.00000  Uiso   1.00
H349   H     0.99728   0.53788   0.47252   0.00000  Uiso   1.00
H350   H     0.66682   0.47708   0.02473   0.00000  Uiso   1.00
H351   H     0.84916   0.53232   0.07961   0.00000  Uiso   1.00
H352   H     0.81396   0.48761   0.41676   0.00000  Uiso   1.00
H353   H     0.92361   0.37101   0.25345   0.00000  Uiso   1.00
H354   H     0.74305   0.62899   0.24657   0.00000  Uiso   1.00
H355   H     0.92353   0.62976   0.25338   0.00000  Uiso   1.00
H356   H     0.74313   0.37024   0.24665   0.00000  Uiso   1.00
N357   N     0.78403   0.50001   0.24999   0.00000  Uiso   1.00
N358   N     0.88264   0.49999   0.25001   0.00000  Uiso   1.00
O359   O     0.70625   0.43989   0.25000   0.00000  Uiso   1.00
O360   O     0.96042   0.56011   0.25000   0.00000  Uiso   1.00
O361   O     0.96039   0.43988   0.25000   0.00000  Uiso   1.00
O362   O     0.70628   0.56012   0.25000   0.00000  Uiso   1.00
O363   O     0.68519   0.50001   0.31492   0.00000  Uiso   1.00
O364   O     0.98148   0.49999   0.18508   0.00000  Uiso   1.00
O365   O     0.93933   0.50000   0.31492   0.00000  Uiso   1.00
O366   O     0.72733   0.50000   0.18508   0.00000  Uiso   1.00
H367   H     0.93155   0.54050   0.04058   0.00000  Uiso   1.00
H368   H     0.73175   0.47868   0.45589   0.00000  Uiso   1.00
H369   H     0.86301   0.45538   0.30206   0.00000  Uiso   1.00
H370   H     0.80365   0.54463   0.19795   0.00000  Uiso   1.00
Br371  Br    0.76010   0.43862   0.32169   0.00000  Uiso   1.00
Br372  Br    0.90655   0.56143   0.17836   0.00000  Uiso   1.00
C373   C     0.00005   0.75406   0.25005   0.00000  Uiso   1.00
C374   C     0.33328   0.91261   0.24996   0.00000  Uiso   1.00
C375   C     0.19190   0.85721   0.04481   0.00000  Uiso   1.00
C376   C     0.13882   0.82496   0.45253   0.00000  Uiso   1.00
C377   C     0.24018   0.86259   0.02223   0.00000  Uiso   1.00
C378   C     0.09040   0.82023   0.47495   0.00000  Uiso   1.00
C379   C     0.29049   0.68817   0.25190   0.00000  Uiso   1.00
C380   C     0.04284   0.97849   0.24812   0.00000  Uiso   1.00
C381   C     0.29042   0.97893   0.25185   0.00000  Uiso   1.00
C382   C     0.04291   0.68774   0.24818   0.00000  Uiso   1.00
C383   C     0.33325   0.95724   0.24996   0.00000  Uiso   1.00
C384   C     0.00008   0.70942   0.25007   0.00000  Uiso   1.00
C385   C     0.18380   0.80857   0.27896   0.00000  Uiso   1.00
C386   C     0.14953   0.85810   0.22104   0.00000  Uiso   1.00
C387   C     0.13441   0.80844   0.27916   0.00000  Uiso   1.00
C388   C     0.19892   0.85824   0.22085   0.00000  Uiso   1.00
C389   C     0.30618   0.83369   0.33609   0.00000  Uiso   1.00
C390   C     0.02716   0.83330   0.16388   0.00000  Uiso   1.00
C391   C     0.29104   0.83739   0.38513   0.00000  Uiso   1.00
C392   C     0.04219   0.83244   0.11458   0.00000  Uiso   1.00
C393   C     0.30567   0.85959   0.45469   0.00000  Uiso   1.00
C394   C     0.02575   0.81909   0.04326   0.00000  Uiso   1.00
C395   C     0.32278   0.85159   0.40905   0.00000  Uiso   1.00
C396   C     0.00948   0.82296   0.08967   0.00000  Uiso   1.00
C397   C     0.24253   0.83016   0.40745   0.00000  Uiso   1.00
C398   C     0.09087   0.83939   0.09252   0.00000  Uiso   1.00
C399   C     0.22384   0.83954   0.45308   0.00000  Uiso   1.00
C400   C     0.10816   0.83647   0.04560   0.00000  Uiso   1.00
C401   C     0.25662   0.85377   0.47681   0.00000  Uiso   1.00
C402   C     0.07471   0.82537   0.02115   0.00000  Uiso   1.00
C403   C     0.17371   0.83543   0.47559   0.00000  Uiso   1.00
C404   C     0.15779   0.84296   0.02258   0.00000  Uiso   1.00
Cu405  Cu    0.04689   0.83334   0.25000   0.00000  Uiso   1.00
Cu406  Cu    0.28645   0.83333   0.25000   0.00000  Uiso   1.00
H407   H     0.11484   0.84587   0.11307   0.00000  Uiso   1.00
H408   H     0.22016   0.81723   0.38813   0.00000  Uiso   1.00
H409   H     0.30504   0.81736   0.10611   0.00000  Uiso   1.00
H410   H     0.02705   0.85756   0.39230   0.00000  Uiso   1.00
H411   H     0.33061   0.87121   0.47252   0.00000  Uiso   1.00
H412   H     0.00016   0.81042   0.02473   0.00000  Uiso   1.00
H413   H     0.18250   0.86566   0.07961   0.00000  Uiso   1.00
H414   H     0.14729   0.82094   0.41676   0.00000  Uiso   1.00
H415   H     0.25695   0.70434   0.25345   0.00000  Uiso   1.00
H416   H     0.07638   0.96232   0.24657   0.00000  Uiso   1.00
H417   H     0.25686   0.96309   0.25338   0.00000  Uiso   1.00
H418   H     0.07647   0.70357   0.24665   0.00000  Uiso   1.00
N419   N     0.11736   0.83334   0.24999   0.00000  Uiso   1.00
N420   N     0.21597   0.83332   0.25001   0.00000  Uiso   1.00
O421   O     0.03958   0.77322   0.25000   0.00000  Uiso   1.00
O422   O     0.29375   0.89345   0.25000   0.00000  Uiso   1.00
O423   O     0.29372   0.77321   0.25000   0.00000  Uiso   1.00
O424   O     0.03961   0.89346   0.25000   0.00000  Uiso   1.00
O425   O     0.01852   0.83334   0.31492   0.00000  Uiso   1.00
O426   O     0.31481   0.83332   0.18508   0.00000  Uiso   1.00
O427   O     0.27267   0.83333   0.31492   0.00000  Uiso   1.00
O428   O     0.06067   0.83333   0.18508   0.00000  Uiso   1.00
H429   H     0.26488   0.87383   0.04058   0.00000  Uiso   1.00
H430   H     0.06509   0.81201   0.45589   0.00000  Uiso   1.00
H431   H     0.19635   0.78872   0.30206   0.00000  Uiso   1.00
H432   H     0.13698   0.87796   0.19795   0.00000  Uiso   1.00
Br433  Br    0.09343   0.77196   0.32169   0.00000  Uiso   1.00
Br434  Br    0.23988   0.89476   0.17836   0.00000  Uiso   1.00
C435   C     0.33339   0.75406   0.25005   0.00000  Uiso   1.00
C436   C     0.66661   0.91261   0.24996   0.00000  Uiso   1.00
C437   C     0.52523   0.85721   0.04481   0.00000  Uiso   1.00
C438   C     0.47215   0.82496   0.45253   0.00000  Uiso   1.00
C439   C     0.57351   0.86259   0.02223   0.00000  Uiso   1.00
C440   C     0.42374   0.82023   0.47495   0.00000  Uiso   1.00
C441   C     0.62382   0.68817   0.25190   0.00000  Uiso   1.00
C442   C     0.37617   0.97849   0.24812   0.00000  Uiso   1.00
C443   C     0.62375   0.97893   0.25185   0.00000  Uiso   1.00
C444   C     0.37624   0.68774   0.24818   0.00000  Uiso   1.00
C445   C     0.66659   0.95724   0.24996   0.00000  Uiso   1.00
C446   C     0.33341   0.70942   0.25007   0.00000  Uiso   1.00
C447   C     0.51713   0.80857   0.27896   0.00000  Uiso   1.00
C448   C     0.48287   0.85810   0.22104   0.00000  Uiso   1.00
C449   C     0.46774   0.80844   0.27916   0.00000  Uiso   1.00
C450   C     0.53226   0.85824   0.22085   0.00000  Uiso   1.00
C451   C     0.63951   0.83369   0.33609   0.00000  Uiso   1.00
C452   C     0.36050   0.83330   0.16388   0.00000  Uiso   1.00
C453   C     0.62437   0.83739   0.38513   0.00000  Uiso   1.00
C454   C     0.37552   0.83244   0.11458   0.00000  Uiso   1.00
C455   C     0.63900   0.85959   0.45469   0.00000  Uiso   1.00
C456   C     0.35909   0.81909   0.04326   0.00000  Uiso   1.00
C457   C     0.65611   0.85159   0.40905   0.00000  Uiso   1.00
C458   C     0.34281   0.82296   0.08967   0.00000  Uiso   1.00
C459   C     0.57587   0.83016   0.40745   0.00000  Uiso   1.00
C460   C     0.42420   0.83939   0.09252   0.00000  Uiso   1.00
C461   C     0.55717   0.83954   0.45308   0.00000  Uiso   1.00
C462   C     0.44149   0.83647   0.04560   0.00000  Uiso   1.00
C463   C     0.58996   0.85377   0.47681   0.00000  Uiso   1.00
C464   C     0.40805   0.82537   0.02115   0.00000  Uiso   1.00
C465   C     0.50704   0.83543   0.47559   0.00000  Uiso   1.00
C466   C     0.49112   0.84296   0.02258   0.00000  Uiso   1.00
Cu467  Cu    0.38022   0.83334   0.25000   0.00000  Uiso   1.00
Cu468  Cu    0.61978   0.83333   0.25000   0.00000  Uiso   1.00
H469   H     0.44817   0.84587   0.11307   0.00000  Uiso   1.00
H470   H     0.55349   0.81723   0.38813   0.00000  Uiso   1.00
H471   H     0.63837   0.81736   0.10611   0.00000  Uiso   1.00
H472   H     0.36039   0.85756   0.39230   0.00000  Uiso   1.00
H473   H     0.66394   0.87121   0.47252   0.00000  Uiso   1.00
H474   H     0.33349   0.81042   0.02473   0.00000  Uiso   1.00
H475   H     0.51583   0.86566   0.07961   0.00000  Uiso   1.00
H476   H     0.48062   0.82094   0.41676   0.00000  Uiso   1.00
H477   H     0.59028   0.70434   0.25345   0.00000  Uiso   1.00
H478   H     0.40971   0.96232   0.24657   0.00000  Uiso   1.00
H479   H     0.59019   0.96309   0.25338   0.00000  Uiso   1.00
H480   H     0.40980   0.70357   0.24665   0.00000  Uiso   1.00
N481   N     0.45069   0.83334   0.24999   0.00000  Uiso   1.00
N482   N     0.54931   0.83332   0.25001   0.00000  Uiso   1.00
O483   O     0.37291   0.77322   0.25000   0.00000  Uiso   1.00
O484   O     0.62709   0.89345   0.25000   0.00000  Uiso   1.00
O485   O     0.62706   0.77321   0.25000   0.00000  Uiso   1.00
O486   O     0.37294   0.89346   0.25000   0.00000  Uiso   1.00
O487   O     0.35186   0.83334   0.31492   0.00000  Uiso   1.00
O488   O     0.64814   0.83332   0.18508   0.00000  Uiso   1.00
O489   O     0.60600   0.83333   0.31492   0.00000  Uiso   1.00
O490   O     0.39400   0.83333   0.18508   0.00000  Uiso   1.00
H491   H     0.59822   0.87383   0.04058   0.00000  Uiso   1.00
H492   H     0.39842   0.81201   0.45589   0.00000  Uiso   1.00
H493   H     0.52968   0.78872   0.30206   0.00000  Uiso   1.00
H494   H     0.47032   0.87796   0.19795   0.00000  Uiso   1.00
Br495  Br    0.42677   0.77196   0.32169   0.00000  Uiso   1.00
Br496  Br    0.57321   0.89476   0.17836   0.00000  Uiso   1.00
C497   C     0.66672   0.75406   0.25005   0.00000  Uiso   1.00
C498   C     0.99994   0.91261   0.24996   0.00000  Uiso   1.00
C499   C     0.85857   0.85721   0.04481   0.00000  Uiso   1.00
C500   C     0.80548   0.82496   0.45253   0.00000  Uiso   1.00
C501   C     0.90684   0.86259   0.02223   0.00000  Uiso   1.00
C502   C     0.75707   0.82023   0.47495   0.00000  Uiso   1.00
C503   C     0.95716   0.68817   0.25190   0.00000  Uiso   1.00
C504   C     0.70950   0.97849   0.24812   0.00000  Uiso   1.00
C505   C     0.95708   0.97893   0.25185   0.00000  Uiso   1.00
C506   C     0.70958   0.68774   0.24818   0.00000  Uiso   1.00
C507   C     0.99992   0.95724   0.24996   0.00000  Uiso   1.00
C508   C     0.66674   0.70942   0.25007   0.00000  Uiso   1.00
C509   C     0.85046   0.80857   0.27896   0.00000  Uiso   1.00
C510   C     0.81620   0.85810   0.22104   0.00000  Uiso   1.00
C511   C     0.80107   0.80844   0.27916   0.00000  Uiso   1.00
C512   C     0.86559   0.85824   0.22085   0.00000  Uiso   1.00
C513   C     0.97284   0.83369   0.33609   0.00000  Uiso   1.00
C514   C     0.69383   0.83330   0.16388   0.00000  Uiso   1.00
C515   C     0.95770   0.83739   0.38513   0.00000  Uiso   1.00
C516   C     0.70885   0.83244   0.11458   0.00000  Uiso   1.00
C517   C     0.97233   0.85959   0.45469   0.00000  Uiso   1.00
C518   C     0.69242   0.81909   0.04326   0.00000  Uiso   1.00
C519   C     0.98944   0.85159   0.40905   0.00000  Uiso   1.00
C520   C     0.67614   0.82296   0.08967   0.00000  Uiso   1.00
C521   C     0.90920   0.83016   0.40745   0.00000  Uiso   1.00
C522   C     0.75753   0.83939   0.09252   0.00000  Uiso   1.00
C523   C     0.89050   0.83954   0.45308   0.00000  Uiso   1.00
C524   C     0.77482   0.83647   0.04560   0.00000  Uiso   1.00
C525   C     0.92329   0.85377   0.47681   0.00000  Uiso   1.00
C526   C     0.74138   0.82537   0.02115   0.00000  Uiso   1.00
C527   C     0.84037   0.83543   0.47559   0.00000  Uiso   1.00
C528   C     0.82446   0.84296   0.02258   0.00000  Uiso   1.00
Cu529  Cu    0.71355   0.83334   0.25000   0.00000  Uiso   1.00
Cu530  Cu    0.95311   0.83333   0.25000   0.00000  Uiso   1.00
H531   H     0.78151   0.84587   0.11307   0.00000  Uiso   1.00
H532   H     0.88682   0.81723   0.38813   0.00000  Uiso   1.00
H533   H     0.97171   0.81736   0.10611   0.00000  Uiso   1.00
H534   H     0.69372   0.85756   0.39230   0.00000  Uiso   1.00
H535   H     0.99728   0.87121   0.47252   0.00000  Uiso   1.00
H536   H     0.66682   0.81042   0.02473   0.00000  Uiso   1.00
H537   H     0.84916   0.86566   0.07961   0.00000  Uiso   1.00
H538   H     0.81396   0.82094   0.41676   0.00000  Uiso   1.00
H539   H     0.92361   0.70434   0.25345   0.00000  Uiso   1.00
H540   H     0.74305   0.96232   0.24657   0.00000  Uiso   1.00
H541   H     0.92353   0.96309   0.25338   0.00000  Uiso   1.00
H542   H     0.74313   0.70357   0.24665   0.00000  Uiso   1.00
N543   N     0.78403   0.83334   0.24999   0.00000  Uiso   1.00
N544   N     0.88264   0.83332   0.25001   0.00000  Uiso   1.00
O545   O     0.70625   0.77322   0.25000   0.00000  Uiso   1.00
O546   O     0.96042   0.89345   0.25000   0.00000  Uiso   1.00
O547   O     0.96039   0.77321   0.25000   0.00000  Uiso   1.00
O548   O     0.70628   0.89346   0.25000   0.00000  Uiso   1.00
O549   O     0.68519   0.83334   0.31492   0.00000  Uiso   1.00
O550   O     0.98148   0.83332   0.18508   0.00000  Uiso   1.00
O551   O     0.93933   0.83333   0.31492   0.00000  Uiso   1.00
O552   O     0.72733   0.83333   0.18508   0.00000  Uiso   1.00
H553   H     0.93155   0.87383   0.04058   0.00000  Uiso   1.00
H554   H     0.73175   0.81201   0.45589   0.00000  Uiso   1.00
H555   H     0.86301   0.78872   0.30206   0.00000  Uiso   1.00
H556   H     0.80365   0.87796   0.19795   0.00000  Uiso   1.00
Br557  Br    0.76010   0.77196   0.32169   0.00000  Uiso   1.00
Br558  Br    0.90655   0.89476   0.17836   0.00000  Uiso   1.00
C559   C     0.00005   0.08739   0.75005   0.00000  Uiso   1.00
C560   C     0.33328   0.24594   0.74996   0.00000  Uiso   1.00
C561   C     0.19190   0.19054   0.54481   0.00000  Uiso   1.00
C562   C     0.13882   0.15830   0.95253   0.00000  Uiso   1.00
C563   C     0.24018   0.19593   0.52223   0.00000  Uiso   1.00
C564   C     0.09040   0.15357   0.97495   0.00000  Uiso   1.00
C565   C     0.29049   0.02150   0.75190   0.00000  Uiso   1.00
C566   C     0.04284   0.31183   0.74812   0.00000  Uiso   1.00
C567   C     0.29042   0.31226   0.75185   0.00000  Uiso   1.00
C568   C     0.04291   0.02107   0.74818   0.00000  Uiso   1.00
C569   C     0.33325   0.29058   0.74996   0.00000  Uiso   1.00
C570   C     0.00008   0.04276   0.75007   0.00000  Uiso   1.00
C571   C     0.18380   0.14190   0.77896   0.00000  Uiso   1.00
C572   C     0.14953   0.19144   0.72104   0.00000  Uiso   1.00
C573   C     0.13441   0.14177   0.77916   0.00000  Uiso   1.00
C574   C     0.19892   0.19157   0.72085   0.00000  Uiso   1.00
C575   C     0.30618   0.16703   0.83609   0.00000  Uiso   1.00
C576   C     0.02716   0.16664   0.66388   0.00000  Uiso   1.00
C577   C     0.29104   0.17073   0.88513   0.00000  Uiso   1.00
C578   C     0.04219   0.16577   0.61458   0.00000  Uiso   1.00
C579   C     0.30567   0.19292   0.95469   0.00000  Uiso   1.00
C580   C     0.02575   0.15242   0.54326   0.00000  Uiso   1.00
C581   C     0.32278   0.18492   0.90905   0.00000  Uiso   1.00
C582   C     0.00948   0.15630   0.58967   0.00000  Uiso   1.00
C583   C     0.24253   0.16350   0.90745   0.00000  Uiso   1.00
C584   C     0.09087   0.17273   0.59252   0.00000  Uiso   1.00
C585   C     0.22384   0.17287   0.95308   0.00000  Uiso   1.00
C586   C     0.10816   0.16980   0.54560   0.00000  Uiso   1.00
C587   C     0.25662   0.18711   0.97681   0.00000  Uiso   1.00
C588   C     0.07471   0.15870   0.52115   0.00000  Uiso   1.00
C589   C     0.17371   0.16876   0.97559   0.00000  Uiso   1.00
C590   C     0.15779   0.17630   0.52258   0.00000  Uiso   1.00
Cu591  Cu    0.04689   0.16667   0.75000   0.00000  Uiso   1.00
Cu592  Cu    0.28645   0.16666   0.75000   0.00000  Uiso   1.00
H593   H     0.11484   0.17920   0.61307   0.00000  Uiso   1.00
H594   H     0.22016   0.15057   0.88813   0.00000  Uiso   1.00
H595   H     0.30504   0.15069   0.60611   0.00000  Uiso   1.00
H596   H     0.02705   0.19089   0.89230   0.00000  Uiso   1.00
H597   H     0.33061   0.20455   0.97252   0.00000  Uiso   1.00
H598   H     0.00016   0.14375   0.52473   0.00000  Uiso   1.00
H599   H     0.18250   0.19899   0.57961   0.00000  Uiso   1.00
H600   H     0.14729   0.15427   0.91676   0.00000  Uiso   1.00
H601   H     0.25695   0.03768   0.75345   0.00000  Uiso   1.00
H602   H     0.07638   0.29565   0.74657   0.00000  Uiso   1.00
H603   H     0.25686   0.29643   0.75338   0.00000  Uiso   1.00
H604   H     0.07647   0.03690   0.74665   0.00000  Uiso   1.00
N605   N     0.11736   0.16668   0.74999   0.00000  Uiso   1.00
N606   N     0.21597   0.16666   0.75001   0.00000  Uiso   1.00
O607   O     0.03958   0.10655   0.75000   0.00000  Uiso   1.00
O608   O     0.29375   0.22678   0.75000   0.00000  Uiso   1.00
O609   O     0.29372   0.10654   0.75000   0.00000  Uiso   1.00
O610   O     0.03961   0.22679   0.75000   0.00000  Uiso   1.00
O611   O     0.01852   0.16668   0.81492   0.00000  Uiso   1.00
O612   O     0.31481   0.16666   0.68508   0.00000  Uiso   1.00
O613   O     0.27267   0.16667   0.81492   0.00000  Uiso   1.00
O614   O     0.06067   0.16667   0.68508   0.00000  Uiso   1.00
H615   H     0.26488   0.20716   0.54058   0.00000  Uiso   1.00
H616   H     0.06509   0.14534   0.95589   0.00000  Uiso   1.00
H617   H     0.19635   0.12205   0.80206   0.00000  Uiso   1.00
H618   H     0.13698   0.21129   0.69795   0.00000  Uiso   1.00
Br619  Br    0.09343   0.10529   0.82169   0.00000  Uiso   1.00
Br620  Br    0.23988   0.22810   0.67836   0.00000  Uiso   1.00
C621   C     0.33339   0.08739   0.75005   0.00000  Uiso   1.00
C622   C     0.66661   0.24594   0.74996   0.00000  Uiso   1.00
C623   C     0.52523   0.19054   0.54481   0.00000  Uiso   1.00
C624   C     0.47215   0.15830   0.95253   0.00000  Uiso   1.00
C625   C     0.57351   0.19593   0.52223   0.00000  Uiso   1.00
C626   C     0.42374   0.15357   0.97495   0.00000  Uiso   1.00
C627   C     0.62382   0.02150   0.75190   0.00000  Uiso   1.00
C628   C     0.37617   0.31183   0.74812   0.00000  Uiso   1.00
C629   C     0.62375   0.31226   0.75185   0.00000  Uiso   1.00
C630   C     0.37624   0.02107   0.74818   0.00000  Uiso   1.00
C631   C     0.66659   0.29058   0.74996   0.00000  Uiso   1.00
C632   C     0.33341   0.04276   0.75007   0.00000  Uiso   1.00
C633   C     0.51713   0.14190   0.77896   0.00000  Uiso   1.00
C634   C     0.48287   0.19144   0.72104   0.00000  Uiso   1.00
C635   C     0.46774   0.14177   0.77916   0.00000  Uiso   1.00
C636   C     0.53226   0.19157   0.72085   0.00000  Uiso   1.00
C637   C     0.63951   0.16703   0.83609   0.00000  Uiso   1.00
C638   C     0.36050   0.16664   0.66388   0.00000  Uiso   1.00
C639   C     0.62437   0.17073   0.88513   0.00000  Uiso   1.00
C640   C     0.37552   0.16577   0.61458   0.00000  Uiso   1.00
C641   C     0.63900   0.19292   0.95469   0.00000  Uiso   1.00
C642   C     0.35909   0.15242   0.54326   0.00000  Uiso   1.00
C643   C     0.65611   0.18492   0.90905   0.00000  Uiso   1.00
C644   C     0.34281   0.15630   0.58967   0.00000  Uiso   1.00
C645   C     0.57587   0.16350   0.90745   0.00000  Uiso   1.00
C646   C     0.42420   0.17273   0.59252   0.00000  Uiso   1.00
C647   C     0.55717   0.17287   0.95308   0.00000  Uiso   1.00
C648   C     0.44149   0.16980   0.54560   0.00000  Uiso   1.00
C649   C     0.58996   0.18711   0.97681   0.00000  Uiso   1.00
C650   C     0.40805   0.15870   0.52115   0.00000  Uiso   1.00
C651   C     0.50704   0.16876   0.97559   0.00000  Uiso   1.00
C652   C     0.49112   0.17630   0.52258   0.00000  Uiso   1.00
Cu653  Cu    0.38022   0.16667   0.75000   0.00000  Uiso   1.00
Cu654  Cu    0.61978   0.16666   0.75000   0.00000  Uiso   1.00
H655   H     0.44817   0.17920   0.61307   0.00000  Uiso   1.00
H656   H     0.55349   0.15057   0.88813   0.00000  Uiso   1.00
H657   H     0.63837   0.15069   0.60611   0.00000  Uiso   1.00
H658   H     0.36039   0.19089   0.89230   0.00000  Uiso   1.00
H659   H     0.66394   0.20455   0.97252   0.00000  Uiso   1.00
H660   H     0.33349   0.14375   0.52473   0.00000  Uiso   1.00
H661   H     0.51583   0.19899   0.57961   0.00000  Uiso   1.00
H662   H     0.48062   0.15427   0.91676   0.00000  Uiso   1.00
H663   H     0.59028   0.03768   0.75345   0.00000  Uiso   1.00
H664   H     0.40971   0.29565   0.74657   0.00000  Uiso   1.00
H665   H     0.59019   0.29643   0.75338   0.00000  Uiso   1.00
H666   H     0.40980   0.03690   0.74665   0.00000  Uiso   1.00
N667   N     0.45069   0.16668   0.74999   0.00000  Uiso   1.00
N668   N     0.54931   0.16666   0.75001   0.00000  Uiso   1.00
O669   O     0.37291   0.10655   0.75000   0.00000  Uiso   1.00
O670   O     0.62709   0.22678   0.75000   0.00000  Uiso   1.00
O671   O     0.62706   0.10654   0.75000   0.00000  Uiso   1.00
O672   O     0.37294   0.22679   0.75000   0.00000  Uiso   1.00
O673   O     0.35186   0.16668   0.81492   0.00000  Uiso   1.00
O674   O     0.64814   0.16666   0.68508   0.00000  Uiso   1.00
O675   O     0.60600   0.16667   0.81492   0.00000  Uiso   1.00
O676   O     0.39400   0.16667   0.68508   0.00000  Uiso   1.00
H677   H     0.59822   0.20716   0.54058   0.00000  Uiso   1.00
H678   H     0.39842   0.14534   0.95589   0.00000  Uiso   1.00
H679   H     0.52968   0.12205   0.80206   0.00000  Uiso   1.00
H680   H     0.47032   0.21129   0.69795   0.00000  Uiso   1.00
Br681  Br    0.42677   0.10529   0.82169   0.00000  Uiso   1.00
Br682  Br    0.57321   0.22810   0.67836   0.00000  Uiso   1.00
C683   C     0.66672   0.08739   0.75005   0.00000  Uiso   1.00
C684   C     0.99994   0.24594   0.74996   0.00000  Uiso   1.00
C685   C     0.85857   0.19054   0.54481   0.00000  Uiso   1.00
C686   C     0.80548   0.15830   0.95253   0.00000  Uiso   1.00
C687   C     0.90684   0.19593   0.52223   0.00000  Uiso   1.00
C688   C     0.75707   0.15357   0.97495   0.00000  Uiso   1.00
C689   C     0.95716   0.02150   0.75190   0.00000  Uiso   1.00
C690   C     0.70950   0.31183   0.74812   0.00000  Uiso   1.00
C691   C     0.95708   0.31226   0.75185   0.00000  Uiso   1.00
C692   C     0.70958   0.02107   0.74818   0.00000  Uiso   1.00
C693   C     0.99992   0.29058   0.74996   0.00000  Uiso   1.00
C694   C     0.66674   0.04276   0.75007   0.00000  Uiso   1.00
C695   C     0.85046   0.14190   0.77896   0.00000  Uiso   1.00
C696   C     0.81620   0.19144   0.72104   0.00000  Uiso   1.00
C697   C     0.80107   0.14177   0.77916   0.00000  Uiso   1.00
C698   C     0.86559   0.19157   0.72085   0.00000  Uiso   1.00
C699   C     0.97284   0.16703   0.83609   0.00000  Uiso   1.00
C700   C     0.69383   0.16664   0.66388   0.00000  Uiso   1.00
C701   C     0.95770   0.17073   0.88513   0.00000  Uiso   1.00
C702   C     0.70885   0.16577   0.61458   0.00000  Uiso   1.00
C703   C     0.97233   0.19292   0.95469   0.00000  Uiso   1.00
C704   C     0.69242   0.15242   0.54326   0.00000  Uiso   1.00
C705   C     0.98944   0.18492   0.90905   0.00000  Uiso   1.00
C706   C     0.67614   0.15630   0.58967   0.00000  Uiso   1.00
C707   C     0.90920   0.16350   0.90745   0.00000  Uiso   1.00
C708   C     0.75753   0.17273   0.59252   0.00000  Uiso   1.00
C709   C     0.89050   0.17287   0.95308   0.00000  Uiso   1.00
C710   C     0.77482   0.16980   0.54560   0.00000  Uiso   1.00
C711   C     0.92329   0.18711   0.97681   0.00000  Uiso   1.00
C712   C     0.74138   0.15870   0.52115   0.00000  Uiso   1.00
C713   C     0.84037   0.16876   0.97559   0.00000  Uiso   1.00
C714   C     0.82446   0.17630   0.52258   0.00000  Uiso   1.00
Cu715  Cu    0.71355   0.16667   0.75000   0.00000  Uiso   1.00
Cu716  Cu    0.95311   0.16666   0.75000   0.00000  Uiso   1.00
H717   H     0.78151   0.17920   0.61307   0.00000  Uiso   1.00
H718   H     0.88682   0.15057   0.88813   0.00000  Uiso   1.00
H719   H     0.97171   0.15069   0.60611   0.00000  Uiso   1.00
H720   H     0.69372   0.19089   0.89230   0.00000  Uiso   1.00
H721   H     0.99728   0.20455   0.97252   0.00000  Uiso   1.00
H722   H     0.66682   0.14375   0.52473   0.00000  Uiso   1.00
H723   H     0.84916   0.19899   0.57961   0.00000  Uiso   1.00
H724   H     0.81396   0.15427   0.91676   0.00000  Uiso   1.00
H725   H     0.92361   0.03768   0.75345   0.00000  Uiso   1.00
H726   H     0.74305   0.29565   0.74657   0.00000  Uiso   1.00
H727   H     0.92353   0.29643   0.75338   0.00000  Uiso   1.00
H728   H     0.74313   0.03690   0.74665   0.00000  Uiso   1.00
N729   N     0.78403   0.16668   0.74999   0.00000  Uiso   1.00
N730   N     0.88264   0.16666   0.75001   0.00000  Uiso   1.00
O731   O     0.70625   0.10655   0.75000   0.00000  Uiso   1.00
O732   O     0.96042   0.22678   0.75000   0.00000  Uiso   1.00
O733   O     0.96039   0.10654   0.75000   0.00000  Uiso   1.00
O734   O     0.70628   0.22679   0.75000   0.00000  Uiso   1.00
O735   O     0.68519   0.16668   0.81492   0.00000  Uiso   1.00
O736   O     0.98148   0.16666   0.68508   0.00000  Uiso   1.00
O737   O     0.93933   0.16667   0.81492   0.00000  Uiso   1.00
O738   O     0.72733   0.16667   0.68508   0.00000  Uiso   1.00
H739   H     0.93155   0.20716   0.54058   0.00000  Uiso   1.00
H740   H     0.73175   0.14534   0.95589   0.00000  Uiso   1.00
H741   H     0.86301   0.12205   0.80206   0.00000  Uiso   1.00
H742   H     0.80365   0.21129   0.69795   0.00000  Uiso   1.00
Br743  Br    0.76010   0.10529   0.82169   0.00000  Uiso   1.00
Br744  Br    0.90655   0.22810   0.67836   0.00000  Uiso   1.00
C745   C     0.00005   0.42073   0.75005   0.00000  Uiso   1.00
C746   C     0.33328   0.57927   0.74996   0.00000  Uiso   1.00
C747   C     0.19190   0.52388   0.54481   0.00000  Uiso   1.00
C748   C     0.13882   0.49163   0.95253   0.00000  Uiso   1.00
C749   C     0.24018   0.52926   0.52223   0.00000  Uiso   1.00
C750   C     0.09040   0.48690   0.97495   0.00000  Uiso   1.00
C751   C     0.29049   0.35484   0.75190   0.00000  Uiso   1.00
C752   C     0.04284   0.64516   0.74812   0.00000  Uiso   1.00
C753   C     0.29042   0.64559   0.75185   0.00000  Uiso   1.00
C754   C     0.04291   0.35441   0.74818   0.00000  Uiso   1.00
C755   C     0.33325   0.62391   0.74996   0.00000  Uiso   1.00
C756   C     0.00008   0.37609   0.75007   0.00000  Uiso   1.00
C757   C     0.18380   0.47524   0.77896   0.00000  Uiso   1.00
C758   C     0.14953   0.52477   0.72104   0.00000  Uiso   1.00
C759   C     0.13441   0.47510   0.77916   0.00000  Uiso   1.00
C760   C     0.19892   0.52491   0.72085   0.00000  Uiso   1.00
C761   C     0.30618   0.50036   0.83609   0.00000  Uiso   1.00
C762   C     0.02716   0.49997   0.66388   0.00000  Uiso   1.00
C763   C     0.29104   0.50406   0.88513   0.00000  Uiso   1.00
C764   C     0.04219   0.49911   0.61458   0.00000  Uiso   1.00
C765   C     0.30567   0.52625   0.95469   0.00000  Uiso   1.00
C766   C     0.02575   0.48575   0.54326   0.00000  Uiso   1.00
C767   C     0.32278   0.51825   0.90905   0.00000  Uiso   1.00
C768   C     0.00948   0.48963   0.58967   0.00000  Uiso   1.00
C769   C     0.24253   0.49683   0.90745   0.00000  Uiso   1.00
C770   C     0.09087   0.50606   0.59252   0.00000  Uiso   1.00
C771   C     0.22384   0.50620   0.95308   0.00000  Uiso   1.00
C772   C     0.10816   0.50313   0.54560   0.00000  Uiso   1.00
C773   C     0.25662   0.52044   0.97681   0.00000  Uiso   1.00
C774   C     0.07471   0.49204   0.52115   0.00000  Uiso   1.00
C775   C     0.17371   0.50209   0.97559   0.00000  Uiso   1.00
C776   C     0.15779   0.50963   0.52258   0.00000  Uiso   1.00
Cu777  Cu    0.04689   0.50001   0.75000   0.00000  Uiso   1.00
Cu778  Cu    0.28645   0.49999   0.75000   0.00000  Uiso   1.00
H779   H     0.11484   0.51253   0.61307   0.00000  Uiso   1.00
H780   H     0.22016   0.48390   0.88813   0.00000  Uiso   1.00
H781   H     0.30504   0.48402   0.60611   0.00000  Uiso   1.00
H782   H     0.02705   0.52422   0.89230   0.00000  Uiso   1.00
H783   H     0.33061   0.53788   0.97252   0.00000  Uiso   1.00
H784   H     0.00016   0.47708   0.52473   0.00000  Uiso   1.00
H785   H     0.18250   0.53232   0.57961   0.00000  Uiso   1.00
H786   H     0.14729   0.48761   0.91676   0.00000  Uiso   1.00
H787   H     0.25695   0.37101   0.75345   0.00000  Uiso   1.00
H788   H     0.07638   0.62899   0.74657   0.00000  Uiso   1.00
H789   H     0.25686   0.62976   0.75338   0.00000  Uiso   1.00
H790   H     0.07647   0.37024   0.74665   0.00000  Uiso   1.00
N791   N     0.11736   0.50001   0.74999   0.00000  Uiso   1.00
N792   N     0.21597   0.49999   0.75001   0.00000  Uiso   1.00
O793   O     0.03958   0.43989   0.75000   0.00000  Uiso   1.00
O794   O     0.29375   0.56011   0.75000   0.00000  Uiso   1.00
O795   O     0.29372   0.43988   0.75000   0.00000  Uiso   1.00
O796   O     0.03961   0.56012   0.75000   0.00000  Uiso   1.00
O797   O     0.01852   0.50001   0.81492   0.00000  Uiso   1.00
O798   O     0.31481   0.49999   0.68508   0.00000  Uiso   1.00
O799   O     0.27267   0.50000   0.81492   0.00000  Uiso   1.00
O800   O     0.06067   0.50000   0.68508   0.00000  Uiso   1.00
H801   H     0.26488   0.54050   0.54058   0.00000  Uiso   1.00
H802   H     0.06509   0.47868   0.95589   0.00000  Uiso   1.00
H803   H     0.19635   0.45538   0.80206   0.00000  Uiso   1.00
H804   H     0.13698   0.54463   0.69795   0.00000  Uiso   1.00
Br805  Br    0.09343   0.43862   0.82169   0.00000  Uiso   1.00
Br806  Br    0.23988   0.56143   0.67836   0.00000  Uiso   1.00
C807   C     0.33339   0.42073   0.75005   0.00000  Uiso   1.00
C808   C     0.66661   0.57927   0.74996   0.00000  Uiso   1.00
C809   C     0.52523   0.52388   0.54481   0.00000  Uiso   1.00
C810   C     0.47215   0.49163   0.95253   0.00000  Uiso   1.00
C811   C     0.57351   0.52926   0.52223   0.00000  Uiso   1.00
C812   C     0.42374   0.48690   0.97495   0.00000  Uiso   1.00
C813   C     0.62382   0.35484   0.75190   0.00000  Uiso   1.00
C814   C     0.37617   0.64516   0.74812   0.00000  Uiso   1.00
C815   C     0.62375   0.64559   0.75185   0.00000  Uiso   1.00
C816   C     0.37624   0.35441   0.74818   0.00000  Uiso   1.00
C817   C     0.66659   0.62391   0.74996   0.00000  Uiso   1.00
C818   C     0.33341   0.37609   0.75007   0.00000  Uiso   1.00
C819   C     0.51713   0.47524   0.77896   0.00000  Uiso   1.00
C820   C     0.48287   0.52477   0.72104   0.00000  Uiso   1.00
C821   C     0.46774   0.47510   0.77916   0.00000  Uiso   1.00
C822   C     0.53226   0.52491   0.72085   0.00000  Uiso   1.00
C823   C     0.63951   0.50036   0.83609   0.00000  Uiso   1.00
C824   C     0.36050   0.49997   0.66388   0.00000  Uiso   1.00
C825   C     0.62437   0.50406   0.88513   0.00000  Uiso   1.00
C826   C     0.37552   0.49911   0.61458   0.00000  Uiso   1.00
C827   C     0.63900   0.52625   0.95469   0.00000  Uiso   1.00
C828   C     0.35909   0.48575   0.54326   0.00000  Uiso   1.00
C829   C     0.65611   0.51825   0.90905   0.00000  Uiso   1.00
C830   C     0.34281   0.48963   0.58967   0.00000  Uiso   1.00
C831   C     0.57587   0.49683   0.90745   0.00000  Uiso   1.00
C832   C     0.42420   0.50606   0.59252   0.00000  Uiso   1.00
C833   C     0.55717   0.50620   0.95308   0.00000  Uiso   1.00
C834   C     0.44149   0.50313   0.54560   0.00000  Uiso   1.00
C835   C     0.58996   0.52044   0.97681   0.00000  Uiso   1.00
C836   C     0.40805   0.49204   0.52115   0.00000  Uiso   1.00
C837   C     0.50704   0.50209   0.97559   0.00000  Uiso   1.00
C838   C     0.49112   0.50963   0.52258   0.00000  Uiso   1.00
Cu839  Cu    0.38022   0.50001   0.75000   0.00000  Uiso   1.00
Cu840  Cu    0.61978   0.49999   0.75000   0.00000  Uiso   1.00
H841   H     0.44817   0.51253   0.61307   0.00000  Uiso   1.00
H842   H     0.55349   0.48390   0.88813   0.00000  Uiso   1.00
H843   H     0.63837   0.48402   0.60611   0.00000  Uiso   1.00
H844   H     0.36039   0.52422   0.89230   0.00000  Uiso   1.00
H845   H     0.66394   0.53788   0.97252   0.00000  Uiso   1.00
H846   H     0.33349   0.47708   0.52473   0.00000  Uiso   1.00
H847   H     0.51583   0.53232   0.57961   0.00000  Uiso   1.00
H848   H     0.48062   0.48761   0.91676   0.00000  Uiso   1.00
H849   H     0.59028   0.37101   0.75345   0.00000  Uiso   1.00
H850   H     0.40971   0.62899   0.74657   0.00000  Uiso   1.00
H851   H     0.59019   0.62976   0.75338   0.00000  Uiso   1.00
H852   H     0.40980   0.37024   0.74665   0.00000  Uiso   1.00
N853   N     0.45069   0.50001   0.74999   0.00000  Uiso   1.00
N854   N     0.54931   0.49999   0.75001   0.00000  Uiso   1.00
O855   O     0.37291   0.43989   0.75000   0.00000  Uiso   1.00
O856   O     0.62709   0.56011   0.75000   0.00000  Uiso   1.00
O857   O     0.62706   0.43988   0.75000   0.00000  Uiso   1.00
O858   O     0.37294   0.56012   0.75000   0.00000  Uiso   1.00
O859   O     0.35186   0.50001   0.81492   0.00000  Uiso   1.00
O860   O     0.64814   0.49999   0.68508   0.00000  Uiso   1.00
O861   O     0.60600   0.50000   0.81492   0.00000  Uiso   1.00
O862   O     0.39400   0.50000   0.68508   0.00000  Uiso   1.00
H863   H     0.59822   0.54050   0.54058   0.00000  Uiso   1.00
H864   H     0.39842   0.47868   0.95589   0.00000  Uiso   1.00
H865   H     0.52968   0.45538   0.80206   0.00000  Uiso   1.00
H866   H     0.47032   0.54463   0.69795   0.00000  Uiso   1.00
Br867  Br    0.42677   0.43862   0.82169   0.00000  Uiso   1.00
Br868  Br    0.57321   0.56143   0.67836   0.00000  Uiso   1.00
C869   C     0.66672   0.42073   0.75005   0.00000  Uiso   1.00
C870   C     0.99994   0.57927   0.74996   0.00000  Uiso   1.00
C871   C     0.85857   0.52388   0.54481   0.00000  Uiso   1.00
C872   C     0.80548   0.49163   0.95253   0.00000  Uiso   1.00
C873   C     0.90684   0.52926   0.52223   0.00000  Uiso   1.00
C874   C     0.75707   0.48690   0.97495   0.00000  Uiso   1.00
C875   C     0.95716   0.35484   0.75190   0.00000  Uiso   1.00
C876   C     0.70950   0.64516   0.74812   0.00000  Uiso   1.00
C877   C     0.95708   0.64559   0.75185   0.00000  Uiso   1.00
C878   C     0.70958   0.35441   0.74818   0.00000  Uiso   1.00
C879   C     0.99992   0.62391   0.74996   0.00000  Uiso   1.00
C880   C     0.66674   0.37609   0.75007   0.00000  Uiso   1.00
C881   C     0.85046   0.47524   0.77896   0.00000  Uiso   1.00
C882   C     0.81620   0.52477   0.72104   0.00000  Uiso   1.00
C883   C     0.80107   0.47510   0.77916   0.00000  Uiso   1.00
C884   C     0.86559   0.52491   0.72085   0.00000  Uiso   1.00
C885   C     0.97284   0.50036   0.83609   0.00000  Uiso   1.00
C886   C     0.69383   0.49997   0.66388   0.00000  Uiso   1.00
C887   C     0.95770   0.50406   0.88513   0.00000  Uiso   1.00
C888   C     0.70885   0.49911   0.61458   0.00000  Uiso   1.00
C889   C     0.97233   0.52625   0.95469   0.00000  Uiso   1.00
C890   C     0.69242   0.48575   0.54326   0.00000  Uiso   1.00
C891   C     0.98944   0.51825   0.90905   0.00000  Uiso   1.00
C892   C     0.67614   0.48963   0.58967   0.00000  Uiso   1.00
C893   C     0.90920   0.49683   0.90745   0.00000  Uiso   1.00
C894   C     0.75753   0.50606   0.59252   0.00000  Uiso   1.00
C895   C     0.89050   0.50620   0.95308   0.00000  Uiso   1.00
C896   C     0.77482   0.50313   0.54560   0.00000  Uiso   1.00
C897   C     0.92329   0.52044   0.97681   0.00000  Uiso   1.00
C898   C     0.74138   0.49204   0.52115   0.00000  Uiso   1.00
C899   C     0.84037   0.50209   0.97559   0.00000  Uiso   1.00
C900   C     0.82446   0.50963   0.52258   0.00000  Uiso   1.00
Cu901  Cu    0.71355   0.50001   0.75000   0.00000  Uiso   1.00
Cu902  Cu    0.95311   0.49999   0.75000   0.00000  Uiso   1.00
H903   H     0.78151   0.51253   0.61307   0.00000  Uiso   1.00
H904   H     0.88682   0.48390   0.88813   0.00000  Uiso   1.00
H905   H     0.97171   0.48402   0.60611   0.00000  Uiso   1.00
H906   H     0.69372   0.52422   0.89230   0.00000  Uiso   1.00
H907   H     0.99728   0.53788   0.97252   0.00000  Uiso   1.00
H908   H     0.66682   0.47708   0.52473   0.00000  Uiso   1.00
H909   H     0.84916   0.53232   0.57961   0.00000  Uiso   1.00
H910   H     0.81396   0.48761   0.91676   0.00000  Uiso   1.00
H911   H     0.92361   0.37101   0.75345   0.00000  Uiso   1.00
H912   H     0.74305   0.62899   0.74657   0.00000  Uiso   1.00
H913   H     0.92353   0.62976   0.75338   0.00000  Uiso   1.00
H914   H     0.74313   0.37024   0.74665   0.00000  Uiso   1.00
N915   N     0.78403   0.50001   0.74999   0.00000  Uiso   1.00
N916   N     0.88264   0.49999   0.75001   0.00000  Uiso   1.00
O917   O     0.70625   0.43989   0.75000   0.00000  Uiso   1.00
O918   O     0.96042   0.56011   0.75000   0.00000  Uiso   1.00
O919   O     0.96039   0.43988   0.75000   0.00000  Uiso   1.00
O920   O     0.70628   0.56012   0.75000   0.00000  Uiso   1.00
O921   O     0.68519   0.50001   0.81492   0.00000  Uiso   1.00
O922   O     0.98148   0.49999   0.68508   0.00000  Uiso   1.00
O923   O     0.93933   0.50000   0.81492   0.00000  Uiso   1.00
O924   O     0.72733   0.50000   0.68508   0.00000  Uiso   1.00
H925   H     0.93155   0.54050   0.54058   0.00000  Uiso   1.00
H926   H     0.73175   0.47868   0.95589   0.00000  Uiso   1.00
H927   H     0.86301   0.45538   0.80206   0.00000  Uiso   1.00
H928   H     0.80365   0.54463   0.69795   0.00000  Uiso   1.00
Br929  Br    0.76010   0.43862   0.82169   0.00000  Uiso   1.00
Br930  Br    0.90655   0.56143   0.67836   0.00000  Uiso   1.00
C931   C     0.00005   0.75406   0.75005   0.00000  Uiso   1.00
C932   C     0.33328   0.91261   0.74996   0.00000  Uiso   1.00
C933   C     0.19190   0.85721   0.54481   0.00000  Uiso   1.00
C934   C     0.13882   0.82496   0.95253   0.00000  Uiso   1.00
C935   C     0.24018   0.86259   0.52223   0.00000  Uiso   1.00
C936   C     0.09040   0.82023   0.97495   0.00000  Uiso   1.00
C937   C     0.29049   0.68817   0.75190   0.00000  Uiso   1.00
C938   C     0.04284   0.97849   0.74812   0.00000  Uiso   1.00
C939   C     0.29042   0.97893   0.75185   0.00000  Uiso   1.00
C940   C     0.04291   0.68774   0.74818   0.00000  Uiso   1.00
C941   C     0.33325   0.95724   0.74996   0.00000  Uiso   1.00
C942   C     0.00008   0.70942   0.75007   0.00000  Uiso   1.00
C943   C     0.18380   0.80857   0.77896   0.00000  Uiso   1.00
C944   C     0.14953   0.85810   0.72104   0.00000  Uiso   1.00
C945   C     0.13441   0.80844   0.77916   0.00000  Uiso   1.00
C946   C     0.19892   0.85824   0.72085   0.00000  Uiso   1.00
C947   C     0.30618   0.83369   0.83609   0.00000  Uiso   1.00
C948   C     0.02716   0.83330   0.66388   0.00000  Uiso   1.00
C949   C     0.29104   0.83739   0.88513   0.00000  Uiso   1.00
C950   C     0.04219   0.83244   0.61458   0.00000  Uiso   1.00
C951   C     0.30567   0.85959   0.95469   0.00000  Uiso   1.00
C952   C     0.02575   0.81909   0.54326   0.00000  Uiso   1.00
C953   C     0.32278   0.85159   0.90905   0.00000  Uiso   1.00
C954   C     0.00948   0.82296   0.58967   0.00000  Uiso   1.00
C955   C     0.24253   0.83016   0.90745   0.00000  Uiso   1.00
C956   C     0.09087   0.83939   0.59252   0.00000  Uiso   1.00
C957   C     0.22384   0.83954   0.95308   0.00000  Uiso   1.00
C958   C     0.10816   0.83647   0.54560   0.00000  Uiso   1.00
C959   C     0.25662   0.85377   0.97681   0.00000  Uiso   1.00
C960   C     0.07471   0.82537   0.52115   0.00000  Uiso   1.00
C961   C     0.17371   0.83543   0.97559   0.00000  Uiso   1.00
C962   C     0.15779   0.84296   0.52258   0.00000  Uiso   1.00
Cu963  Cu    0.04689   0.83334   0.75000   0.00000  Uiso   1.00
Cu964  Cu    0.28645   0.83333   0.75000   0.00000  Uiso   1.00
H965   H     0.11484   0.84587   0.61307   0.00000  Uiso   1.00
H966   H     0.22016   0.81723   0.88813   0.00000  Uiso   1.00
H967   H     0.30504   0.81736   0.60611   0.00000  Uiso   1.00
H968   H     0.02705   0.85756   0.89230   0.00000  Uiso   1.00
H969   H     0.33061   0.87121   0.97252   0.00000  Uiso   1.00
H970   H     0.00016   0.81042   0.52473   0.00000  Uiso   1.00
H971   H     0.18250   0.86566   0.57961   0.00000  Uiso   1.00
H972   H     0.14729   0.82094   0.91676   0.00000  Uiso   1.00
H973   H     0.25695   0.70434   0.75345   0.00000  Uiso   1.00
H974   H     0.07638   0.96232   0.74657   0.00000  Uiso   1.00
H975   H     0.25686   0.96309   0.75338   0.00000  Uiso   1.00
H976   H     0.07647   0.70357   0.74665   0.00000  Uiso   1.00
N977   N     0.11736   0.83334   0.74999   0.00000  Uiso   1.00
N978   N     0.21597   0.83332   0.75001   0.00000  Uiso   1.00
O979   O     0.03958   0.77322   0.75000   0.00000  Uiso   1.00
O980   O     0.29375   0.89345   0.75000   0.00000  Uiso   1.00
O981   O     0.29372   0.77321   0.75000   0.00000  Uiso   1.00
O982   O     0.03961   0.89346   0.75000   0.00000  Uiso   1.00
O983   O     0.01852   0.83334   0.81492   0.00000  Uiso   1.00
O984   O     0.31481   0.83332   0.68508   0.00000  Uiso   1.00
O985   O     0.27267   0.83333   0.81492   0.00000  Uiso   1.00
O986   O     0.06067   0.83333   0.68508   0.00000  Uiso   1.00
H987   H     0.26488   0.87383   0.54058   0.00000  Uiso   1.00
H988   H     0.06509   0.81201   0.95589   0.00000  Uiso   1.00
H989   H     0.19635   0.78872   0.80206   0.00000  Uiso   1.00
H990   H     0.13698   0.87796   0.69795   0.00000  Uiso   1.00
Br991  Br    0.09343   0.77196   0.82169   0.00000  Uiso   1.00
Br992  Br    0.23988   0.89476   0.67836   0.00000  Uiso   1.00
C993   C     0.33339   0.75406   0.75005   0.00000  Uiso   1.00
C994   C     0.66661   0.91261   0.74996   0.00000  Uiso   1.00
C995   C     0.52523   0.85721   0.54481   0.00000  Uiso   1.00
C996   C     0.47215   0.82496   0.95253   0.00000  Uiso   1.00
C997   C     0.57351   0.86259   0.52223   0.00000  Uiso   1.00
C998   C     0.42374   0.82023   0.97495   0.00000  Uiso   1.00
C999   C     0.62382   0.68817   0.75190   0.00000  Uiso   1.00
C1000  C     0.37617   0.97849   0.74812   0.00000  Uiso   1.00
C1001  C     0.62375   0.97893   0.75185   0.00000  Uiso   1.00
C1002  C     0.37624   0.68774   0.74818   0.00000  Uiso   1.00
C1003  C     0.66659   0.95724   0.74996   0.00000  Uiso   1.00
C1004  C     0.33341   0.70942   0.75007   0.00000  Uiso   1.00
C1005  C     0.51713   0.80857   0.77896   0.00000  Uiso   1.00
C1006  C     0.48287   0.85810   0.72104   0.00000  Uiso   1.00
C1007  C     0.46774   0.80844   0.77916   0.00000  Uiso   1.00
C1008  C     0.53226   0.85824   0.72085   0.00000  Uiso   1.00
C1009  C     0.63951   0.83369   0.83609   0.00000  Uiso   1.00
C1010  C     0.36050   0.83330   0.66388   0.00000  Uiso   1.00
C1011  C     0.62437   0.83739   0.88513   0.00000  Uiso   1.00
C1012  C     0.37552   0.83244   0.61458   0.00000  Uiso   1.00
C1013  C     0.63900   0.85959   0.95469   0.00000  Uiso   1.00
C1014  C     0.35909   0.81909   0.54326   0.00000  Uiso   1.00
C1015  C     0.65611   0.85159   0.90905   0.00000  Uiso   1.00
C1016  C     0.34281   0.82296   0.58967   0.00000  Uiso   1.00
C1017  C     0.57587   0.83016   0.90745   0.00000  Uiso   1.00
C1018  C     0.42420   0.83939   0.59252   0.00000  Uiso   1.00
C1019  C     0.55717   0.83954   0.95308   0.00000  Uiso   1.00
C1020  C     0.44149   0.83647   0.54560   0.00000  Uiso   1.00
C1021  C     0.58996   0.85377   0.97681   0.00000  Uiso   1.00
C1022  C     0.40805   0.82537   0.52115   0.00000  Uiso   1.00
C1023  C     0.50704   0.83543   0.97559   0.00000  Uiso   1.00
C1024  C     0.49112   0.84296   0.52258   0.00000  Uiso   1.00
Cu1025 Cu    0.38022   0.83334   0.75000   0.00000  Uiso   1.00
Cu1026 Cu    0.61978   0.83333   0.75000   0.00000  Uiso   1.00
H1027  H     0.44817   0.84587   0.61307   0.00000  Uiso   1.00
H1028  H     0.55349   0.81723   0.88813   0.00000  Uiso   1.00
H1029  H     0.63837   0.81736   0.60611   0.00000  Uiso   1.00
H1030  H     0.36039   0.85756   0.89230   0.00000  Uiso   1.00
H1031  H     0.66394   0.87121   0.97252   0.00000  Uiso   1.00
H1032  H     0.33349   0.81042   0.52473   0.00000  Uiso   1.00
H1033  H     0.51583   0.86566   0.57961   0.00000  Uiso   1.00
H1034  H     0.48062   0.82094   0.91676   0.00000  Uiso   1.00
H1035  H     0.59028   0.70434   0.75345   0.00000  Uiso   1.00
H1036  H     0.40971   0.96232   0.74657   0.00000  Uiso   1.00
H1037  H     0.59019   0.96309   0.75338   0.00000  Uiso   1.00
H1038  H     0.40980   0.70357   0.74665   0.00000  Uiso   1.00
N1039  N     0.45069   0.83334   0.74999   0.00000  Uiso   1.00
N1040  N     0.54931   0.83332   0.75001   0.00000  Uiso   1.00
O1041  O     0.37291   0.77322   0.75000   0.00000  Uiso   1.00
O1042  O     0.62709   0.89345   0.75000   0.00000  Uiso   1.00
O1043  O     0.62706   0.77321   0.75000   0.00000  Uiso   1.00
O1044  O     0.37294   0.89346   0.75000   0.00000  Uiso   1.00
O1045  O     0.35186   0.83334   0.81492   0.00000  Uiso   1.00
O1046  O     0.64814   0.83332   0.68508   0.00000  Uiso   1.00
O1047  O     0.60600   0.83333   0.81492   0.00000  Uiso   1.00
O1048  O     0.39400   0.83333   0.68508   0.00000  Uiso   1.00
H1049  H     0.59822   0.87383   0.54058   0.00000  Uiso   1.00
H1050  H     0.39842   0.81201   0.95589   0.00000  Uiso   1.00
H1051  H     0.52968   0.78872   0.80206   0.00000  Uiso   1.00
H1052  H     0.47032   0.87796   0.69795   0.00000  Uiso   1.00
Br1053 Br    0.42677   0.77196   0.82169   0.00000  Uiso   1.00
Br1054 Br    0.57321   0.89476   0.67836   0.00000  Uiso   1.00
C1055  C     0.66672   0.75406   0.75005   0.00000  Uiso   1.00
C1056  C     0.99994   0.91261   0.74996   0.00000  Uiso   1.00
C1057  C     0.85857   0.85721   0.54481   0.00000  Uiso   1.00
C1058  C     0.80548   0.82496   0.95253   0.00000  Uiso   1.00
C1059  C     0.90684   0.86259   0.52223   0.00000  Uiso   1.00
C1060  C     0.75707   0.82023   0.97495   0.00000  Uiso   1.00
C1061  C     0.95716   0.68817   0.75190   0.00000  Uiso   1.00
C1062  C     0.70950   0.97849   0.74812   0.00000  Uiso   1.00
C1063  C     0.95708   0.97893   0.75185   0.00000  Uiso   1.00
C1064  C     0.70958   0.68774   0.74818   0.00000  Uiso   1.00
C1065  C     0.99992   0.95724   0.74996   0.00000  Uiso   1.00
C1066  C     0.66674   0.70942   0.75007   0.00000  Uiso   1.00
C1067  C     0.85046   0.80857   0.77896   0.00000  Uiso   1.00
C1068  C     0.81620   0.85810   0.72104   0.00000  Uiso   1.00
C1069  C     0.80107   0.80844   0.77916   0.00000  Uiso   1.00
C1070  C     0.86559   0.85824   0.72085   0.00000  Uiso   1.00
C1071  C     0.97284   0.83369   0.83609   0.00000  Uiso   1.00
C1072  C     0.69383   0.83330   0.66388   0.00000  Uiso   1.00
C1073  C     0.95770   0.83739   0.88513   0.00000  Uiso   1.00
C1074  C     0.70885   0.83244   0.61458   0.00000  Uiso   1.00
C1075  C     0.97233   0.85959   0.95469   0.00000  Uiso   1.00
C1076  C     0.69242   0.81909   0.54326   0.00000  Uiso   1.00
C1077  C     0.98944   0.85159   0.90905   0.00000  Uiso   1.00
C1078  C     0.67614   0.82296   0.58967   0.00000  Uiso   1.00
C1079  C     0.90920   0.83016   0.90745   0.00000  Uiso   1.00
C1080  C     0.75753   0.83939   0.59252   0.00000  Uiso   1.00
C1081  C     0.89050   0.83954   0.95308   0.00000  Uiso   1.00
C1082  C     0.77482   0.83647   0.54560   0.00000  Uiso   1.00
C1083  C     0.92329   0.85377   0.97681   0.00000  Uiso   1.00
C1084  C     0.74138   0.82537   0.52115   0.00000  Uiso   1.00
C1085  C     0.84037   0.83543   0.97559   0.00000  Uiso   1.00
C1086  C     0.82446   0.84296   0.52258   0.00000  Uiso   1.00
Cu1087 Cu    0.71355   0.83334   0.75000   0.00000  Uiso   1.00
Cu1088 Cu    0.95311   0.83333   0.75000   0.00000  Uiso   1.00
H1089  H     0.78151   0.84587   0.61307   0.00000  Uiso   1.00
H1090  H     0.88682   0.81723   0.88813   0.00000  Uiso   1.00
H1091  H     0.97171   0.81736   0.60611   0.00000  Uiso   1.00
H1092  H     0.69372   0.85756   0.89230   0.00000  Uiso   1.00
H1093  H     0.99728   0.87121   0.97252   0.00000  Uiso   1.00
H1094  H     0.66682   0.81042   0.52473   0.00000  Uiso   1.00
H1095  H     0.84916   0.86566   0.57961   0.00000  Uiso   1.00
H1096  H     0.81396   0.82094   0.91676   0.00000  Uiso   1.00
H1097  H     0.92361   0.70434   0.75345   0.00000  Uiso   1.00
H1098  H     0.74305   0.96232   0.74657   0.00000  Uiso   1.00
H1099  H     0.92353   0.96309   0.75338   0.00000  Uiso   1.00
H1100  H     0.74313   0.70357   0.74665   0.00000  Uiso   1.00
N1101  N     0.78403   0.83334   0.74999   0.00000  Uiso   1.00
N1102  N     0.88264   0.83332   0.75001   0.00000  Uiso   1.00
O1103  O     0.70625   0.77322   0.75000   0.00000  Uiso   1.00
O1104  O     0.96042   0.89345   0.75000   0.00000  Uiso   1.00
O1105  O     0.96039   0.77321   0.75000   0.00000  Uiso   1.00
O1106  O     0.70628   0.89346   0.75000   0.00000  Uiso   1.00
O1107  O     0.68519   0.83334   0.81492   0.00000  Uiso   1.00
O1108  O     0.98148   0.83332   0.68508   0.00000  Uiso   1.00
O1109  O     0.93933   0.83333   0.81492   0.00000  Uiso   1.00
O1110  O     0.72733   0.83333   0.68508   0.00000  Uiso   1.00
H1111  H     0.93155   0.87383   0.54058   0.00000  Uiso   1.00
H1112  H     0.73175   0.81201   0.95589   0.00000  Uiso   1.00
H1113  H     0.86301   0.78872   0.80206   0.00000  Uiso   1.00
H1114  H     0.80365   0.87796   0.69795   0.00000  Uiso   1.00
Br1115 Br    0.76010   0.77196   0.82169   0.00000  Uiso   1.00
Br1116 Br    0.90655   0.89476   0.67836   0.00000  Uiso   1.00
loop_
_geom_bond_atom_site_label_1
_geom_bond_atom_site_label_2
_geom_bond_distance
_geom_bond_site_symmetry_2
_ccdc_geom_bond_type
C1     C12     1.450   .     S
C1     O49     1.296   .     A
C1     O175    1.293   1_455 S
C2     C11     1.450   .     S
C2     O50     1.296   .     A
C2     O114    1.293   .     S
C3     C32     1.417   .     A
C3     H41     1.076   .     S
C3     C5      1.387   .     A
C4     C6      1.386   .     A
C4     H42     1.076   .     S
C4     C31     1.417   .     A
C5     H57     1.085   .     S
C5     C587    1.390   1_554 S
C6     H58     1.084   .     S
C6     C588    1.390   .     S
C7     H43     1.083   .     S
C7     C381    1.383   1_545 S
C7     C74     1.402   .     S
C8     H44     1.083   .     S
C8     C196    1.383   .     S
C8     C135    1.402   1_455 S
C9     H45     1.083   .     S
C9     C11     1.400   .     A
C9     C193    1.383   .     S
C10    H46     1.083   .     S
C10    C12     1.400   .     A
C10    C380    1.383   1_545 S
C11    C70     1.402   .     S
C12    C131    1.402   1_455 S
C13    N48     1.359   .     A
C13    H59     1.082   .     S
C13    C15     1.414   .     A
C14    N47     1.359   .     A
C14    C16     1.414   .     A
C14    H60     1.082   .     S
C15    N47     1.381   .     A
C15    Br61    1.914   .     S
C16    N48     1.381   .     A
C16    Br62    1.914   .     S
C17    C19     1.467   .     S
C17    O55     1.296   .     A
C17    O115    1.301   .     S
C18    O56     1.296   .     A
C18    C20     1.469   .     S
C18    O178    1.301   1_455 S
C19    C23     1.398   .     A
C19    C25     1.399   .     A
C20    C24     1.398   .     A
C20    C26     1.400   .     A
C21    C29     1.404   .     A
C21    H39     1.083   .     S
C21    C23     1.392   .     A
C22    H40     1.083   .     S
C22    C24     1.392   .     A
C22    C30     1.404   .     A
C23    H100    1.083   .     S
C24    H161    1.083   1_455 S
C25    H36     1.075   .     S
C25    C27     1.406   .     A
C26    C28     1.406   .     A
C26    H35     1.074   .     S
C27    C29     1.418   .     A
C27    C31     1.428   .     A
C28    C30     1.418   .     A
C28    C32     1.428   .     A
C29    C563    1.390   .     S
C30    C564    1.390   1_554 S
C31    C590    1.426   .     S
C32    C589    1.426   1_554 S
Cu33   O56     1.937   .     S
Cu33   O52     1.963   .     S
Cu33   O53     1.954   .     S
Cu33   N47     2.020   .     S
Cu33   O49     1.966   .     S
Cu33   Cu158   2.688   1_455 S
Cu34   O51     1.963   .     S
Cu34   O54     1.954   .     S
Cu34   O50     1.966   .     S
Cu34   N48     2.020   .     S
Cu34   O55     1.937   .     S
Cu34   Cu95    2.688   .     S
H37    C86     1.083   .     S
H38    C147    1.083   1_455 S
O51    C63     1.293   .     S
O52    C126    1.293   1_455 S
O53    C141    1.301   1_455 S
O54    C80     1.301   .     S
C63    C74     1.450   .     S
C63    O111    1.296   .     A
C64    C73     1.450   .     S
C64    O112    1.296   .     A
C64    O176    1.293   .     S
C65    C94     1.417   .     A
C65    H103    1.076   .     S
C65    C67     1.387   .     A
C66    C68     1.386   .     A
C66    H104    1.076   .     S
C66    C93     1.417   .     A
C67    H119    1.085   .     S
C67    C649    1.390   1_554 S
C68    H120    1.084   .     S
C68    C650    1.390   .     S
C69    H105    1.083   .     S
C69    C443    1.383   1_545 S
C69    C136    1.402   .     S
C70    H106    1.083   .     S
C70    C258    1.383   .     S
C71    H107    1.083   .     S
C71    C73     1.400   .     A
C71    C255    1.383   .     S
C72    H108    1.083   .     S
C72    C74     1.400   .     A
C72    C442    1.383   1_545 S
C73    C132    1.402   .     S
C75    N110    1.359   .     A
C75    H121    1.082   .     S
C75    C77     1.414   .     A
C76    N109    1.359   .     A
C76    C78     1.414   .     A
C76    H122    1.082   .     S
C77    N109    1.381   .     A
C77    Br123   1.914   .     S
C78    N110    1.381   .     A
C78    Br124   1.914   .     S
C79    C81     1.467   .     S
C79    O117    1.296   .     A
C79    O177    1.301   .     S
C80    O118    1.296   .     A
C80    C82     1.469   .     S
C81    C85     1.398   .     A
C81    C87     1.399   .     A
C82    C86     1.398   .     A
C82    C88     1.400   .     A
C83    C91     1.404   .     A
C83    H101    1.083   .     S
C83    C85     1.392   .     A
C84    H102    1.083   .     S
C84    C86     1.392   .     A
C84    C92     1.404   .     A
C85    H162    1.083   .     S
C87    H98     1.075   .     S
C87    C89     1.406   .     A
C88    C90     1.406   .     A
C88    H97     1.074   .     S
C89    C91     1.418   .     A
C89    C93     1.428   .     A
C90    C92     1.418   .     A
C90    C94     1.428   .     A
C91    C625    1.390   .     S
C92    C626    1.390   1_554 S
C93    C652    1.426   .     S
C94    C651    1.426   1_554 S
Cu95   O118    1.937   .     S
Cu95   O114    1.963   .     S
Cu95   O115    1.954   .     S
Cu95   N109    2.020   .     S
Cu95   O111    1.966   .     S
Cu96   O113    1.963   .     S
Cu96   O116    1.954   .     S
Cu96   O112    1.966   .     S
Cu96   N110    2.020   .     S
Cu96   O117    1.937   .     S
Cu96   Cu157   2.688   .     S
H99    C148    1.083   .     S
O113   C125    1.293   .     S
O116   C142    1.301   .     S
C125   C136    1.450   .     S
C125   O173    1.296   .     A
C126   C135    1.450   .     S
C126   O174    1.296   .     A
C126   O52     1.293   1_655 S
C127   C156    1.417   .     A
C127   H165    1.076   .     S
C127   C129    1.387   .     A
C128   C130    1.386   .     A
C128   H166    1.076   .     S
C128   C155    1.417   .     A
C129   H181    1.085   .     S
C129   C711    1.390   1_554 S
C130   H182    1.084   .     S
C130   C712    1.390   .     S
C131   H167    1.083   .     S
C131   C505    1.383   1_545 S
C131   C12     1.402   1_655 S
C132   H168    1.083   .     S
C132   C320    1.383   .     S
C133   H169    1.083   .     S
C133   C135    1.400   .     A
C133   C317    1.383   .     S
C134   H170    1.083   .     S
C134   C136    1.400   .     A
C134   C504    1.383   1_545 S
C135   C8      1.402   1_655 S
C137   N172    1.359   .     A
C137   H183    1.082   .     S
C137   C139    1.414   .     A
C138   N171    1.359   .     A
C138   C140    1.414   .     A
C138   H184    1.082   .     S
C139   N171    1.381   .     A
C139   Br185   1.914   .     S
C140   N172    1.381   .     A
C140   Br186   1.914   .     S
C141   C143    1.467   .     S
C141   O179    1.296   .     A
C141   O53     1.301   1_655 S
C142   O180    1.296   .     A
C142   C144    1.469   .     S
C143   C147    1.398   .     A
C143   C149    1.399   .     A
C144   C148    1.398   .     A
C144   C150    1.400   .     A
C145   C153    1.404   .     A
C145   H163    1.083   .     S
C145   C147    1.392   .     A
C146   H164    1.083   .     S
C146   C148    1.392   .     A
C146   C154    1.404   .     A
C147   H38     1.083   1_655 S
C149   H160    1.075   .     S
C149   C151    1.406   .     A
C150   C152    1.406   .     A
C150   H159    1.074   .     S
C151   C153    1.418   .     A
C151   C155    1.428   .     A
C152   C154    1.418   .     A
C152   C156    1.428   .     A
C153   C687    1.390   .     S
C154   C688    1.390   1_554 S
C155   C714    1.426   .     S
C156   C713    1.426   1_554 S
Cu157  O180    1.937   .     S
Cu157  O176    1.963   .     S
Cu157  O177    1.954   .     S
Cu157  N171    2.020   .     S
Cu157  O173    1.966   .     S
Cu158  O175    1.963   .     S
Cu158  O178    1.954   .     S
Cu158  O174    1.966   .     S
Cu158  N172    2.020   .     S
Cu158  O179    1.937   .     S
Cu158  Cu33    2.688   1_655 S
H161   C24     1.083   1_655 S
O175   C1      1.293   1_655 S
O178   C18     1.301   1_655 S
C187   C198    1.450   .     S
C187   O235    1.296   .     A
C187   O361    1.293   1_455 S
C188   C197    1.450   .     S
C188   O236    1.296   .     A
C188   O300    1.293   .     S
C189   C218    1.417   .     A
C189   H227    1.076   .     S
C189   C191    1.387   .     A
C190   C192    1.386   .     A
C190   H228    1.076   .     S
C190   C217    1.417   .     A
C191   H243    1.085   .     S
C191   C773    1.390   1_554 S
C192   H244    1.084   .     S
C192   C774    1.390   .     S
C193   H229    1.083   .     S
C193   C260    1.402   .     S
C194   H230    1.083   .     S
C194   C382    1.383   .     S
C194   C321    1.402   1_455 S
C195   H231    1.083   .     S
C195   C197    1.400   .     A
C195   C379    1.383   .     S
C196   H232    1.083   .     S
C196   C198    1.400   .     A
C197   C256    1.402   .     S
C198   C317    1.402   1_455 S
C199   N234    1.359   .     A
C199   H245    1.082   .     S
C199   C201    1.414   .     A
C200   N233    1.359   .     A
C200   C202    1.414   .     A
C200   H246    1.082   .     S
C201   N233    1.381   .     A
C201   Br247   1.914   .     S
C202   N234    1.381   .     A
C202   Br248   1.914   .     S
C203   C205    1.467   .     S
C203   O241    1.296   .     A
C203   O301    1.301   .     S
C204   O242    1.296   .     A
C204   C206    1.469   .     S
C204   O364    1.301   1_455 S
C205   C209    1.398   .     A
C205   C211    1.399   .     A
C206   C210    1.398   .     A
C206   C212    1.400   .     A
C207   C215    1.404   .     A
C207   H225    1.083   .     S
C207   C209    1.392   .     A
C208   H226    1.083   .     S
C208   C210    1.392   .     A
C208   C216    1.404   .     A
C209   H286    1.083   .     S
C210   H347    1.083   1_455 S
C211   H222    1.075   .     S
C211   C213    1.406   .     A
C212   C214    1.406   .     A
C212   H221    1.074   .     S
C213   C215    1.418   .     A
C213   C217    1.428   .     A
C214   C216    1.418   .     A
C214   C218    1.428   .     A
C215   C749    1.390   .     S
C216   C750    1.390   1_554 S
C217   C776    1.426   .     S
C218   C775    1.426   1_554 S
Cu219  O242    1.937   .     S
Cu219  O238    1.963   .     S
Cu219  O239    1.954   .     S
Cu219  N233    2.020   .     S
Cu219  O235    1.966   .     S
Cu219  Cu344   2.688   1_455 S
Cu220  O237    1.963   .     S
Cu220  O240    1.954   .     S
Cu220  O236    1.966   .     S
Cu220  N234    2.020   .     S
Cu220  O241    1.937   .     S
Cu220  Cu281   2.688   .     S
H223   C272    1.083   .     S
H224   C333    1.083   1_455 S
O237   C249    1.293   .     S
O238   C312    1.293   1_455 S
O239   C327    1.301   1_455 S
O240   C266    1.301   .     S
C249   C260    1.450   .     S
C249   O297    1.296   .     A
C250   C259    1.450   .     S
C250   O298    1.296   .     A
C250   O362    1.293   .     S
C251   C280    1.417   .     A
C251   H289    1.076   .     S
C251   C253    1.387   .     A
C252   C254    1.386   .     A
C252   H290    1.076   .     S
C252   C279    1.417   .     A
C253   H305    1.085   .     S
C253   C835    1.390   1_554 S
C254   H306    1.084   .     S
C254   C836    1.390   .     S
C255   H291    1.083   .     S
C255   C322    1.402   .     S
C256   H292    1.083   .     S
C256   C444    1.383   .     S
C257   H293    1.083   .     S
C257   C259    1.400   .     A
C257   C441    1.383   .     S
C258   H294    1.083   .     S
C258   C260    1.400   .     A
C259   C318    1.402   .     S
C261   N296    1.359   .     A
C261   H307    1.082   .     S
C261   C263    1.414   .     A
C262   N295    1.359   .     A
C262   C264    1.414   .     A
C262   H308    1.082   .     S
C263   N295    1.381   .     A
C263   Br309   1.914   .     S
C264   N296    1.381   .     A
C264   Br310   1.914   .     S
C265   C267    1.467   .     S
C265   O303    1.296   .     A
C265   O363    1.301   .     S
C266   O304    1.296   .     A
C266   C268    1.469   .     S
C267   C271    1.398   .     A
C267   C273    1.399   .     A
C268   C272    1.398   .     A
C268   C274    1.400   .     A
C269   C277    1.404   .     A
C269   H287    1.083   .     S
C269   C271    1.392   .     A
C270   H288    1.083   .     S
C270   C272    1.392   .     A
C270   C278    1.404   .     A
C271   H348    1.083   .     S
C273   H284    1.075   .     S
C273   C275    1.406   .     A
C274   C276    1.406   .     A
C274   H283    1.074   .     S
C275   C277    1.418   .     A
C275   C279    1.428   .     A
C276   C278    1.418   .     A
C276   C280    1.428   .     A
C277   C811    1.390   .     S
C278   C812    1.390   1_554 S
C279   C838    1.426   .     S
C280   C837    1.426   1_554 S
Cu281  O304    1.937   .     S
Cu281  O300    1.963   .     S
Cu281  O301    1.954   .     S
Cu281  N295    2.020   .     S
Cu281  O297    1.966   .     S
Cu282  O299    1.963   .     S
Cu282  O302    1.954   .     S
Cu282  O298    1.966   .     S
Cu282  N296    2.020   .     S
Cu282  O303    1.937   .     S
Cu282  Cu343   2.688   .     S
H285   C334    1.083   .     S
O299   C311    1.293   .     S
O302   C328    1.301   .     S
C311   C322    1.450   .     S
C311   O359    1.296   .     A
C312   C321    1.450   .     S
C312   O360    1.296   .     A
C312   O238    1.293   1_655 S
C313   C342    1.417   .     A
C313   H351    1.076   .     S
C313   C315    1.387   .     A
C314   C316    1.386   .     A
C314   H352    1.076   .     S
C314   C341    1.417   .     A
C315   H367    1.085   .     S
C315   C897    1.390   1_554 S
C316   H368    1.084   .     S
C316   C898    1.390   .     S
C317   H353    1.083   .     S
C317   C198    1.402   1_655 S
C318   H354    1.083   .     S
C318   C506    1.383   .     S
C319   H355    1.083   .     S
C319   C321    1.400   .     A
C319   C503    1.383   .     S
C320   H356    1.083   .     S
C320   C322    1.400   .     A
C321   C194    1.402   1_655 S
C323   N358    1.359   .     A
C323   H369    1.082   .     S
C323   C325    1.414   .     A
C324   N357    1.359   .     A
C324   C326    1.414   .     A
C324   H370    1.082   .     S
C325   N357    1.381   .     A
C325   Br371   1.914   .     S
C326   N358    1.381   .     A
C326   Br372   1.914   .     S
C327   C329    1.467   .     S
C327   O365    1.296   .     A
C327   O239    1.301   1_655 S
C328   O366    1.296   .     A
C328   C330    1.469   .     S
C329   C333    1.398   .     A
C329   C335    1.399   .     A
C330   C334    1.398   .     A
C330   C336    1.400   .     A
C331   C339    1.404   .     A
C331   H349    1.083   .     S
C331   C333    1.392   .     A
C332   H350    1.083   .     S
C332   C334    1.392   .     A
C332   C340    1.404   .     A
C333   H224    1.083   1_655 S
C335   H346    1.075   .     S
C335   C337    1.406   .     A
C336   C338    1.406   .     A
C336   H345    1.074   .     S
C337   C339    1.418   .     A
C337   C341    1.428   .     A
C338   C340    1.418   .     A
C338   C342    1.428   .     A
C339   C873    1.390   .     S
C340   C874    1.390   1_554 S
C341   C900    1.426   .     S
C342   C899    1.426   1_554 S
Cu343  O366    1.937   .     S
Cu343  O362    1.963   .     S
Cu343  O363    1.954   .     S
Cu343  N357    2.020   .     S
Cu343  O359    1.966   .     S
Cu344  O361    1.963   .     S
Cu344  O364    1.954   .     S
Cu344  O360    1.966   .     S
Cu344  N358    2.020   .     S
Cu344  O365    1.937   .     S
Cu344  Cu219   2.688   1_655 S
H347   C210    1.083   1_655 S
O361   C187    1.293   1_655 S
O364   C204    1.301   1_655 S
C373   C384    1.450   .     S
C373   O421    1.296   .     A
C373   O547    1.293   1_455 S
C374   C383    1.450   .     S
C374   O422    1.296   .     A
C374   O486    1.293   .     S
C375   C404    1.417   .     A
C375   H413    1.076   .     S
C375   C377    1.387   .     A
C376   C378    1.386   .     A
C376   H414    1.076   .     S
C376   C403    1.417   .     A
C377   H429    1.085   .     S
C377   C959    1.390   1_554 S
C378   H430    1.084   .     S
C378   C960    1.390   .     S
C379   H415    1.083   .     S
C379   C446    1.402   .     S
C380   H416    1.083   .     S
C380   C10     1.383   1_565 S
C380   C507    1.402   1_455 S
C381   H417    1.083   .     S
C381   C383    1.400   .     A
C381   C7      1.383   1_565 S
C382   H418    1.083   .     S
C382   C384    1.400   .     A
C383   C442    1.402   .     S
C384   C503    1.402   1_455 S
C385   N420    1.359   .     A
C385   H431    1.082   .     S
C385   C387    1.414   .     A
C386   N419    1.359   .     A
C386   C388    1.414   .     A
C386   H432    1.082   .     S
C387   N419    1.381   .     A
C387   Br433   1.914   .     S
C388   N420    1.381   .     A
C388   Br434   1.914   .     S
C389   C391    1.467   .     S
C389   O427    1.296   .     A
C389   O487    1.301   .     S
C390   O428    1.296   .     A
C390   C392    1.469   .     S
C390   O550    1.301   1_455 S
C391   C395    1.398   .     A
C391   C397    1.399   .     A
C392   C396    1.398   .     A
C392   C398    1.400   .     A
C393   C401    1.404   .     A
C393   H411    1.083   .     S
C393   C395    1.392   .     A
C394   H412    1.083   .     S
C394   C396    1.392   .     A
C394   C402    1.404   .     A
C395   H472    1.083   .     S
C396   H533    1.083   1_455 S
C397   H408    1.075   .     S
C397   C399    1.406   .     A
C398   C400    1.406   .     A
C398   H407    1.074   .     S
C399   C401    1.418   .     A
C399   C403    1.428   .     A
C400   C402    1.418   .     A
C400   C404    1.428   .     A
C401   C935    1.390   .     S
C402   C936    1.390   1_554 S
C403   C962    1.426   .     S
C404   C961    1.426   1_554 S
Cu405  O428    1.937   .     S
Cu405  O424    1.963   .     S
Cu405  O425    1.954   .     S
Cu405  N419    2.020   .     S
Cu405  O421    1.966   .     S
Cu405  Cu530   2.688   1_455 S
Cu406  O423    1.963   .     S
Cu406  O426    1.954   .     S
Cu406  O422    1.966   .     S
Cu406  N420    2.020   .     S
Cu406  O427    1.937   .     S
Cu406  Cu467   2.688   .     S
H409   C458    1.083   .     S
H410   C519    1.083   1_455 S
O423   C435    1.293   .     S
O424   C498    1.293   1_455 S
O425   C513    1.301   1_455 S
O426   C452    1.301   .     S
C435   C446    1.450   .     S
C435   O483    1.296   .     A
C436   C445    1.450   .     S
C436   O484    1.296   .     A
C436   O548    1.293   .     S
C437   C466    1.417   .     A
C437   H475    1.076   .     S
C437   C439    1.387   .     A
C438   C440    1.386   .     A
C438   H476    1.076   .     S
C438   C465    1.417   .     A
C439   H491    1.085   .     S
C439   C1021   1.390   1_554 S
C440   H492    1.084   .     S
C440   C1022   1.390   .     S
C441   H477    1.083   .     S
C441   C508    1.402   .     S
C442   H478    1.083   .     S
C442   C72     1.383   1_565 S
C443   H479    1.083   .     S
C443   C445    1.400   .     A
C443   C69     1.383   1_565 S
C444   H480    1.083   .     S
C444   C446    1.400   .     A
C445   C504    1.402   .     S
C447   N482    1.359   .     A
C447   H493    1.082   .     S
C447   C449    1.414   .     A
C448   N481    1.359   .     A
C448   C450    1.414   .     A
C448   H494    1.082   .     S
C449   N481    1.381   .     A
C449   Br495   1.914   .     S
C450   N482    1.381   .     A
C450   Br496   1.914   .     S
C451   C453    1.467   .     S
C451   O489    1.296   .     A
C451   O549    1.301   .     S
C452   O490    1.296   .     A
C452   C454    1.469   .     S
C453   C457    1.398   .     A
C453   C459    1.399   .     A
C454   C458    1.398   .     A
C454   C460    1.400   .     A
C455   C463    1.404   .     A
C455   H473    1.083   .     S
C455   C457    1.392   .     A
C456   H474    1.083   .     S
C456   C458    1.392   .     A
C456   C464    1.404   .     A
C457   H534    1.083   .     S
C459   H470    1.075   .     S
C459   C461    1.406   .     A
C460   C462    1.406   .     A
C460   H469    1.074   .     S
C461   C463    1.418   .     A
C461   C465    1.428   .     A
C462   C464    1.418   .     A
C462   C466    1.428   .     A
C463   C997    1.390   .     S
C464   C998    1.390   1_554 S
C465   C1024   1.426   .     S
C466   C1023   1.426   1_554 S
Cu467  O490    1.937   .     S
Cu467  O486    1.963   .     S
Cu467  O487    1.954   .     S
Cu467  N481    2.020   .     S
Cu467  O483    1.966   .     S
Cu468  O485    1.963   .     S
Cu468  O488    1.954   .     S
Cu468  O484    1.966   .     S
Cu468  N482    2.020   .     S
Cu468  O489    1.937   .     S
Cu468  Cu529   2.688   .     S
H471   C520    1.083   .     S
O485   C497    1.293   .     S
O488   C514    1.301   .     S
C497   C508    1.450   .     S
C497   O545    1.296   .     A
C498   C507    1.450   .     S
C498   O546    1.296   .     A
C498   O424    1.293   1_655 S
C499   C528    1.417   .     A
C499   H537    1.076   .     S
C499   C501    1.387   .     A
C500   C502    1.386   .     A
C500   H538    1.076   .     S
C500   C527    1.417   .     A
C501   H553    1.085   .     S
C501   C1083   1.390   1_554 S
C502   H554    1.084   .     S
C502   C1084   1.390   .     S
C503   H539    1.083   .     S
C503   C384    1.402   1_655 S
C504   H540    1.083   .     S
C504   C134    1.383   1_565 S
C505   H541    1.083   .     S
C505   C507    1.400   .     A
C505   C131    1.383   1_565 S
C506   H542    1.083   .     S
C506   C508    1.400   .     A
C507   C380    1.402   1_655 S
C509   N544    1.359   .     A
C509   H555    1.082   .     S
C509   C511    1.414   .     A
C510   N543    1.359   .     A
C510   C512    1.414   .     A
C510   H556    1.082   .     S
C511   N543    1.381   .     A
C511   Br557   1.914   .     S
C512   N544    1.381   .     A
C512   Br558   1.914   .     S
C513   C515    1.467   .     S
C513   O551    1.296   .     A
C513   O425    1.301   1_655 S
C514   O552    1.296   .     A
C514   C516    1.469   .     S
C515   C519    1.398   .     A
C515   C521    1.399   .     A
C516   C520    1.398   .     A
C516   C522    1.400   .     A
C517   C525    1.404   .     A
C517   H535    1.083   .     S
C517   C519    1.392   .     A
C518   H536    1.083   .     S
C518   C520    1.392   .     A
C518   C526    1.404   .     A
C519   H410    1.083   1_655 S
C521   H532    1.075   .     S
C521   C523    1.406   .     A
C522   C524    1.406   .     A
C522   H531    1.074   .     S
C523   C525    1.418   .     A
C523   C527    1.428   .     A
C524   C526    1.418   .     A
C524   C528    1.428   .     A
C525   C1059   1.390   .     S
C526   C1060   1.390   1_554 S
C527   C1086   1.426   .     S
C528   C1085   1.426   1_554 S
Cu529  O552    1.937   .     S
Cu529  O548    1.963   .     S
Cu529  O549    1.954   .     S
Cu529  N543    2.020   .     S
Cu529  O545    1.966   .     S
Cu530  O547    1.963   .     S
Cu530  O550    1.954   .     S
Cu530  O546    1.966   .     S
Cu530  N544    2.020   .     S
Cu530  O551    1.937   .     S
Cu530  Cu405   2.688   1_655 S
H533   C396    1.083   1_655 S
O547   C373    1.293   1_655 S
O550   C390    1.301   1_655 S
C559   C570    1.450   .     S
C559   O607    1.296   .     A
C559   O733    1.293   1_455 S
C560   C569    1.450   .     S
C560   O608    1.296   .     A
C560   O672    1.293   .     S
C561   C590    1.417   .     A
C561   H599    1.076   .     S
C561   C563    1.387   .     A
C562   C564    1.386   .     A
C562   H600    1.076   .     S
C562   C589    1.417   .     A
C563   H615    1.085   .     S
C564   H616    1.084   .     S
C564   C30     1.390   1_556 S
C565   H601    1.083   .     S
C565   C939    1.383   1_545 S
C565   C632    1.402   .     S
C566   H602    1.083   .     S
C566   C754    1.383   .     S
C566   C693    1.402   1_455 S
C567   H603    1.083   .     S
C567   C569    1.400   .     A
C567   C751    1.383   .     S
C568   H604    1.083   .     S
C568   C570    1.400   .     A
C568   C938    1.383   1_545 S
C569   C628    1.402   .     S
C570   C689    1.402   1_455 S
C571   N606    1.359   .     A
C571   H617    1.082   .     S
C571   C573    1.414   .     A
C572   N605    1.359   .     A
C572   C574    1.414   .     A
C572   H618    1.082   .     S
C573   N605    1.381   .     A
C573   Br619   1.914   .     S
C574   N606    1.381   .     A
C574   Br620   1.914   .     S
C575   C577    1.467   .     S
C575   O613    1.296   .     A
C575   O673    1.301   .     S
C576   O614    1.296   .     A
C576   C578    1.469   .     S
C576   O736    1.301   1_455 S
C577   C581    1.398   .     A
C577   C583    1.399   .     A
C578   C582    1.398   .     A
C578   C584    1.400   .     A
C579   C587    1.404   .     A
C579   H597    1.083   .     S
C579   C581    1.392   .     A
C580   H598    1.083   .     S
C580   C582    1.392   .     A
C580   C588    1.404   .     A
C581   H658    1.083   .     S
C582   H719    1.083   1_455 S
C583   H594    1.075   .     S
C583   C585    1.406   .     A
C584   C586    1.406   .     A
C584   H593    1.074   .     S
C585   C587    1.418   .     A
C585   C589    1.428   .     A
C586   C588    1.418   .     A
C586   C590    1.428   .     A
C587   C5      1.390   1_556 S
C589   C32     1.426   1_556 S
Cu591  O614    1.937   .     S
Cu591  O610    1.963   .     S
Cu591  O611    1.954   .     S
Cu591  N605    2.020   .     S
Cu591  O607    1.966   .     S
Cu591  Cu716   2.688   1_455 S
Cu592  O609    1.963   .     S
Cu592  O612    1.954   .     S
Cu592  O608    1.966   .     S
Cu592  N606    2.020   .     S
Cu592  O613    1.937   .     S
Cu592  Cu653   2.688   .     S
H595   C644    1.083   .     S
H596   C705    1.083   1_455 S
O609   C621    1.293   .     S
O610   C684    1.293   1_455 S
O611   C699    1.301   1_455 S
O612   C638    1.301   .     S
C621   C632    1.450   .     S
C621   O669    1.296   .     A
C622   C631    1.450   .     S
C622   O670    1.296   .     A
C622   O734    1.293   .     S
C623   C652    1.417   .     A
C623   H661    1.076   .     S
C623   C625    1.387   .     A
C624   C626    1.386   .     A
C624   H662    1.076   .     S
C624   C651    1.417   .     A
C625   H677    1.085   .     S
C626   H678    1.084   .     S
C626   C92     1.390   1_556 S
C627   H663    1.083   .     S
C627   C1001   1.383   1_545 S
C627   C694    1.402   .     S
C628   H664    1.083   .     S
C628   C816    1.383   .     S
C629   H665    1.083   .     S
C629   C631    1.400   .     A
C629   C813    1.383   .     S
C630   H666    1.083   .     S
C630   C632    1.400   .     A
C630   C1000   1.383   1_545 S
C631   C690    1.402   .     S
C633   N668    1.359   .     A
C633   H679    1.082   .     S
C633   C635    1.414   .     A
C634   N667    1.359   .     A
C634   C636    1.414   .     A
C634   H680    1.082   .     S
C635   N667    1.381   .     A
C635   Br681   1.914   .     S
C636   N668    1.381   .     A
C636   Br682   1.914   .     S
C637   C639    1.467   .     S
C637   O675    1.296   .     A
C637   O735    1.301   .     S
C638   O676    1.296   .     A
C638   C640    1.469   .     S
C639   C643    1.398   .     A
C639   C645    1.399   .     A
C640   C644    1.398   .     A
C640   C646    1.400   .     A
C641   C649    1.404   .     A
C641   H659    1.083   .     S
C641   C643    1.392   .     A
C642   H660    1.083   .     S
C642   C644    1.392   .     A
C642   C650    1.404   .     A
C643   H720    1.083   .     S
C645   H656    1.075   .     S
C645   C647    1.406   .     A
C646   C648    1.406   .     A
C646   H655    1.074   .     S
C647   C649    1.418   .     A
C647   C651    1.428   .     A
C648   C650    1.418   .     A
C648   C652    1.428   .     A
C649   C67     1.390   1_556 S
C651   C94     1.426   1_556 S
Cu653  O676    1.937   .     S
Cu653  O672    1.963   .     S
Cu653  O673    1.954   .     S
Cu653  N667    2.020   .     S
Cu653  O669    1.966   .     S
Cu654  O671    1.963   .     S
Cu654  O674    1.954   .     S
Cu654  O670    1.966   .     S
Cu654  N668    2.020   .     S
Cu654  O675    1.937   .     S
Cu654  Cu715   2.688   .     S
H657   C706    1.083   .     S
O671   C683    1.293   .     S
O674   C700    1.301   .     S
C683   C694    1.450   .     S
C683   O731    1.296   .     A
C684   C693    1.450   .     S
C684   O732    1.296   .     A
C684   O610    1.293   1_655 S
C685   C714    1.417   .     A
C685   H723    1.076   .     S
C685   C687    1.387   .     A
C686   C688    1.386   .     A
C686   H724    1.076   .     S
C686   C713    1.417   .     A
C687   H739    1.085   .     S
C688   H740    1.084   .     S
C688   C154    1.390   1_556 S
C689   H725    1.083   .     S
C689   C1063   1.383   1_545 S
C689   C570    1.402   1_655 S
C690   H726    1.083   .     S
C690   C878    1.383   .     S
C691   H727    1.083   .     S
C691   C693    1.400   .     A
C691   C875    1.383   .     S
C692   H728    1.083   .     S
C692   C694    1.400   .     A
C692   C1062   1.383   1_545 S
C693   C566    1.402   1_655 S
C695   N730    1.359   .     A
C695   H741    1.082   .     S
C695   C697    1.414   .     A
C696   N729    1.359   .     A
C696   C698    1.414   .     A
C696   H742    1.082   .     S
C697   N729    1.381   .     A
C697   Br743   1.914   .     S
C698   N730    1.381   .     A
C698   Br744   1.914   .     S
C699   C701    1.467   .     S
C699   O737    1.296   .     A
C699   O611    1.301   1_655 S
C700   O738    1.296   .     A
C700   C702    1.469   .     S
C701   C705    1.398   .     A
C701   C707    1.399   .     A
C702   C706    1.398   .     A
C702   C708    1.400   .     A
C703   C711    1.404   .     A
C703   H721    1.083   .     S
C703   C705    1.392   .     A
C704   H722    1.083   .     S
C704   C706    1.392   .     A
C704   C712    1.404   .     A
C705   H596    1.083   1_655 S
C707   H718    1.075   .     S
C707   C709    1.406   .     A
C708   C710    1.406   .     A
C708   H717    1.074   .     S
C709   C711    1.418   .     A
C709   C713    1.428   .     A
C710   C712    1.418   .     A
C710   C714    1.428   .     A
C711   C129    1.390   1_556 S
C713   C156    1.426   1_556 S
Cu715  O738    1.937   .     S
Cu715  O734    1.963   .     S
Cu715  O735    1.954   .     S
Cu715  N729    2.020   .     S
Cu715  O731    1.966   .     S
Cu716  O733    1.963   .     S
Cu716  O736    1.954   .     S
Cu716  O732    1.966   .     S
Cu716  N730    2.020   .     S
Cu716  O737    1.937   .     S
Cu716  Cu591   2.688   1_655 S
H719   C582    1.083   1_655 S
O733   C559    1.293   1_655 S
O736   C576    1.301   1_655 S
C745   C756    1.450   .     S
C745   O793    1.296   .     A
C745   O919    1.293   1_455 S
C746   C755    1.450   .     S
C746   O794    1.296   .     A
C746   O858    1.293   .     S
C747   C776    1.417   .     A
C747   H785    1.076   .     S
C747   C749    1.387   .     A
C748   C750    1.386   .     A
C748   H786    1.076   .     S
C748   C775    1.417   .     A
C749   H801    1.085   .     S
C750   H802    1.084   .     S
C750   C216    1.390   1_556 S
C751   H787    1.083   .     S
C751   C818    1.402   .     S
C752   H788    1.083   .     S
C752   C940    1.383   .     S
C752   C879    1.402   1_455 S
C753   H789    1.083   .     S
C753   C755    1.400   .     A
C753   C937    1.383   .     S
C754   H790    1.083   .     S
C754   C756    1.400   .     A
C755   C814    1.402   .     S
C756   C875    1.402   1_455 S
C757   N792    1.359   .     A
C757   H803    1.082   .     S
C757   C759    1.414   .     A
C758   N791    1.359   .     A
C758   C760    1.414   .     A
C758   H804    1.082   .     S
C759   N791    1.381   .     A
C759   Br805   1.914   .     S
C760   N792    1.381   .     A
C760   Br806   1.914   .     S
C761   C763    1.467   .     S
C761   O799    1.296   .     A
C761   O859    1.301   .     S
C762   O800    1.296   .     A
C762   C764    1.469   .     S
C762   O922    1.301   1_455 S
C763   C767    1.398   .     A
C763   C769    1.399   .     A
C764   C768    1.398   .     A
C764   C770    1.400   .     A
C765   C773    1.404   .     A
C765   H783    1.083   .     S
C765   C767    1.392   .     A
C766   H784    1.083   .     S
C766   C768    1.392   .     A
C766   C774    1.404   .     A
C767   H844    1.083   .     S
C768   H905    1.083   1_455 S
C769   H780    1.075   .     S
C769   C771    1.406   .     A
C770   C772    1.406   .     A
C770   H779    1.074   .     S
C771   C773    1.418   .     A
C771   C775    1.428   .     A
C772   C774    1.418   .     A
C772   C776    1.428   .     A
C773   C191    1.390   1_556 S
C775   C218    1.426   1_556 S
Cu777  O800    1.937   .     S
Cu777  O796    1.963   .     S
Cu777  O797    1.954   .     S
Cu777  N791    2.020   .     S
Cu777  O793    1.966   .     S
Cu777  Cu902   2.688   1_455 S
Cu778  O795    1.963   .     S
Cu778  O798    1.954   .     S
Cu778  O794    1.966   .     S
Cu778  N792    2.020   .     S
Cu778  O799    1.937   .     S
Cu778  Cu839   2.688   .     S
H781   C830    1.083   .     S
H782   C891    1.083   1_455 S
O795   C807    1.293   .     S
O796   C870    1.293   1_455 S
O797   C885    1.301   1_455 S
O798   C824    1.301   .     S
C807   C818    1.450   .     S
C807   O855    1.296   .     A
C808   C817    1.450   .     S
C808   O856    1.296   .     A
C808   O920    1.293   .     S
C809   C838    1.417   .     A
C809   H847    1.076   .     S
C809   C811    1.387   .     A
C810   C812    1.386   .     A
C810   H848    1.076   .     S
C810   C837    1.417   .     A
C811   H863    1.085   .     S
C812   H864    1.084   .     S
C812   C278    1.390   1_556 S
C813   H849    1.083   .     S
C813   C880    1.402   .     S
C814   H850    1.083   .     S
C814   C1002   1.383   .     S
C815   H851    1.083   .     S
C815   C817    1.400   .     A
C815   C999    1.383   .     S
C816   H852    1.083   .     S
C816   C818    1.400   .     A
C817   C876    1.402   .     S
C819   N854    1.359   .     A
C819   H865    1.082   .     S
C819   C821    1.414   .     A
C820   N853    1.359   .     A
C820   C822    1.414   .     A
C820   H866    1.082   .     S
C821   N853    1.381   .     A
C821   Br867   1.914   .     S
C822   N854    1.381   .     A
C822   Br868   1.914   .     S
C823   C825    1.467   .     S
C823   O861    1.296   .     A
C823   O921    1.301   .     S
C824   O862    1.296   .     A
C824   C826    1.469   .     S
C825   C829    1.398   .     A
C825   C831    1.399   .     A
C826   C830    1.398   .     A
C826   C832    1.400   .     A
C827   C835    1.404   .     A
C827   H845    1.083   .     S
C827   C829    1.392   .     A
C828   H846    1.083   .     S
C828   C830    1.392   .     A
C828   C836    1.404   .     A
C829   H906    1.083   .     S
C831   H842    1.075   .     S
C831   C833    1.406   .     A
C832   C834    1.406   .     A
C832   H841    1.074   .     S
C833   C835    1.418   .     A
C833   C837    1.428   .     A
C834   C836    1.418   .     A
C834   C838    1.428   .     A
C835   C253    1.390   1_556 S
C837   C280    1.426   1_556 S
Cu839  O862    1.937   .     S
Cu839  O858    1.963   .     S
Cu839  O859    1.954   .     S
Cu839  N853    2.020   .     S
Cu839  O855    1.966   .     S
Cu840  O857    1.963   .     S
Cu840  O860    1.954   .     S
Cu840  O856    1.966   .     S
Cu840  N854    2.020   .     S
Cu840  O861    1.937   .     S
Cu840  Cu901   2.688   .     S
H843   C892    1.083   .     S
O857   C869    1.293   .     S
O860   C886    1.301   .     S
C869   C880    1.450   .     S
C869   O917    1.296   .     A
C870   C879    1.450   .     S
C870   O918    1.296   .     A
C870   O796    1.293   1_655 S
C871   C900    1.417   .     A
C871   H909    1.076   .     S
C871   C873    1.387   .     A
C872   C874    1.386   .     A
C872   H910    1.076   .     S
C872   C899    1.417   .     A
C873   H925    1.085   .     S
C874   H926    1.084   .     S
C874   C340    1.390   1_556 S
C875   H911    1.083   .     S
C875   C756    1.402   1_655 S
C876   H912    1.083   .     S
C876   C1064   1.383   .     S
C877   H913    1.083   .     S
C877   C879    1.400   .     A
C877   C1061   1.383   .     S
C878   H914    1.083   .     S
C878   C880    1.400   .     A
C879   C752    1.402   1_655 S
C881   N916    1.359   .     A
C881   H927    1.082   .     S
C881   C883    1.414   .     A
C882   N915    1.359   .     A
C882   C884    1.414   .     A
C882   H928    1.082   .     S
C883   N915    1.381   .     A
C883   Br929   1.914   .     S
C884   N916    1.381   .     A
C884   Br930   1.914   .     S
C885   C887    1.467   .     S
C885   O923    1.296   .     A
C885   O797    1.301   1_655 S
C886   O924    1.296   .     A
C886   C888    1.469   .     S
C887   C891    1.398   .     A
C887   C893    1.399   .     A
C888   C892    1.398   .     A
C888   C894    1.400   .     A
C889   C897    1.404   .     A
C889   H907    1.083   .     S
C889   C891    1.392   .     A
C890   H908    1.083   .     S
C890   C892    1.392   .     A
C890   C898    1.404   .     A
C891   H782    1.083   1_655 S
C893   H904    1.075   .     S
C893   C895    1.406   .     A
C894   C896    1.406   .     A
C894   H903    1.074   .     S
C895   C897    1.418   .     A
C895   C899    1.428   .     A
C896   C898    1.418   .     A
C896   C900    1.428   .     A
C897   C315    1.390   1_556 S
C899   C342    1.426   1_556 S
Cu901  O924    1.937   .     S
Cu901  O920    1.963   .     S
Cu901  O921    1.954   .     S
Cu901  N915    2.020   .     S
Cu901  O917    1.966   .     S
Cu902  O919    1.963   .     S
Cu902  O922    1.954   .     S
Cu902  O918    1.966   .     S
Cu902  N916    2.020   .     S
Cu902  O923    1.937   .     S
Cu902  Cu777   2.688   1_655 S
H905   C768    1.083   1_655 S
O919   C745    1.293   1_655 S
O922   C762    1.301   1_655 S
C931   C942    1.450   .     S
C931   O979    1.296   .     A
C931   O1105   1.293   1_455 S
C932   C941    1.450   .     S
C932   O980    1.296   .     A
C932   O1044   1.293   .     S
C933   C962    1.417   .     A
C933   H971    1.076   .     S
C933   C935    1.387   .     A
C934   C936    1.386   .     A
C934   H972    1.076   .     S
C934   C961    1.417   .     A
C935   H987    1.085   .     S
C936   H988    1.084   .     S
C936   C402    1.390   1_556 S
C937   H973    1.083   .     S
C937   C1004   1.402   .     S
C938   H974    1.083   .     S
C938   C568    1.383   1_565 S
C938   C1065   1.402   1_455 S
C939   H975    1.083   .     S
C939   C941    1.400   .     A
C939   C565    1.383   1_565 S
C940   H976    1.083   .     S
C940   C942    1.400   .     A
C941   C1000   1.402   .     S
C942   C1061   1.402   1_455 S
C943   N978    1.359   .     A
C943   H989    1.082   .     S
C943   C945    1.414   .     A
C944   N977    1.359   .     A
C944   C946    1.414   .     A
C944   H990    1.082   .     S
C945   N977    1.381   .     A
C945   Br991   1.914   .     S
C946   N978    1.381   .     A
C946   Br992   1.914   .     S
C947   C949    1.467   .     S
C947   O985    1.296   .     A
C947   O1045   1.301   .     S
C948   O986    1.296   .     A
C948   C950    1.469   .     S
C948   O1108   1.301   1_455 S
C949   C953    1.398   .     A
C949   C955    1.399   .     A
C950   C954    1.398   .     A
C950   C956    1.400   .     A
C951   C959    1.404   .     A
C951   H969    1.083   .     S
C951   C953    1.392   .     A
C952   H970    1.083   .     S
C952   C954    1.392   .     A
C952   C960    1.404   .     A
C953   H1030   1.083   .     S
C954   H1091   1.083   1_455 S
C955   H966    1.075   .     S
C955   C957    1.406   .     A
C956   C958    1.406   .     A
C956   H965    1.074   .     S
C957   C959    1.418   .     A
C957   C961    1.428   .     A
C958   C960    1.418   .     A
C958   C962    1.428   .     A
C959   C377    1.390   1_556 S
C961   C404    1.426   1_556 S
Cu963  O986    1.937   .     S
Cu963  O982    1.963   .     S
Cu963  O983    1.954   .     S
Cu963  N977    2.020   .     S
Cu963  O979    1.966   .     S
Cu963  Cu1088  2.688   1_455 S
Cu964  O981    1.963   .     S
Cu964  O984    1.954   .     S
Cu964  O980    1.966   .     S
Cu964  N978    2.020   .     S
Cu964  O985    1.937   .     S
Cu964  Cu1025  2.688   .     S
H967   C1016   1.083   .     S
H968   C1077   1.083   1_455 S
O981   C993    1.293   .     S
O982   C1056   1.293   1_455 S
O983   C1071   1.301   1_455 S
O984   C1010   1.301   .     S
C993   C1004   1.450   .     S
C993   O1041   1.296   .     A
C994   C1003   1.450   .     S
C994   O1042   1.296   .     A
C994   O1106   1.293   .     S
C995   C1024   1.417   .     A
C995   H1033   1.076   .     S
C995   C997    1.387   .     A
C996   C998    1.386   .     A
C996   H1034   1.076   .     S
C996   C1023   1.417   .     A
C997   H1049   1.085   .     S
C998   H1050   1.084   .     S
C998   C464    1.390   1_556 S
C999   H1035   1.083   .     S
C999   C1066   1.402   .     S
C1000  H1036   1.083   .     S
C1000  C630    1.383   1_565 S
C1001  H1037   1.083   .     S
C1001  C1003   1.400   .     A
C1001  C627    1.383   1_565 S
C1002  H1038   1.083   .     S
C1002  C1004   1.400   .     A
C1003  C1062   1.402   .     S
C1005  N1040   1.359   .     A
C1005  H1051   1.082   .     S
C1005  C1007   1.414   .     A
C1006  N1039   1.359   .     A
C1006  C1008   1.414   .     A
C1006  H1052   1.082   .     S
C1007  N1039   1.381   .     A
C1007  Br1053  1.914   .     S
C1008  N1040   1.381   .     A
C1008  Br1054  1.914   .     S
C1009  C1011   1.467   .     S
C1009  O1047   1.296   .     A
C1009  O1107   1.301   .     S
C1010  O1048   1.296   .     A
C1010  C1012   1.469   .     S
C1011  C1015   1.398   .     A
C1011  C1017   1.399   .     A
C1012  C1016   1.398   .     A
C1012  C1018   1.400   .     A
C1013  C1021   1.404   .     A
C1013  H1031   1.083   .     S
C1013  C1015   1.392   .     A
C1014  H1032   1.083   .     S
C1014  C1016   1.392   .     A
C1014  C1022   1.404   .     A
C1015  H1092   1.083   .     S
C1017  H1028   1.075   .     S
C1017  C1019   1.406   .     A
C1018  C1020   1.406   .     A
C1018  H1027   1.074   .     S
C1019  C1021   1.418   .     A
C1019  C1023   1.428   .     A
C1020  C1022   1.418   .     A
C1020  C1024   1.428   .     A
C1021  C439    1.390   1_556 S
C1023  C466    1.426   1_556 S
Cu1025 O1048   1.937   .     S
Cu1025 O1044   1.963   .     S
Cu1025 O1045   1.954   .     S
Cu1025 N1039   2.020   .     S
Cu1025 O1041   1.966   .     S
Cu1026 O1043   1.963   .     S
Cu1026 O1046   1.954   .     S
Cu1026 O1042   1.966   .     S
Cu1026 N1040   2.020   .     S
Cu1026 O1047   1.937   .     S
Cu1026 Cu1087  2.688   .     S
H1029  C1078   1.083   .     S
O1043  C1055   1.293   .     S
O1046  C1072   1.301   .     S
C1055  C1066   1.450   .     S
C1055  O1103   1.296   .     A
C1056  C1065   1.450   .     S
C1056  O1104   1.296   .     A
C1056  O982    1.293   1_655 S
C1057  C1086   1.417   .     A
C1057  H1095   1.076   .     S
C1057  C1059   1.387   .     A
C1058  C1060   1.386   .     A
C1058  H1096   1.076   .     S
C1058  C1085   1.417   .     A
C1059  H1111   1.085   .     S
C1060  H1112   1.084   .     S
C1060  C526    1.390   1_556 S
C1061  H1097   1.083   .     S
C1061  C942    1.402   1_655 S
C1062  H1098   1.083   .     S
C1062  C692    1.383   1_565 S
C1063  H1099   1.083   .     S
C1063  C1065   1.400   .     A
C1063  C689    1.383   1_565 S
C1064  H1100   1.083   .     S
C1064  C1066   1.400   .     A
C1065  C938    1.402   1_655 S
C1067  N1102   1.359   .     A
C1067  H1113   1.082   .     S
C1067  C1069   1.414   .     A
C1068  N1101   1.359   .     A
C1068  C1070   1.414   .     A
C1068  H1114   1.082   .     S
C1069  N1101   1.381   .     A
C1069  Br1115  1.914   .     S
C1070  N1102   1.381   .     A
C1070  Br1116  1.914   .     S
C1071  C1073   1.467   .     S
C1071  O1109   1.296   .     A
C1071  O983    1.301   1_655 S
C1072  O1110   1.296   .     A
C1072  C1074   1.469   .     S
C1073  C1077   1.398   .     A
C1073  C1079   1.399   .     A
C1074  C1078   1.398   .     A
C1074  C1080   1.400   .     A
C1075  C1083   1.404   .     A
C1075  H1093   1.083   .     S
C1075  C1077   1.392   .     A
C1076  H1094   1.083   .     S
C1076  C1078   1.392   .     A
C1076  C1084   1.404   .     A
C1077  H968    1.083   1_655 S
C1079  H1090   1.075   .     S
C1079  C1081   1.406   .     A
C1080  C1082   1.406   .     A
C1080  H1089   1.074   .     S
C1081  C1083   1.418   .     A
C1081  C1085   1.428   .     A
C1082  C1084   1.418   .     A
C1082  C1086   1.428   .     A
C1083  C501    1.390   1_556 S
C1085  C528    1.426   1_556 S
Cu1087 O1110   1.937   .     S
Cu1087 O1106   1.963   .     S
Cu1087 O1107   1.954   .     S
Cu1087 N1101   2.020   .     S
Cu1087 O1103   1.966   .     S
Cu1088 O1105   1.963   .     S
Cu1088 O1108   1.954   .     S
Cu1088 O1104   1.966   .     S
Cu1088 N1102   2.020   .     S
Cu1088 O1109   1.937   .     S
Cu1088 Cu963   2.688   1_655 S
H1091  C954    1.083   1_655 S
O1105  C931    1.293   1_655 S
O1108  C948    1.301   1_655 S
