data_str_m3_o1_o5_pcu_sym.36
_audit_creation_date              2020-01-03
_audit_creation_method            'Materials Studio'
_symmetry_space_group_name_H-M    'P1'
_symmetry_Int_Tables_number       1
_symmetry_cell_setting            triclinic
loop_
_symmetry_equiv_pos_as_xyz
  x,y,z
_cell_length_a                    31.9066
_cell_length_b                    29.9547
_cell_length_c                    26.6919
_cell_angle_alpha                 91.0351
_cell_angle_beta                  91.6931
_cell_angle_gamma                 89.7547
loop_
_atom_site_label
_atom_site_type_symbol
_atom_site_fract_x
_atom_site_fract_y
_atom_site_fract_z
_atom_site_U_iso_or_equiv
_atom_site_adp_type
_atom_site_occupancy
C1     C     0.08697   0.16677   0.16593   0.00000  Uiso   1.00
C2     C     0.02314   0.18665   0.20677   0.00000  Uiso   1.00
C3     C     0.29076   0.16522   0.16765   0.00000  Uiso   1.00
C4     C     0.04281   0.16718   0.16559   0.00000  Uiso   1.00
C5     C     0.18420   0.02454   0.20603   0.00000  Uiso   1.00
C6     C     0.14906   0.30848   0.12732   0.00000  Uiso   1.00
C7     C     0.14905   0.02312   0.12713   0.00000  Uiso   1.00
C8     C     0.18105   0.31016   0.20773   0.00000  Uiso   1.00
C9     C     0.05500   0.15642   0.04749   0.00000  Uiso   1.00
C10    C     0.27958   0.16511   0.28509   0.00000  Uiso   1.00
C11    C     0.27689   0.07847   0.08962   0.00000  Uiso   1.00
C12    C     0.24645   0.16643   0.16709   0.00000  Uiso   1.00
C13    C     0.05539   0.25242   0.24697   0.00000  Uiso   1.00
C14    C     0.25024   0.05002   0.24287   0.00000  Uiso   1.00
C15    C     0.08263   0.28500   0.08899   0.00000  Uiso   1.00
C16    C     0.14587   0.04160   0.03765   0.00000  Uiso   1.00
C17    C     0.22793   0.27697   0.27104   0.00000  Uiso   1.00
C18    C     0.16695   0.16644   0.07304   0.00000  Uiso   1.00
C19    C     0.16649   0.16693   0.26030   0.00000  Uiso   1.00
C20    C     0.16691   0.16647   0.02183   0.00000  Uiso   1.00
C21    C     0.16668   0.16713   0.31151   0.00000  Uiso   1.00
C22    C     0.02071   0.14591   0.12579   0.00000  Uiso   1.00
C23    C     0.31311   0.18434   0.20865   0.00000  Uiso   1.00
C24    C     0.31056   0.14471   0.12697   0.00000  Uiso   1.00
H25    H     0.02875   0.09716   0.07019   0.00000  Uiso   1.00
H26    H     0.29356   0.05913   0.06035   0.00000  Uiso   1.00
H27    H     0.24267   0.07354   0.08333   0.00000  Uiso   1.00
H28    H     0.28621   0.06497   0.12685   0.00000  Uiso   1.00
H29    H     0.04014   0.19329   0.28253   0.00000  Uiso   1.00
H30    H     0.03782   0.26981   0.27693   0.00000  Uiso   1.00
H31    H     0.04591   0.26701   0.21033   0.00000  Uiso   1.00
H32    H     0.08938   0.25850   0.25390   0.00000  Uiso   1.00
H33    H     0.19557   0.03971   0.28098   0.00000  Uiso   1.00
H34    H     0.25966   0.06960   0.21061   0.00000  Uiso   1.00
H35    H     0.26399   0.01636   0.23801   0.00000  Uiso   1.00
H36    H     0.07111   0.13787   0.01717   0.00000  Uiso   1.00
H37    H     0.26401   0.06547   0.27767   0.00000  Uiso   1.00
H38    H     0.13980   0.28769   0.05328   0.00000  Uiso   1.00
H39    H     0.07059   0.31881   0.08003   0.00000  Uiso   1.00
H40    H     0.07149   0.27540   0.12623   0.00000  Uiso   1.00
H41    H     0.06956   0.26120   0.06034   0.00000  Uiso   1.00
H42    H     0.11189   0.07406   0.09512   0.00000  Uiso   1.00
H43    H     0.15137   0.07513   0.02248   0.00000  Uiso   1.00
H44    H     0.12341   0.02410   0.01164   0.00000  Uiso   1.00
H45    H     0.17622   0.02318   0.03861   0.00000  Uiso   1.00
H46    H     0.16772   0.30156   0.28261   0.00000  Uiso   1.00
H47    H     0.02710   0.17383   0.03134   0.00000  Uiso   1.00
H48    H     0.24056   0.30266   0.29783   0.00000  Uiso   1.00
H49    H     0.24881   0.27297   0.23869   0.00000  Uiso   1.00
H50    H     0.22688   0.24519   0.29145   0.00000  Uiso   1.00
H51    H     0.07709   0.18149   0.06391   0.00000  Uiso   1.00
H52    H     0.30635   0.22622   0.27096   0.00000  Uiso   1.00
H53    H     0.26566   0.18020   0.31907   0.00000  Uiso   1.00
H54    H     0.30716   0.14451   0.29652   0.00000  Uiso   1.00
H55    H     0.25553   0.14362   0.26634   0.00000  Uiso   1.00
H56    H     0.29571   0.13458   0.05125   0.00000  Uiso   1.00
N57    N     0.16667   0.28573   0.16667   0.00000  Uiso   1.00
N58    N     0.18595   0.28866   0.25451   0.00000  Uiso   1.00
N59    N     0.16667   0.04760   0.16667   0.00000  Uiso   1.00
N60    N     0.04245   0.12565   0.08527   0.00000  Uiso   1.00
N61    N     0.29201   0.19996   0.25193   0.00000  Uiso   1.00
N62    N     0.28641   0.12559   0.08621   0.00000  Uiso   1.00
N63    N     0.04757   0.20482   0.24784   0.00000  Uiso   1.00
N64    N     0.20496   0.04846   0.24593   0.00000  Uiso   1.00
N65    N     0.12797   0.28368   0.08837   0.00000  Uiso   1.00
N66    N     0.12804   0.04526   0.08692   0.00000  Uiso   1.00
O67    O     0.10559   0.20487   0.16666   0.00000  Uiso   1.00
O68    O     0.22774   0.12846   0.16667   0.00000  Uiso   1.00
O69    O     0.22774   0.20487   0.16667   0.00000  Uiso   1.00
O70    O     0.10559   0.12846   0.16666   0.00000  Uiso   1.00
O71    O     0.16667   0.20488   0.09511   0.00000  Uiso   1.00
O72    O     0.16666   0.12845   0.23822   0.00000  Uiso   1.00
O73    O     0.16666   0.20488   0.23822   0.00000  Uiso   1.00
O74    O     0.16667   0.12845   0.09511   0.00000  Uiso   1.00
Zn75   Zn    0.16667   0.21771   0.16667   0.00000  Uiso   1.00
Zn76   Zn    0.16667   0.11563   0.16667   0.00000  Uiso   1.00
C77    C     0.42030   0.16677   0.16593   0.00000  Uiso   1.00
C78    C     0.35647   0.18665   0.20677   0.00000  Uiso   1.00
C79    C     0.62410   0.16522   0.16765   0.00000  Uiso   1.00
C80    C     0.37614   0.16718   0.16559   0.00000  Uiso   1.00
C81    C     0.51753   0.02454   0.20603   0.00000  Uiso   1.00
C82    C     0.48239   0.30848   0.12732   0.00000  Uiso   1.00
C83    C     0.48238   0.02312   0.12713   0.00000  Uiso   1.00
C84    C     0.51438   0.31016   0.20773   0.00000  Uiso   1.00
C85    C     0.38834   0.15642   0.04749   0.00000  Uiso   1.00
C86    C     0.61292   0.16511   0.28509   0.00000  Uiso   1.00
C87    C     0.61022   0.07847   0.08962   0.00000  Uiso   1.00
C88    C     0.57978   0.16643   0.16709   0.00000  Uiso   1.00
C89    C     0.38873   0.25242   0.24697   0.00000  Uiso   1.00
C90    C     0.58357   0.05002   0.24287   0.00000  Uiso   1.00
C91    C     0.41596   0.28500   0.08899   0.00000  Uiso   1.00
C92    C     0.47921   0.04160   0.03765   0.00000  Uiso   1.00
C93    C     0.56127   0.27697   0.27104   0.00000  Uiso   1.00
C94    C     0.50029   0.16644   0.07304   0.00000  Uiso   1.00
C95    C     0.49983   0.16693   0.26030   0.00000  Uiso   1.00
C96    C     0.50025   0.16647   0.02183   0.00000  Uiso   1.00
C97    C     0.50002   0.16713   0.31151   0.00000  Uiso   1.00
C98    C     0.35405   0.14591   0.12579   0.00000  Uiso   1.00
C99    C     0.64644   0.18434   0.20865   0.00000  Uiso   1.00
C100   C     0.64390   0.14471   0.12697   0.00000  Uiso   1.00
H101   H     0.36209   0.09716   0.07019   0.00000  Uiso   1.00
H102   H     0.62690   0.05913   0.06035   0.00000  Uiso   1.00
H103   H     0.57601   0.07354   0.08333   0.00000  Uiso   1.00
H104   H     0.61955   0.06497   0.12685   0.00000  Uiso   1.00
H105   H     0.37348   0.19329   0.28253   0.00000  Uiso   1.00
H106   H     0.37116   0.26981   0.27693   0.00000  Uiso   1.00
H107   H     0.37924   0.26701   0.21033   0.00000  Uiso   1.00
H108   H     0.42271   0.25850   0.25390   0.00000  Uiso   1.00
H109   H     0.52890   0.03971   0.28098   0.00000  Uiso   1.00
H110   H     0.59299   0.06960   0.21061   0.00000  Uiso   1.00
H111   H     0.59732   0.01636   0.23801   0.00000  Uiso   1.00
H112   H     0.40444   0.13787   0.01717   0.00000  Uiso   1.00
H113   H     0.59734   0.06547   0.27767   0.00000  Uiso   1.00
H114   H     0.47313   0.28769   0.05328   0.00000  Uiso   1.00
H115   H     0.40393   0.31881   0.08003   0.00000  Uiso   1.00
H116   H     0.40483   0.27540   0.12623   0.00000  Uiso   1.00
H117   H     0.40290   0.26120   0.06034   0.00000  Uiso   1.00
H118   H     0.44523   0.07406   0.09512   0.00000  Uiso   1.00
H119   H     0.48470   0.07513   0.02248   0.00000  Uiso   1.00
H120   H     0.45675   0.02410   0.01164   0.00000  Uiso   1.00
H121   H     0.50955   0.02318   0.03861   0.00000  Uiso   1.00
H122   H     0.50105   0.30156   0.28261   0.00000  Uiso   1.00
H123   H     0.36043   0.17383   0.03134   0.00000  Uiso   1.00
H124   H     0.57390   0.30266   0.29783   0.00000  Uiso   1.00
H125   H     0.58215   0.27297   0.23869   0.00000  Uiso   1.00
H126   H     0.56021   0.24519   0.29145   0.00000  Uiso   1.00
H127   H     0.41042   0.18149   0.06391   0.00000  Uiso   1.00
H128   H     0.63968   0.22622   0.27096   0.00000  Uiso   1.00
H129   H     0.59899   0.18020   0.31907   0.00000  Uiso   1.00
H130   H     0.64050   0.14451   0.29652   0.00000  Uiso   1.00
H131   H     0.58887   0.14362   0.26634   0.00000  Uiso   1.00
H132   H     0.62905   0.13458   0.05125   0.00000  Uiso   1.00
N133   N     0.50000   0.28573   0.16667   0.00000  Uiso   1.00
N134   N     0.51928   0.28866   0.25451   0.00000  Uiso   1.00
N135   N     0.50000   0.04760   0.16667   0.00000  Uiso   1.00
N136   N     0.37579   0.12565   0.08527   0.00000  Uiso   1.00
N137   N     0.62534   0.19996   0.25193   0.00000  Uiso   1.00
N138   N     0.61974   0.12559   0.08621   0.00000  Uiso   1.00
N139   N     0.38090   0.20482   0.24784   0.00000  Uiso   1.00
N140   N     0.53829   0.04846   0.24593   0.00000  Uiso   1.00
N141   N     0.46130   0.28368   0.08837   0.00000  Uiso   1.00
N142   N     0.46138   0.04526   0.08692   0.00000  Uiso   1.00
O143   O     0.43892   0.20487   0.16666   0.00000  Uiso   1.00
O144   O     0.56108   0.12846   0.16667   0.00000  Uiso   1.00
O145   O     0.56108   0.20487   0.16667   0.00000  Uiso   1.00
O146   O     0.43892   0.12846   0.16666   0.00000  Uiso   1.00
O147   O     0.50000   0.20488   0.09511   0.00000  Uiso   1.00
O148   O     0.50000   0.12845   0.23822   0.00000  Uiso   1.00
O149   O     0.50000   0.20488   0.23822   0.00000  Uiso   1.00
O150   O     0.50000   0.12845   0.09511   0.00000  Uiso   1.00
Zn151  Zn    0.50000   0.21771   0.16667   0.00000  Uiso   1.00
Zn152  Zn    0.50000   0.11563   0.16667   0.00000  Uiso   1.00
C153   C     0.75364   0.16677   0.16593   0.00000  Uiso   1.00
C154   C     0.68980   0.18665   0.20677   0.00000  Uiso   1.00
C155   C     0.95743   0.16522   0.16765   0.00000  Uiso   1.00
C156   C     0.70947   0.16718   0.16559   0.00000  Uiso   1.00
C157   C     0.85086   0.02454   0.20603   0.00000  Uiso   1.00
C158   C     0.81573   0.30848   0.12732   0.00000  Uiso   1.00
C159   C     0.81571   0.02312   0.12713   0.00000  Uiso   1.00
C160   C     0.84771   0.31016   0.20773   0.00000  Uiso   1.00
C161   C     0.72167   0.15642   0.04749   0.00000  Uiso   1.00
C162   C     0.94625   0.16511   0.28509   0.00000  Uiso   1.00
C163   C     0.94356   0.07847   0.08962   0.00000  Uiso   1.00
C164   C     0.91311   0.16643   0.16709   0.00000  Uiso   1.00
C165   C     0.72206   0.25242   0.24697   0.00000  Uiso   1.00
C166   C     0.91690   0.05002   0.24287   0.00000  Uiso   1.00
C167   C     0.74930   0.28500   0.08899   0.00000  Uiso   1.00
C168   C     0.81254   0.04160   0.03765   0.00000  Uiso   1.00
C169   C     0.89460   0.27697   0.27104   0.00000  Uiso   1.00
C170   C     0.83362   0.16644   0.07304   0.00000  Uiso   1.00
C171   C     0.83316   0.16693   0.26030   0.00000  Uiso   1.00
C172   C     0.83358   0.16647   0.02183   0.00000  Uiso   1.00
C173   C     0.83335   0.16713   0.31151   0.00000  Uiso   1.00
C174   C     0.68738   0.14591   0.12579   0.00000  Uiso   1.00
C175   C     0.97977   0.18434   0.20865   0.00000  Uiso   1.00
C176   C     0.97723   0.14471   0.12697   0.00000  Uiso   1.00
H177   H     0.69542   0.09716   0.07019   0.00000  Uiso   1.00
H178   H     0.96023   0.05913   0.06035   0.00000  Uiso   1.00
H179   H     0.90934   0.07354   0.08333   0.00000  Uiso   1.00
H180   H     0.95288   0.06497   0.12685   0.00000  Uiso   1.00
H181   H     0.70681   0.19329   0.28253   0.00000  Uiso   1.00
H182   H     0.70449   0.26981   0.27693   0.00000  Uiso   1.00
H183   H     0.71258   0.26701   0.21033   0.00000  Uiso   1.00
H184   H     0.75604   0.25850   0.25390   0.00000  Uiso   1.00
H185   H     0.86223   0.03971   0.28098   0.00000  Uiso   1.00
H186   H     0.92632   0.06960   0.21061   0.00000  Uiso   1.00
H187   H     0.93066   0.01636   0.23801   0.00000  Uiso   1.00
H188   H     0.73777   0.13787   0.01717   0.00000  Uiso   1.00
H189   H     0.93068   0.06547   0.27767   0.00000  Uiso   1.00
H190   H     0.80647   0.28769   0.05328   0.00000  Uiso   1.00
H191   H     0.73726   0.31881   0.08003   0.00000  Uiso   1.00
H192   H     0.73816   0.27540   0.12623   0.00000  Uiso   1.00
H193   H     0.73623   0.26120   0.06034   0.00000  Uiso   1.00
H194   H     0.77856   0.07406   0.09512   0.00000  Uiso   1.00
H195   H     0.81804   0.07513   0.02248   0.00000  Uiso   1.00
H196   H     0.79008   0.02410   0.01164   0.00000  Uiso   1.00
H197   H     0.84289   0.02318   0.03861   0.00000  Uiso   1.00
H198   H     0.83438   0.30156   0.28261   0.00000  Uiso   1.00
H199   H     0.69376   0.17383   0.03134   0.00000  Uiso   1.00
H200   H     0.90723   0.30266   0.29783   0.00000  Uiso   1.00
H201   H     0.91548   0.27297   0.23869   0.00000  Uiso   1.00
H202   H     0.89354   0.24519   0.29145   0.00000  Uiso   1.00
H203   H     0.74376   0.18149   0.06391   0.00000  Uiso   1.00
H204   H     0.97301   0.22622   0.27096   0.00000  Uiso   1.00
H205   H     0.93233   0.18020   0.31907   0.00000  Uiso   1.00
H206   H     0.97383   0.14451   0.29652   0.00000  Uiso   1.00
H207   H     0.92220   0.14362   0.26634   0.00000  Uiso   1.00
H208   H     0.96238   0.13458   0.05125   0.00000  Uiso   1.00
N209   N     0.83333   0.28573   0.16667   0.00000  Uiso   1.00
N210   N     0.85261   0.28866   0.25451   0.00000  Uiso   1.00
N211   N     0.83333   0.04760   0.16667   0.00000  Uiso   1.00
N212   N     0.70912   0.12565   0.08527   0.00000  Uiso   1.00
N213   N     0.95867   0.19996   0.25193   0.00000  Uiso   1.00
N214   N     0.95308   0.12559   0.08621   0.00000  Uiso   1.00
N215   N     0.71424   0.20482   0.24784   0.00000  Uiso   1.00
N216   N     0.87162   0.04846   0.24593   0.00000  Uiso   1.00
N217   N     0.79464   0.28368   0.08837   0.00000  Uiso   1.00
N218   N     0.79471   0.04526   0.08692   0.00000  Uiso   1.00
O219   O     0.77226   0.20487   0.16666   0.00000  Uiso   1.00
O220   O     0.89441   0.12846   0.16667   0.00000  Uiso   1.00
O221   O     0.89441   0.20487   0.16667   0.00000  Uiso   1.00
O222   O     0.77226   0.12846   0.16666   0.00000  Uiso   1.00
O223   O     0.83334   0.20488   0.09511   0.00000  Uiso   1.00
O224   O     0.83333   0.12845   0.23822   0.00000  Uiso   1.00
O225   O     0.83333   0.20488   0.23822   0.00000  Uiso   1.00
O226   O     0.83334   0.12845   0.09511   0.00000  Uiso   1.00
Zn227  Zn    0.83333   0.21771   0.16667   0.00000  Uiso   1.00
Zn228  Zn    0.83333   0.11563   0.16667   0.00000  Uiso   1.00
C229   C     0.08697   0.50011   0.16593   0.00000  Uiso   1.00
C230   C     0.02314   0.51998   0.20677   0.00000  Uiso   1.00
C231   C     0.29076   0.49855   0.16765   0.00000  Uiso   1.00
C232   C     0.04281   0.50051   0.16559   0.00000  Uiso   1.00
C233   C     0.18420   0.35787   0.20603   0.00000  Uiso   1.00
C234   C     0.14906   0.64182   0.12732   0.00000  Uiso   1.00
C235   C     0.14905   0.35645   0.12713   0.00000  Uiso   1.00
C236   C     0.18105   0.64350   0.20773   0.00000  Uiso   1.00
C237   C     0.05500   0.48975   0.04749   0.00000  Uiso   1.00
C238   C     0.27958   0.49845   0.28509   0.00000  Uiso   1.00
C239   C     0.27689   0.41180   0.08962   0.00000  Uiso   1.00
C240   C     0.24645   0.49976   0.16709   0.00000  Uiso   1.00
C241   C     0.05539   0.58576   0.24697   0.00000  Uiso   1.00
C242   C     0.25024   0.38335   0.24287   0.00000  Uiso   1.00
C243   C     0.08263   0.61833   0.08899   0.00000  Uiso   1.00
C244   C     0.14587   0.37494   0.03765   0.00000  Uiso   1.00
C245   C     0.22793   0.61030   0.27104   0.00000  Uiso   1.00
C246   C     0.16695   0.49978   0.07304   0.00000  Uiso   1.00
C247   C     0.16649   0.50027   0.26030   0.00000  Uiso   1.00
C248   C     0.16691   0.49980   0.02183   0.00000  Uiso   1.00
C249   C     0.16668   0.50046   0.31151   0.00000  Uiso   1.00
C250   C     0.02071   0.47924   0.12579   0.00000  Uiso   1.00
C251   C     0.31311   0.51768   0.20865   0.00000  Uiso   1.00
C252   C     0.31056   0.47804   0.12697   0.00000  Uiso   1.00
H253   H     0.02875   0.43050   0.07019   0.00000  Uiso   1.00
H254   H     0.29356   0.39246   0.06035   0.00000  Uiso   1.00
H255   H     0.24267   0.40687   0.08333   0.00000  Uiso   1.00
H256   H     0.28621   0.39830   0.12685   0.00000  Uiso   1.00
H257   H     0.04014   0.52663   0.28253   0.00000  Uiso   1.00
H258   H     0.03782   0.60314   0.27693   0.00000  Uiso   1.00
H259   H     0.04591   0.60034   0.21033   0.00000  Uiso   1.00
H260   H     0.08938   0.59184   0.25390   0.00000  Uiso   1.00
H261   H     0.19557   0.37305   0.28098   0.00000  Uiso   1.00
H262   H     0.25966   0.40293   0.21061   0.00000  Uiso   1.00
H263   H     0.26399   0.34969   0.23801   0.00000  Uiso   1.00
H264   H     0.07111   0.47121   0.01717   0.00000  Uiso   1.00
H265   H     0.26401   0.39880   0.27767   0.00000  Uiso   1.00
H266   H     0.13980   0.62103   0.05328   0.00000  Uiso   1.00
H267   H     0.07059   0.65214   0.08003   0.00000  Uiso   1.00
H268   H     0.07149   0.60873   0.12623   0.00000  Uiso   1.00
H269   H     0.06956   0.59454   0.06034   0.00000  Uiso   1.00
H270   H     0.11189   0.40739   0.09512   0.00000  Uiso   1.00
H271   H     0.15137   0.40847   0.02248   0.00000  Uiso   1.00
H272   H     0.12341   0.35743   0.01164   0.00000  Uiso   1.00
H273   H     0.17622   0.35651   0.03861   0.00000  Uiso   1.00
H274   H     0.16772   0.63489   0.28261   0.00000  Uiso   1.00
H275   H     0.02710   0.50716   0.03134   0.00000  Uiso   1.00
H276   H     0.24056   0.63599   0.29783   0.00000  Uiso   1.00
H277   H     0.24881   0.60630   0.23869   0.00000  Uiso   1.00
H278   H     0.22688   0.57852   0.29145   0.00000  Uiso   1.00
H279   H     0.07709   0.51483   0.06391   0.00000  Uiso   1.00
H280   H     0.30635   0.55955   0.27096   0.00000  Uiso   1.00
H281   H     0.26566   0.51353   0.31907   0.00000  Uiso   1.00
H282   H     0.30716   0.47784   0.29652   0.00000  Uiso   1.00
H283   H     0.25553   0.47695   0.26634   0.00000  Uiso   1.00
H284   H     0.29571   0.46791   0.05125   0.00000  Uiso   1.00
N285   N     0.16667   0.61907   0.16667   0.00000  Uiso   1.00
N286   N     0.18595   0.62199   0.25451   0.00000  Uiso   1.00
N287   N     0.16667   0.38093   0.16667   0.00000  Uiso   1.00
N288   N     0.04245   0.45898   0.08527   0.00000  Uiso   1.00
N289   N     0.29201   0.53329   0.25193   0.00000  Uiso   1.00
N290   N     0.28641   0.45893   0.08621   0.00000  Uiso   1.00
N291   N     0.04757   0.53815   0.24784   0.00000  Uiso   1.00
N292   N     0.20496   0.38179   0.24593   0.00000  Uiso   1.00
N293   N     0.12797   0.61702   0.08837   0.00000  Uiso   1.00
N294   N     0.12804   0.37859   0.08692   0.00000  Uiso   1.00
O295   O     0.10559   0.53821   0.16666   0.00000  Uiso   1.00
O296   O     0.22774   0.46179   0.16667   0.00000  Uiso   1.00
O297   O     0.22774   0.53821   0.16667   0.00000  Uiso   1.00
O298   O     0.10559   0.46179   0.16666   0.00000  Uiso   1.00
O299   O     0.16667   0.53821   0.09511   0.00000  Uiso   1.00
O300   O     0.16666   0.46179   0.23822   0.00000  Uiso   1.00
O301   O     0.16666   0.53821   0.23822   0.00000  Uiso   1.00
O302   O     0.16667   0.46179   0.09511   0.00000  Uiso   1.00
Zn303  Zn    0.16667   0.55104   0.16667   0.00000  Uiso   1.00
Zn304  Zn    0.16667   0.44896   0.16667   0.00000  Uiso   1.00
C305   C     0.42030   0.50011   0.16593   0.00000  Uiso   1.00
C306   C     0.35647   0.51998   0.20677   0.00000  Uiso   1.00
C307   C     0.62410   0.49855   0.16765   0.00000  Uiso   1.00
C308   C     0.37614   0.50051   0.16559   0.00000  Uiso   1.00
C309   C     0.51753   0.35787   0.20603   0.00000  Uiso   1.00
C310   C     0.48239   0.64182   0.12732   0.00000  Uiso   1.00
C311   C     0.48238   0.35645   0.12713   0.00000  Uiso   1.00
C312   C     0.51438   0.64350   0.20773   0.00000  Uiso   1.00
C313   C     0.38834   0.48975   0.04749   0.00000  Uiso   1.00
C314   C     0.61292   0.49845   0.28509   0.00000  Uiso   1.00
C315   C     0.61022   0.41180   0.08962   0.00000  Uiso   1.00
C316   C     0.57978   0.49976   0.16709   0.00000  Uiso   1.00
C317   C     0.38873   0.58576   0.24697   0.00000  Uiso   1.00
C318   C     0.58357   0.38335   0.24287   0.00000  Uiso   1.00
C319   C     0.41596   0.61833   0.08899   0.00000  Uiso   1.00
C320   C     0.47921   0.37494   0.03765   0.00000  Uiso   1.00
C321   C     0.56127   0.61030   0.27104   0.00000  Uiso   1.00
C322   C     0.50029   0.49978   0.07304   0.00000  Uiso   1.00
C323   C     0.49983   0.50027   0.26030   0.00000  Uiso   1.00
C324   C     0.50025   0.49980   0.02183   0.00000  Uiso   1.00
C325   C     0.50002   0.50046   0.31151   0.00000  Uiso   1.00
C326   C     0.35405   0.47924   0.12579   0.00000  Uiso   1.00
C327   C     0.64644   0.51768   0.20865   0.00000  Uiso   1.00
C328   C     0.64390   0.47804   0.12697   0.00000  Uiso   1.00
H329   H     0.36209   0.43050   0.07019   0.00000  Uiso   1.00
H330   H     0.62690   0.39246   0.06035   0.00000  Uiso   1.00
H331   H     0.57601   0.40687   0.08333   0.00000  Uiso   1.00
H332   H     0.61955   0.39830   0.12685   0.00000  Uiso   1.00
H333   H     0.37348   0.52663   0.28253   0.00000  Uiso   1.00
H334   H     0.37116   0.60314   0.27693   0.00000  Uiso   1.00
H335   H     0.37924   0.60034   0.21033   0.00000  Uiso   1.00
H336   H     0.42271   0.59184   0.25390   0.00000  Uiso   1.00
H337   H     0.52890   0.37305   0.28098   0.00000  Uiso   1.00
H338   H     0.59299   0.40293   0.21061   0.00000  Uiso   1.00
H339   H     0.59732   0.34969   0.23801   0.00000  Uiso   1.00
H340   H     0.40444   0.47121   0.01717   0.00000  Uiso   1.00
H341   H     0.59734   0.39880   0.27767   0.00000  Uiso   1.00
H342   H     0.47313   0.62103   0.05328   0.00000  Uiso   1.00
H343   H     0.40393   0.65214   0.08003   0.00000  Uiso   1.00
H344   H     0.40483   0.60873   0.12623   0.00000  Uiso   1.00
H345   H     0.40290   0.59454   0.06034   0.00000  Uiso   1.00
H346   H     0.44523   0.40739   0.09512   0.00000  Uiso   1.00
H347   H     0.48470   0.40847   0.02248   0.00000  Uiso   1.00
H348   H     0.45675   0.35743   0.01164   0.00000  Uiso   1.00
H349   H     0.50955   0.35651   0.03861   0.00000  Uiso   1.00
H350   H     0.50105   0.63489   0.28261   0.00000  Uiso   1.00
H351   H     0.36043   0.50716   0.03134   0.00000  Uiso   1.00
H352   H     0.57390   0.63599   0.29783   0.00000  Uiso   1.00
H353   H     0.58215   0.60630   0.23869   0.00000  Uiso   1.00
H354   H     0.56021   0.57852   0.29145   0.00000  Uiso   1.00
H355   H     0.41042   0.51483   0.06391   0.00000  Uiso   1.00
H356   H     0.63968   0.55955   0.27096   0.00000  Uiso   1.00
H357   H     0.59899   0.51353   0.31907   0.00000  Uiso   1.00
H358   H     0.64050   0.47784   0.29652   0.00000  Uiso   1.00
H359   H     0.58887   0.47695   0.26634   0.00000  Uiso   1.00
H360   H     0.62905   0.46791   0.05125   0.00000  Uiso   1.00
N361   N     0.50000   0.61907   0.16667   0.00000  Uiso   1.00
N362   N     0.51928   0.62199   0.25451   0.00000  Uiso   1.00
N363   N     0.50000   0.38093   0.16667   0.00000  Uiso   1.00
N364   N     0.37579   0.45898   0.08527   0.00000  Uiso   1.00
N365   N     0.62534   0.53329   0.25193   0.00000  Uiso   1.00
N366   N     0.61974   0.45893   0.08621   0.00000  Uiso   1.00
N367   N     0.38090   0.53815   0.24784   0.00000  Uiso   1.00
N368   N     0.53829   0.38179   0.24593   0.00000  Uiso   1.00
N369   N     0.46130   0.61702   0.08837   0.00000  Uiso   1.00
N370   N     0.46138   0.37859   0.08692   0.00000  Uiso   1.00
O371   O     0.43892   0.53821   0.16666   0.00000  Uiso   1.00
O372   O     0.56108   0.46179   0.16667   0.00000  Uiso   1.00
O373   O     0.56108   0.53821   0.16667   0.00000  Uiso   1.00
O374   O     0.43892   0.46179   0.16666   0.00000  Uiso   1.00
O375   O     0.50000   0.53821   0.09511   0.00000  Uiso   1.00
O376   O     0.50000   0.46179   0.23822   0.00000  Uiso   1.00
O377   O     0.50000   0.53821   0.23822   0.00000  Uiso   1.00
O378   O     0.50000   0.46179   0.09511   0.00000  Uiso   1.00
Zn379  Zn    0.50000   0.55104   0.16667   0.00000  Uiso   1.00
Zn380  Zn    0.50000   0.44896   0.16667   0.00000  Uiso   1.00
C381   C     0.75364   0.50011   0.16593   0.00000  Uiso   1.00
C382   C     0.68980   0.51998   0.20677   0.00000  Uiso   1.00
C383   C     0.95743   0.49855   0.16765   0.00000  Uiso   1.00
C384   C     0.70947   0.50051   0.16559   0.00000  Uiso   1.00
C385   C     0.85086   0.35787   0.20603   0.00000  Uiso   1.00
C386   C     0.81573   0.64182   0.12732   0.00000  Uiso   1.00
C387   C     0.81571   0.35645   0.12713   0.00000  Uiso   1.00
C388   C     0.84771   0.64350   0.20773   0.00000  Uiso   1.00
C389   C     0.72167   0.48975   0.04749   0.00000  Uiso   1.00
C390   C     0.94625   0.49845   0.28509   0.00000  Uiso   1.00
C391   C     0.94356   0.41180   0.08962   0.00000  Uiso   1.00
C392   C     0.91311   0.49976   0.16709   0.00000  Uiso   1.00
C393   C     0.72206   0.58576   0.24697   0.00000  Uiso   1.00
C394   C     0.91690   0.38335   0.24287   0.00000  Uiso   1.00
C395   C     0.74930   0.61833   0.08899   0.00000  Uiso   1.00
C396   C     0.81254   0.37494   0.03765   0.00000  Uiso   1.00
C397   C     0.89460   0.61030   0.27104   0.00000  Uiso   1.00
C398   C     0.83362   0.49978   0.07304   0.00000  Uiso   1.00
C399   C     0.83316   0.50027   0.26030   0.00000  Uiso   1.00
C400   C     0.83358   0.49980   0.02183   0.00000  Uiso   1.00
C401   C     0.83335   0.50046   0.31151   0.00000  Uiso   1.00
C402   C     0.68738   0.47924   0.12579   0.00000  Uiso   1.00
C403   C     0.97977   0.51768   0.20865   0.00000  Uiso   1.00
C404   C     0.97723   0.47804   0.12697   0.00000  Uiso   1.00
H405   H     0.69542   0.43050   0.07019   0.00000  Uiso   1.00
H406   H     0.96023   0.39246   0.06035   0.00000  Uiso   1.00
H407   H     0.90934   0.40687   0.08333   0.00000  Uiso   1.00
H408   H     0.95288   0.39830   0.12685   0.00000  Uiso   1.00
H409   H     0.70681   0.52663   0.28253   0.00000  Uiso   1.00
H410   H     0.70449   0.60314   0.27693   0.00000  Uiso   1.00
H411   H     0.71258   0.60034   0.21033   0.00000  Uiso   1.00
H412   H     0.75604   0.59184   0.25390   0.00000  Uiso   1.00
H413   H     0.86223   0.37305   0.28098   0.00000  Uiso   1.00
H414   H     0.92632   0.40293   0.21061   0.00000  Uiso   1.00
H415   H     0.93066   0.34969   0.23801   0.00000  Uiso   1.00
H416   H     0.73777   0.47121   0.01717   0.00000  Uiso   1.00
H417   H     0.93068   0.39880   0.27767   0.00000  Uiso   1.00
H418   H     0.80647   0.62103   0.05328   0.00000  Uiso   1.00
H419   H     0.73726   0.65214   0.08003   0.00000  Uiso   1.00
H420   H     0.73816   0.60873   0.12623   0.00000  Uiso   1.00
H421   H     0.73623   0.59454   0.06034   0.00000  Uiso   1.00
H422   H     0.77856   0.40739   0.09512   0.00000  Uiso   1.00
H423   H     0.81804   0.40847   0.02248   0.00000  Uiso   1.00
H424   H     0.79008   0.35743   0.01164   0.00000  Uiso   1.00
H425   H     0.84289   0.35651   0.03861   0.00000  Uiso   1.00
H426   H     0.83438   0.63489   0.28261   0.00000  Uiso   1.00
H427   H     0.69376   0.50716   0.03134   0.00000  Uiso   1.00
H428   H     0.90723   0.63599   0.29783   0.00000  Uiso   1.00
H429   H     0.91548   0.60630   0.23869   0.00000  Uiso   1.00
H430   H     0.89354   0.57852   0.29145   0.00000  Uiso   1.00
H431   H     0.74376   0.51483   0.06391   0.00000  Uiso   1.00
H432   H     0.97301   0.55955   0.27096   0.00000  Uiso   1.00
H433   H     0.93233   0.51353   0.31907   0.00000  Uiso   1.00
H434   H     0.97383   0.47784   0.29652   0.00000  Uiso   1.00
H435   H     0.92220   0.47695   0.26634   0.00000  Uiso   1.00
H436   H     0.96238   0.46791   0.05125   0.00000  Uiso   1.00
N437   N     0.83333   0.61907   0.16667   0.00000  Uiso   1.00
N438   N     0.85261   0.62199   0.25451   0.00000  Uiso   1.00
N439   N     0.83333   0.38093   0.16667   0.00000  Uiso   1.00
N440   N     0.70912   0.45898   0.08527   0.00000  Uiso   1.00
N441   N     0.95867   0.53329   0.25193   0.00000  Uiso   1.00
N442   N     0.95308   0.45893   0.08621   0.00000  Uiso   1.00
N443   N     0.71424   0.53815   0.24784   0.00000  Uiso   1.00
N444   N     0.87162   0.38179   0.24593   0.00000  Uiso   1.00
N445   N     0.79464   0.61702   0.08837   0.00000  Uiso   1.00
N446   N     0.79471   0.37859   0.08692   0.00000  Uiso   1.00
O447   O     0.77226   0.53821   0.16666   0.00000  Uiso   1.00
O448   O     0.89441   0.46179   0.16667   0.00000  Uiso   1.00
O449   O     0.89441   0.53821   0.16667   0.00000  Uiso   1.00
O450   O     0.77226   0.46179   0.16666   0.00000  Uiso   1.00
O451   O     0.83334   0.53821   0.09511   0.00000  Uiso   1.00
O452   O     0.83333   0.46179   0.23822   0.00000  Uiso   1.00
O453   O     0.83333   0.53821   0.23822   0.00000  Uiso   1.00
O454   O     0.83334   0.46179   0.09511   0.00000  Uiso   1.00
Zn455  Zn    0.83333   0.55104   0.16667   0.00000  Uiso   1.00
Zn456  Zn    0.83333   0.44896   0.16667   0.00000  Uiso   1.00
C457   C     0.08697   0.83344   0.16593   0.00000  Uiso   1.00
C458   C     0.02314   0.85332   0.20677   0.00000  Uiso   1.00
C459   C     0.29076   0.83189   0.16765   0.00000  Uiso   1.00
C460   C     0.04281   0.83385   0.16559   0.00000  Uiso   1.00
C461   C     0.18420   0.69120   0.20603   0.00000  Uiso   1.00
C462   C     0.14906   0.97515   0.12732   0.00000  Uiso   1.00
C463   C     0.14905   0.68979   0.12713   0.00000  Uiso   1.00
C464   C     0.18105   0.97683   0.20773   0.00000  Uiso   1.00
C465   C     0.05500   0.82308   0.04749   0.00000  Uiso   1.00
C466   C     0.27958   0.83178   0.28509   0.00000  Uiso   1.00
C467   C     0.27689   0.74513   0.08962   0.00000  Uiso   1.00
C468   C     0.24645   0.83309   0.16709   0.00000  Uiso   1.00
C469   C     0.05539   0.91909   0.24697   0.00000  Uiso   1.00
C470   C     0.25024   0.71668   0.24287   0.00000  Uiso   1.00
C471   C     0.08263   0.95167   0.08899   0.00000  Uiso   1.00
C472   C     0.14587   0.70827   0.03765   0.00000  Uiso   1.00
C473   C     0.22793   0.94363   0.27104   0.00000  Uiso   1.00
C474   C     0.16695   0.83311   0.07304   0.00000  Uiso   1.00
C475   C     0.16649   0.83360   0.26030   0.00000  Uiso   1.00
C476   C     0.16691   0.83313   0.02183   0.00000  Uiso   1.00
C477   C     0.16668   0.83379   0.31151   0.00000  Uiso   1.00
C478   C     0.02071   0.81257   0.12579   0.00000  Uiso   1.00
C479   C     0.31311   0.85101   0.20865   0.00000  Uiso   1.00
C480   C     0.31056   0.81138   0.12697   0.00000  Uiso   1.00
H481   H     0.02875   0.76383   0.07019   0.00000  Uiso   1.00
H482   H     0.29356   0.72579   0.06035   0.00000  Uiso   1.00
H483   H     0.24267   0.74020   0.08333   0.00000  Uiso   1.00
H484   H     0.28621   0.73163   0.12685   0.00000  Uiso   1.00
H485   H     0.04014   0.85996   0.28253   0.00000  Uiso   1.00
H486   H     0.03782   0.93647   0.27693   0.00000  Uiso   1.00
H487   H     0.04591   0.93367   0.21033   0.00000  Uiso   1.00
H488   H     0.08938   0.92517   0.25390   0.00000  Uiso   1.00
H489   H     0.19557   0.70638   0.28098   0.00000  Uiso   1.00
H490   H     0.25966   0.73627   0.21061   0.00000  Uiso   1.00
H491   H     0.26399   0.68302   0.23801   0.00000  Uiso   1.00
H492   H     0.07111   0.80454   0.01717   0.00000  Uiso   1.00
H493   H     0.26401   0.73213   0.27767   0.00000  Uiso   1.00
H494   H     0.13980   0.95436   0.05328   0.00000  Uiso   1.00
H495   H     0.07059   0.98548   0.08003   0.00000  Uiso   1.00
H496   H     0.07149   0.94207   0.12623   0.00000  Uiso   1.00
H497   H     0.06956   0.92787   0.06034   0.00000  Uiso   1.00
H498   H     0.11189   0.74072   0.09512   0.00000  Uiso   1.00
H499   H     0.15137   0.74180   0.02248   0.00000  Uiso   1.00
H500   H     0.12341   0.69077   0.01164   0.00000  Uiso   1.00
H501   H     0.17622   0.68984   0.03861   0.00000  Uiso   1.00
H502   H     0.16772   0.96822   0.28261   0.00000  Uiso   1.00
H503   H     0.02710   0.84049   0.03134   0.00000  Uiso   1.00
H504   H     0.24056   0.96933   0.29783   0.00000  Uiso   1.00
H505   H     0.24881   0.93964   0.23869   0.00000  Uiso   1.00
H506   H     0.22688   0.91186   0.29145   0.00000  Uiso   1.00
H507   H     0.07709   0.84816   0.06391   0.00000  Uiso   1.00
H508   H     0.30635   0.89288   0.27096   0.00000  Uiso   1.00
H509   H     0.26566   0.84687   0.31907   0.00000  Uiso   1.00
H510   H     0.30716   0.81117   0.29652   0.00000  Uiso   1.00
H511   H     0.25553   0.81029   0.26634   0.00000  Uiso   1.00
H512   H     0.29571   0.80124   0.05125   0.00000  Uiso   1.00
N513   N     0.16667   0.95240   0.16667   0.00000  Uiso   1.00
N514   N     0.18595   0.95533   0.25451   0.00000  Uiso   1.00
N515   N     0.16667   0.71427   0.16667   0.00000  Uiso   1.00
N516   N     0.04245   0.79231   0.08527   0.00000  Uiso   1.00
N517   N     0.29201   0.86663   0.25193   0.00000  Uiso   1.00
N518   N     0.28641   0.79226   0.08621   0.00000  Uiso   1.00
N519   N     0.04757   0.87148   0.24784   0.00000  Uiso   1.00
N520   N     0.20496   0.71513   0.24593   0.00000  Uiso   1.00
N521   N     0.12797   0.95035   0.08837   0.00000  Uiso   1.00
N522   N     0.12804   0.71192   0.08692   0.00000  Uiso   1.00
O523   O     0.10559   0.87154   0.16666   0.00000  Uiso   1.00
O524   O     0.22774   0.79513   0.16667   0.00000  Uiso   1.00
O525   O     0.22774   0.87154   0.16667   0.00000  Uiso   1.00
O526   O     0.10559   0.79513   0.16666   0.00000  Uiso   1.00
O527   O     0.16667   0.87155   0.09511   0.00000  Uiso   1.00
O528   O     0.16666   0.79512   0.23822   0.00000  Uiso   1.00
O529   O     0.16666   0.87155   0.23822   0.00000  Uiso   1.00
O530   O     0.16667   0.79512   0.09511   0.00000  Uiso   1.00
Zn531  Zn    0.16667   0.88437   0.16667   0.00000  Uiso   1.00
Zn532  Zn    0.16667   0.78229   0.16667   0.00000  Uiso   1.00
C533   C     0.42030   0.83344   0.16593   0.00000  Uiso   1.00
C534   C     0.35647   0.85332   0.20677   0.00000  Uiso   1.00
C535   C     0.62410   0.83189   0.16765   0.00000  Uiso   1.00
C536   C     0.37614   0.83385   0.16559   0.00000  Uiso   1.00
C537   C     0.51753   0.69120   0.20603   0.00000  Uiso   1.00
C538   C     0.48239   0.97515   0.12732   0.00000  Uiso   1.00
C539   C     0.48238   0.68979   0.12713   0.00000  Uiso   1.00
C540   C     0.51438   0.97683   0.20773   0.00000  Uiso   1.00
C541   C     0.38834   0.82308   0.04749   0.00000  Uiso   1.00
C542   C     0.61292   0.83178   0.28509   0.00000  Uiso   1.00
C543   C     0.61022   0.74513   0.08962   0.00000  Uiso   1.00
C544   C     0.57978   0.83309   0.16709   0.00000  Uiso   1.00
C545   C     0.38873   0.91909   0.24697   0.00000  Uiso   1.00
C546   C     0.58357   0.71668   0.24287   0.00000  Uiso   1.00
C547   C     0.41596   0.95167   0.08899   0.00000  Uiso   1.00
C548   C     0.47921   0.70827   0.03765   0.00000  Uiso   1.00
C549   C     0.56127   0.94363   0.27104   0.00000  Uiso   1.00
C550   C     0.50029   0.83311   0.07304   0.00000  Uiso   1.00
C551   C     0.49983   0.83360   0.26030   0.00000  Uiso   1.00
C552   C     0.50025   0.83313   0.02183   0.00000  Uiso   1.00
C553   C     0.50002   0.83379   0.31151   0.00000  Uiso   1.00
C554   C     0.35405   0.81257   0.12579   0.00000  Uiso   1.00
C555   C     0.64644   0.85101   0.20865   0.00000  Uiso   1.00
C556   C     0.64390   0.81138   0.12697   0.00000  Uiso   1.00
H557   H     0.36209   0.76383   0.07019   0.00000  Uiso   1.00
H558   H     0.62690   0.72579   0.06035   0.00000  Uiso   1.00
H559   H     0.57601   0.74020   0.08333   0.00000  Uiso   1.00
H560   H     0.61955   0.73163   0.12685   0.00000  Uiso   1.00
H561   H     0.37348   0.85996   0.28253   0.00000  Uiso   1.00
H562   H     0.37116   0.93647   0.27693   0.00000  Uiso   1.00
H563   H     0.37924   0.93367   0.21033   0.00000  Uiso   1.00
H564   H     0.42271   0.92517   0.25390   0.00000  Uiso   1.00
H565   H     0.52890   0.70638   0.28098   0.00000  Uiso   1.00
H566   H     0.59299   0.73627   0.21061   0.00000  Uiso   1.00
H567   H     0.59732   0.68302   0.23801   0.00000  Uiso   1.00
H568   H     0.40444   0.80454   0.01717   0.00000  Uiso   1.00
H569   H     0.59734   0.73213   0.27767   0.00000  Uiso   1.00
H570   H     0.47313   0.95436   0.05328   0.00000  Uiso   1.00
H571   H     0.40393   0.98548   0.08003   0.00000  Uiso   1.00
H572   H     0.40483   0.94207   0.12623   0.00000  Uiso   1.00
H573   H     0.40290   0.92787   0.06034   0.00000  Uiso   1.00
H574   H     0.44523   0.74072   0.09512   0.00000  Uiso   1.00
H575   H     0.48470   0.74180   0.02248   0.00000  Uiso   1.00
H576   H     0.45675   0.69077   0.01164   0.00000  Uiso   1.00
H577   H     0.50955   0.68984   0.03861   0.00000  Uiso   1.00
H578   H     0.50105   0.96822   0.28261   0.00000  Uiso   1.00
H579   H     0.36043   0.84049   0.03134   0.00000  Uiso   1.00
H580   H     0.57390   0.96933   0.29783   0.00000  Uiso   1.00
H581   H     0.58215   0.93964   0.23869   0.00000  Uiso   1.00
H582   H     0.56021   0.91186   0.29145   0.00000  Uiso   1.00
H583   H     0.41042   0.84816   0.06391   0.00000  Uiso   1.00
H584   H     0.63968   0.89288   0.27096   0.00000  Uiso   1.00
H585   H     0.59899   0.84687   0.31907   0.00000  Uiso   1.00
H586   H     0.64050   0.81117   0.29652   0.00000  Uiso   1.00
H587   H     0.58887   0.81029   0.26634   0.00000  Uiso   1.00
H588   H     0.62905   0.80124   0.05125   0.00000  Uiso   1.00
N589   N     0.50000   0.95240   0.16667   0.00000  Uiso   1.00
N590   N     0.51928   0.95533   0.25451   0.00000  Uiso   1.00
N591   N     0.50000   0.71427   0.16667   0.00000  Uiso   1.00
N592   N     0.37579   0.79231   0.08527   0.00000  Uiso   1.00
N593   N     0.62534   0.86663   0.25193   0.00000  Uiso   1.00
N594   N     0.61974   0.79226   0.08621   0.00000  Uiso   1.00
N595   N     0.38090   0.87148   0.24784   0.00000  Uiso   1.00
N596   N     0.53829   0.71513   0.24593   0.00000  Uiso   1.00
N597   N     0.46130   0.95035   0.08837   0.00000  Uiso   1.00
N598   N     0.46138   0.71192   0.08692   0.00000  Uiso   1.00
O599   O     0.43892   0.87154   0.16666   0.00000  Uiso   1.00
O600   O     0.56108   0.79513   0.16667   0.00000  Uiso   1.00
O601   O     0.56108   0.87154   0.16667   0.00000  Uiso   1.00
O602   O     0.43892   0.79513   0.16666   0.00000  Uiso   1.00
O603   O     0.50000   0.87155   0.09511   0.00000  Uiso   1.00
O604   O     0.50000   0.79512   0.23822   0.00000  Uiso   1.00
O605   O     0.50000   0.87155   0.23822   0.00000  Uiso   1.00
O606   O     0.50000   0.79512   0.09511   0.00000  Uiso   1.00
Zn607  Zn    0.50000   0.88437   0.16667   0.00000  Uiso   1.00
Zn608  Zn    0.50000   0.78229   0.16667   0.00000  Uiso   1.00
C609   C     0.75364   0.83344   0.16593   0.00000  Uiso   1.00
C610   C     0.68980   0.85332   0.20677   0.00000  Uiso   1.00
C611   C     0.95743   0.83189   0.16765   0.00000  Uiso   1.00
C612   C     0.70947   0.83385   0.16559   0.00000  Uiso   1.00
C613   C     0.85086   0.69120   0.20603   0.00000  Uiso   1.00
C614   C     0.81573   0.97515   0.12732   0.00000  Uiso   1.00
C615   C     0.81571   0.68979   0.12713   0.00000  Uiso   1.00
C616   C     0.84771   0.97683   0.20773   0.00000  Uiso   1.00
C617   C     0.72167   0.82308   0.04749   0.00000  Uiso   1.00
C618   C     0.94625   0.83178   0.28509   0.00000  Uiso   1.00
C619   C     0.94356   0.74513   0.08962   0.00000  Uiso   1.00
C620   C     0.91311   0.83309   0.16709   0.00000  Uiso   1.00
C621   C     0.72206   0.91909   0.24697   0.00000  Uiso   1.00
C622   C     0.91690   0.71668   0.24287   0.00000  Uiso   1.00
C623   C     0.74930   0.95167   0.08899   0.00000  Uiso   1.00
C624   C     0.81254   0.70827   0.03765   0.00000  Uiso   1.00
C625   C     0.89460   0.94363   0.27104   0.00000  Uiso   1.00
C626   C     0.83362   0.83311   0.07304   0.00000  Uiso   1.00
C627   C     0.83316   0.83360   0.26030   0.00000  Uiso   1.00
C628   C     0.83358   0.83313   0.02183   0.00000  Uiso   1.00
C629   C     0.83335   0.83379   0.31151   0.00000  Uiso   1.00
C630   C     0.68738   0.81257   0.12579   0.00000  Uiso   1.00
C631   C     0.97977   0.85101   0.20865   0.00000  Uiso   1.00
C632   C     0.97723   0.81138   0.12697   0.00000  Uiso   1.00
H633   H     0.69542   0.76383   0.07019   0.00000  Uiso   1.00
H634   H     0.96023   0.72579   0.06035   0.00000  Uiso   1.00
H635   H     0.90934   0.74020   0.08333   0.00000  Uiso   1.00
H636   H     0.95288   0.73163   0.12685   0.00000  Uiso   1.00
H637   H     0.70681   0.85996   0.28253   0.00000  Uiso   1.00
H638   H     0.70449   0.93647   0.27693   0.00000  Uiso   1.00
H639   H     0.71258   0.93367   0.21033   0.00000  Uiso   1.00
H640   H     0.75604   0.92517   0.25390   0.00000  Uiso   1.00
H641   H     0.86223   0.70638   0.28098   0.00000  Uiso   1.00
H642   H     0.92632   0.73627   0.21061   0.00000  Uiso   1.00
H643   H     0.93066   0.68302   0.23801   0.00000  Uiso   1.00
H644   H     0.73777   0.80454   0.01717   0.00000  Uiso   1.00
H645   H     0.93068   0.73213   0.27767   0.00000  Uiso   1.00
H646   H     0.80647   0.95436   0.05328   0.00000  Uiso   1.00
H647   H     0.73726   0.98548   0.08003   0.00000  Uiso   1.00
H648   H     0.73816   0.94207   0.12623   0.00000  Uiso   1.00
H649   H     0.73623   0.92787   0.06034   0.00000  Uiso   1.00
H650   H     0.77856   0.74072   0.09512   0.00000  Uiso   1.00
H651   H     0.81804   0.74180   0.02248   0.00000  Uiso   1.00
H652   H     0.79008   0.69077   0.01164   0.00000  Uiso   1.00
H653   H     0.84289   0.68984   0.03861   0.00000  Uiso   1.00
H654   H     0.83438   0.96822   0.28261   0.00000  Uiso   1.00
H655   H     0.69376   0.84049   0.03134   0.00000  Uiso   1.00
H656   H     0.90723   0.96933   0.29783   0.00000  Uiso   1.00
H657   H     0.91548   0.93964   0.23869   0.00000  Uiso   1.00
H658   H     0.89354   0.91186   0.29145   0.00000  Uiso   1.00
H659   H     0.74376   0.84816   0.06391   0.00000  Uiso   1.00
H660   H     0.97301   0.89288   0.27096   0.00000  Uiso   1.00
H661   H     0.93233   0.84687   0.31907   0.00000  Uiso   1.00
H662   H     0.97383   0.81117   0.29652   0.00000  Uiso   1.00
H663   H     0.92220   0.81029   0.26634   0.00000  Uiso   1.00
H664   H     0.96238   0.80124   0.05125   0.00000  Uiso   1.00
N665   N     0.83333   0.95240   0.16667   0.00000  Uiso   1.00
N666   N     0.85261   0.95533   0.25451   0.00000  Uiso   1.00
N667   N     0.83333   0.71427   0.16667   0.00000  Uiso   1.00
N668   N     0.70912   0.79231   0.08527   0.00000  Uiso   1.00
N669   N     0.95867   0.86663   0.25193   0.00000  Uiso   1.00
N670   N     0.95308   0.79226   0.08621   0.00000  Uiso   1.00
N671   N     0.71424   0.87148   0.24784   0.00000  Uiso   1.00
N672   N     0.87162   0.71513   0.24593   0.00000  Uiso   1.00
N673   N     0.79464   0.95035   0.08837   0.00000  Uiso   1.00
N674   N     0.79471   0.71192   0.08692   0.00000  Uiso   1.00
O675   O     0.77226   0.87154   0.16666   0.00000  Uiso   1.00
O676   O     0.89441   0.79513   0.16667   0.00000  Uiso   1.00
O677   O     0.89441   0.87154   0.16667   0.00000  Uiso   1.00
O678   O     0.77226   0.79513   0.16666   0.00000  Uiso   1.00
O679   O     0.83334   0.87155   0.09511   0.00000  Uiso   1.00
O680   O     0.83333   0.79512   0.23822   0.00000  Uiso   1.00
O681   O     0.83333   0.87155   0.23822   0.00000  Uiso   1.00
O682   O     0.83334   0.79512   0.09511   0.00000  Uiso   1.00
Zn683  Zn    0.83333   0.88437   0.16667   0.00000  Uiso   1.00
Zn684  Zn    0.83333   0.78229   0.16667   0.00000  Uiso   1.00
C685   C     0.08697   0.16677   0.49926   0.00000  Uiso   1.00
C686   C     0.02314   0.18665   0.54010   0.00000  Uiso   1.00
C687   C     0.29076   0.16522   0.50098   0.00000  Uiso   1.00
C688   C     0.04281   0.16718   0.49892   0.00000  Uiso   1.00
C689   C     0.18420   0.02454   0.53936   0.00000  Uiso   1.00
C690   C     0.14906   0.30848   0.46065   0.00000  Uiso   1.00
C691   C     0.14905   0.02312   0.46047   0.00000  Uiso   1.00
C692   C     0.18105   0.31016   0.54106   0.00000  Uiso   1.00
C693   C     0.05500   0.15642   0.38082   0.00000  Uiso   1.00
C694   C     0.27958   0.16511   0.61842   0.00000  Uiso   1.00
C695   C     0.27689   0.07847   0.42296   0.00000  Uiso   1.00
C696   C     0.24645   0.16643   0.50042   0.00000  Uiso   1.00
C697   C     0.05539   0.25242   0.58030   0.00000  Uiso   1.00
C698   C     0.25024   0.05002   0.57621   0.00000  Uiso   1.00
C699   C     0.08263   0.28500   0.42232   0.00000  Uiso   1.00
C700   C     0.14587   0.04160   0.37099   0.00000  Uiso   1.00
C701   C     0.22793   0.27697   0.60437   0.00000  Uiso   1.00
C702   C     0.16695   0.16644   0.40638   0.00000  Uiso   1.00
C703   C     0.16649   0.16693   0.59363   0.00000  Uiso   1.00
C704   C     0.16691   0.16647   0.35517   0.00000  Uiso   1.00
C705   C     0.16668   0.16713   0.64484   0.00000  Uiso   1.00
C706   C     0.02071   0.14591   0.45912   0.00000  Uiso   1.00
C707   C     0.31311   0.18434   0.54199   0.00000  Uiso   1.00
C708   C     0.31056   0.14471   0.46031   0.00000  Uiso   1.00
H709   H     0.02875   0.09716   0.40352   0.00000  Uiso   1.00
H710   H     0.29356   0.05913   0.39368   0.00000  Uiso   1.00
H711   H     0.24267   0.07354   0.41666   0.00000  Uiso   1.00
H712   H     0.28621   0.06497   0.46019   0.00000  Uiso   1.00
H713   H     0.04014   0.19329   0.61587   0.00000  Uiso   1.00
H714   H     0.03782   0.26981   0.61027   0.00000  Uiso   1.00
H715   H     0.04591   0.26701   0.54366   0.00000  Uiso   1.00
H716   H     0.08938   0.25850   0.58724   0.00000  Uiso   1.00
H717   H     0.19557   0.03971   0.61432   0.00000  Uiso   1.00
H718   H     0.25966   0.06960   0.54394   0.00000  Uiso   1.00
H719   H     0.26399   0.01636   0.57135   0.00000  Uiso   1.00
H720   H     0.07111   0.13787   0.35050   0.00000  Uiso   1.00
H721   H     0.26401   0.06547   0.61100   0.00000  Uiso   1.00
H722   H     0.13980   0.28769   0.38661   0.00000  Uiso   1.00
H723   H     0.07059   0.31881   0.41336   0.00000  Uiso   1.00
H724   H     0.07149   0.27540   0.45956   0.00000  Uiso   1.00
H725   H     0.06956   0.26120   0.39368   0.00000  Uiso   1.00
H726   H     0.11189   0.07406   0.42845   0.00000  Uiso   1.00
H727   H     0.15137   0.07513   0.35581   0.00000  Uiso   1.00
H728   H     0.12341   0.02410   0.34498   0.00000  Uiso   1.00
H729   H     0.17622   0.02318   0.37194   0.00000  Uiso   1.00
H730   H     0.16772   0.30156   0.61594   0.00000  Uiso   1.00
H731   H     0.02710   0.17383   0.36467   0.00000  Uiso   1.00
H732   H     0.24056   0.30266   0.63116   0.00000  Uiso   1.00
H733   H     0.24881   0.27297   0.57202   0.00000  Uiso   1.00
H734   H     0.22688   0.24519   0.62479   0.00000  Uiso   1.00
H735   H     0.07709   0.18149   0.39725   0.00000  Uiso   1.00
H736   H     0.30635   0.22622   0.60430   0.00000  Uiso   1.00
H737   H     0.26566   0.18020   0.65241   0.00000  Uiso   1.00
H738   H     0.30716   0.14451   0.62986   0.00000  Uiso   1.00
H739   H     0.25553   0.14362   0.59967   0.00000  Uiso   1.00
H740   H     0.29571   0.13458   0.38458   0.00000  Uiso   1.00
N741   N     0.16667   0.28573   0.50000   0.00000  Uiso   1.00
N742   N     0.18595   0.28866   0.58785   0.00000  Uiso   1.00
N743   N     0.16667   0.04760   0.50000   0.00000  Uiso   1.00
N744   N     0.04245   0.12565   0.41861   0.00000  Uiso   1.00
N745   N     0.29201   0.19996   0.58526   0.00000  Uiso   1.00
N746   N     0.28641   0.12559   0.41955   0.00000  Uiso   1.00
N747   N     0.04757   0.20482   0.58117   0.00000  Uiso   1.00
N748   N     0.20496   0.04846   0.57927   0.00000  Uiso   1.00
N749   N     0.12797   0.28368   0.42170   0.00000  Uiso   1.00
N750   N     0.12804   0.04526   0.42025   0.00000  Uiso   1.00
O751   O     0.10559   0.20487   0.50000   0.00000  Uiso   1.00
O752   O     0.22774   0.12846   0.50000   0.00000  Uiso   1.00
O753   O     0.22774   0.20487   0.50000   0.00000  Uiso   1.00
O754   O     0.10559   0.12846   0.50000   0.00000  Uiso   1.00
O755   O     0.16667   0.20488   0.42845   0.00000  Uiso   1.00
O756   O     0.16666   0.12845   0.57155   0.00000  Uiso   1.00
O757   O     0.16666   0.20488   0.57155   0.00000  Uiso   1.00
O758   O     0.16667   0.12845   0.42845   0.00000  Uiso   1.00
Zn759  Zn    0.16667   0.21771   0.50000   0.00000  Uiso   1.00
Zn760  Zn    0.16667   0.11563   0.50000   0.00000  Uiso   1.00
C761   C     0.42030   0.16677   0.49926   0.00000  Uiso   1.00
C762   C     0.35647   0.18665   0.54010   0.00000  Uiso   1.00
C763   C     0.62410   0.16522   0.50098   0.00000  Uiso   1.00
C764   C     0.37614   0.16718   0.49892   0.00000  Uiso   1.00
C765   C     0.51753   0.02454   0.53936   0.00000  Uiso   1.00
C766   C     0.48239   0.30848   0.46065   0.00000  Uiso   1.00
C767   C     0.48238   0.02312   0.46047   0.00000  Uiso   1.00
C768   C     0.51438   0.31016   0.54106   0.00000  Uiso   1.00
C769   C     0.38834   0.15642   0.38082   0.00000  Uiso   1.00
C770   C     0.61292   0.16511   0.61842   0.00000  Uiso   1.00
C771   C     0.61022   0.07847   0.42296   0.00000  Uiso   1.00
C772   C     0.57978   0.16643   0.50042   0.00000  Uiso   1.00
C773   C     0.38873   0.25242   0.58030   0.00000  Uiso   1.00
C774   C     0.58357   0.05002   0.57621   0.00000  Uiso   1.00
C775   C     0.41596   0.28500   0.42232   0.00000  Uiso   1.00
C776   C     0.47921   0.04160   0.37099   0.00000  Uiso   1.00
C777   C     0.56127   0.27697   0.60437   0.00000  Uiso   1.00
C778   C     0.50029   0.16644   0.40638   0.00000  Uiso   1.00
C779   C     0.49983   0.16693   0.59363   0.00000  Uiso   1.00
C780   C     0.50025   0.16647   0.35517   0.00000  Uiso   1.00
C781   C     0.50002   0.16713   0.64484   0.00000  Uiso   1.00
C782   C     0.35405   0.14591   0.45912   0.00000  Uiso   1.00
C783   C     0.64644   0.18434   0.54199   0.00000  Uiso   1.00
C784   C     0.64390   0.14471   0.46031   0.00000  Uiso   1.00
H785   H     0.36209   0.09716   0.40352   0.00000  Uiso   1.00
H786   H     0.62690   0.05913   0.39368   0.00000  Uiso   1.00
H787   H     0.57601   0.07354   0.41666   0.00000  Uiso   1.00
H788   H     0.61955   0.06497   0.46019   0.00000  Uiso   1.00
H789   H     0.37348   0.19329   0.61587   0.00000  Uiso   1.00
H790   H     0.37116   0.26981   0.61027   0.00000  Uiso   1.00
H791   H     0.37924   0.26701   0.54366   0.00000  Uiso   1.00
H792   H     0.42271   0.25850   0.58724   0.00000  Uiso   1.00
H793   H     0.52890   0.03971   0.61432   0.00000  Uiso   1.00
H794   H     0.59299   0.06960   0.54394   0.00000  Uiso   1.00
H795   H     0.59732   0.01636   0.57135   0.00000  Uiso   1.00
H796   H     0.40444   0.13787   0.35050   0.00000  Uiso   1.00
H797   H     0.59734   0.06547   0.61100   0.00000  Uiso   1.00
H798   H     0.47313   0.28769   0.38661   0.00000  Uiso   1.00
H799   H     0.40393   0.31881   0.41336   0.00000  Uiso   1.00
H800   H     0.40483   0.27540   0.45956   0.00000  Uiso   1.00
H801   H     0.40290   0.26120   0.39368   0.00000  Uiso   1.00
H802   H     0.44523   0.07406   0.42845   0.00000  Uiso   1.00
H803   H     0.48470   0.07513   0.35581   0.00000  Uiso   1.00
H804   H     0.45675   0.02410   0.34498   0.00000  Uiso   1.00
H805   H     0.50955   0.02318   0.37194   0.00000  Uiso   1.00
H806   H     0.50105   0.30156   0.61594   0.00000  Uiso   1.00
H807   H     0.36043   0.17383   0.36467   0.00000  Uiso   1.00
H808   H     0.57390   0.30266   0.63116   0.00000  Uiso   1.00
H809   H     0.58215   0.27297   0.57202   0.00000  Uiso   1.00
H810   H     0.56021   0.24519   0.62479   0.00000  Uiso   1.00
H811   H     0.41042   0.18149   0.39725   0.00000  Uiso   1.00
H812   H     0.63968   0.22622   0.60430   0.00000  Uiso   1.00
H813   H     0.59899   0.18020   0.65241   0.00000  Uiso   1.00
H814   H     0.64050   0.14451   0.62986   0.00000  Uiso   1.00
H815   H     0.58887   0.14362   0.59967   0.00000  Uiso   1.00
H816   H     0.62905   0.13458   0.38458   0.00000  Uiso   1.00
N817   N     0.50000   0.28573   0.50000   0.00000  Uiso   1.00
N818   N     0.51928   0.28866   0.58785   0.00000  Uiso   1.00
N819   N     0.50000   0.04760   0.50000   0.00000  Uiso   1.00
N820   N     0.37579   0.12565   0.41861   0.00000  Uiso   1.00
N821   N     0.62534   0.19996   0.58526   0.00000  Uiso   1.00
N822   N     0.61974   0.12559   0.41955   0.00000  Uiso   1.00
N823   N     0.38090   0.20482   0.58117   0.00000  Uiso   1.00
N824   N     0.53829   0.04846   0.57927   0.00000  Uiso   1.00
N825   N     0.46130   0.28368   0.42170   0.00000  Uiso   1.00
N826   N     0.46138   0.04526   0.42025   0.00000  Uiso   1.00
O827   O     0.43892   0.20487   0.50000   0.00000  Uiso   1.00
O828   O     0.56108   0.12846   0.50000   0.00000  Uiso   1.00
O829   O     0.56108   0.20487   0.50000   0.00000  Uiso   1.00
O830   O     0.43892   0.12846   0.50000   0.00000  Uiso   1.00
O831   O     0.50000   0.20488   0.42845   0.00000  Uiso   1.00
O832   O     0.50000   0.12845   0.57155   0.00000  Uiso   1.00
O833   O     0.50000   0.20488   0.57155   0.00000  Uiso   1.00
O834   O     0.50000   0.12845   0.42845   0.00000  Uiso   1.00
Zn835  Zn    0.50000   0.21771   0.50000   0.00000  Uiso   1.00
Zn836  Zn    0.50000   0.11563   0.50000   0.00000  Uiso   1.00
C837   C     0.75364   0.16677   0.49926   0.00000  Uiso   1.00
C838   C     0.68980   0.18665   0.54010   0.00000  Uiso   1.00
C839   C     0.95743   0.16522   0.50098   0.00000  Uiso   1.00
C840   C     0.70947   0.16718   0.49892   0.00000  Uiso   1.00
C841   C     0.85086   0.02454   0.53936   0.00000  Uiso   1.00
C842   C     0.81573   0.30848   0.46065   0.00000  Uiso   1.00
C843   C     0.81571   0.02312   0.46047   0.00000  Uiso   1.00
C844   C     0.84771   0.31016   0.54106   0.00000  Uiso   1.00
C845   C     0.72167   0.15642   0.38082   0.00000  Uiso   1.00
C846   C     0.94625   0.16511   0.61842   0.00000  Uiso   1.00
C847   C     0.94356   0.07847   0.42296   0.00000  Uiso   1.00
C848   C     0.91311   0.16643   0.50042   0.00000  Uiso   1.00
C849   C     0.72206   0.25242   0.58030   0.00000  Uiso   1.00
C850   C     0.91690   0.05002   0.57621   0.00000  Uiso   1.00
C851   C     0.74930   0.28500   0.42232   0.00000  Uiso   1.00
C852   C     0.81254   0.04160   0.37099   0.00000  Uiso   1.00
C853   C     0.89460   0.27697   0.60437   0.00000  Uiso   1.00
C854   C     0.83362   0.16644   0.40638   0.00000  Uiso   1.00
C855   C     0.83316   0.16693   0.59363   0.00000  Uiso   1.00
C856   C     0.83358   0.16647   0.35517   0.00000  Uiso   1.00
C857   C     0.83335   0.16713   0.64484   0.00000  Uiso   1.00
C858   C     0.68738   0.14591   0.45912   0.00000  Uiso   1.00
C859   C     0.97977   0.18434   0.54199   0.00000  Uiso   1.00
C860   C     0.97723   0.14471   0.46031   0.00000  Uiso   1.00
H861   H     0.69542   0.09716   0.40352   0.00000  Uiso   1.00
H862   H     0.96023   0.05913   0.39368   0.00000  Uiso   1.00
H863   H     0.90934   0.07354   0.41666   0.00000  Uiso   1.00
H864   H     0.95288   0.06497   0.46019   0.00000  Uiso   1.00
H865   H     0.70681   0.19329   0.61587   0.00000  Uiso   1.00
H866   H     0.70449   0.26981   0.61027   0.00000  Uiso   1.00
H867   H     0.71258   0.26701   0.54366   0.00000  Uiso   1.00
H868   H     0.75604   0.25850   0.58724   0.00000  Uiso   1.00
H869   H     0.86223   0.03971   0.61432   0.00000  Uiso   1.00
H870   H     0.92632   0.06960   0.54394   0.00000  Uiso   1.00
H871   H     0.93066   0.01636   0.57135   0.00000  Uiso   1.00
H872   H     0.73777   0.13787   0.35050   0.00000  Uiso   1.00
H873   H     0.93068   0.06547   0.61100   0.00000  Uiso   1.00
H874   H     0.80647   0.28769   0.38661   0.00000  Uiso   1.00
H875   H     0.73726   0.31881   0.41336   0.00000  Uiso   1.00
H876   H     0.73816   0.27540   0.45956   0.00000  Uiso   1.00
H877   H     0.73623   0.26120   0.39368   0.00000  Uiso   1.00
H878   H     0.77856   0.07406   0.42845   0.00000  Uiso   1.00
H879   H     0.81804   0.07513   0.35581   0.00000  Uiso   1.00
H880   H     0.79008   0.02410   0.34498   0.00000  Uiso   1.00
H881   H     0.84289   0.02318   0.37194   0.00000  Uiso   1.00
H882   H     0.83438   0.30156   0.61594   0.00000  Uiso   1.00
H883   H     0.69376   0.17383   0.36467   0.00000  Uiso   1.00
H884   H     0.90723   0.30266   0.63116   0.00000  Uiso   1.00
H885   H     0.91548   0.27297   0.57202   0.00000  Uiso   1.00
H886   H     0.89354   0.24519   0.62479   0.00000  Uiso   1.00
H887   H     0.74376   0.18149   0.39725   0.00000  Uiso   1.00
H888   H     0.97301   0.22622   0.60430   0.00000  Uiso   1.00
H889   H     0.93233   0.18020   0.65241   0.00000  Uiso   1.00
H890   H     0.97383   0.14451   0.62986   0.00000  Uiso   1.00
H891   H     0.92220   0.14362   0.59967   0.00000  Uiso   1.00
H892   H     0.96238   0.13458   0.38458   0.00000  Uiso   1.00
N893   N     0.83333   0.28573   0.50000   0.00000  Uiso   1.00
N894   N     0.85261   0.28866   0.58785   0.00000  Uiso   1.00
N895   N     0.83333   0.04760   0.50000   0.00000  Uiso   1.00
N896   N     0.70912   0.12565   0.41861   0.00000  Uiso   1.00
N897   N     0.95867   0.19996   0.58526   0.00000  Uiso   1.00
N898   N     0.95308   0.12559   0.41955   0.00000  Uiso   1.00
N899   N     0.71424   0.20482   0.58117   0.00000  Uiso   1.00
N900   N     0.87162   0.04846   0.57927   0.00000  Uiso   1.00
N901   N     0.79464   0.28368   0.42170   0.00000  Uiso   1.00
N902   N     0.79471   0.04526   0.42025   0.00000  Uiso   1.00
O903   O     0.77226   0.20487   0.50000   0.00000  Uiso   1.00
O904   O     0.89441   0.12846   0.50000   0.00000  Uiso   1.00
O905   O     0.89441   0.20487   0.50000   0.00000  Uiso   1.00
O906   O     0.77226   0.12846   0.50000   0.00000  Uiso   1.00
O907   O     0.83334   0.20488   0.42845   0.00000  Uiso   1.00
O908   O     0.83333   0.12845   0.57155   0.00000  Uiso   1.00
O909   O     0.83333   0.20488   0.57155   0.00000  Uiso   1.00
O910   O     0.83334   0.12845   0.42845   0.00000  Uiso   1.00
Zn911  Zn    0.83333   0.21771   0.50000   0.00000  Uiso   1.00
Zn912  Zn    0.83333   0.11563   0.50000   0.00000  Uiso   1.00
C913   C     0.08697   0.50011   0.49926   0.00000  Uiso   1.00
C914   C     0.02314   0.51998   0.54010   0.00000  Uiso   1.00
C915   C     0.29076   0.49855   0.50098   0.00000  Uiso   1.00
C916   C     0.04281   0.50051   0.49892   0.00000  Uiso   1.00
C917   C     0.18420   0.35787   0.53936   0.00000  Uiso   1.00
C918   C     0.14906   0.64182   0.46065   0.00000  Uiso   1.00
C919   C     0.14905   0.35645   0.46047   0.00000  Uiso   1.00
C920   C     0.18105   0.64350   0.54106   0.00000  Uiso   1.00
C921   C     0.05500   0.48975   0.38082   0.00000  Uiso   1.00
C922   C     0.27958   0.49845   0.61842   0.00000  Uiso   1.00
C923   C     0.27689   0.41180   0.42296   0.00000  Uiso   1.00
C924   C     0.24645   0.49976   0.50042   0.00000  Uiso   1.00
C925   C     0.05539   0.58576   0.58030   0.00000  Uiso   1.00
C926   C     0.25024   0.38335   0.57621   0.00000  Uiso   1.00
C927   C     0.08263   0.61833   0.42232   0.00000  Uiso   1.00
C928   C     0.14587   0.37494   0.37099   0.00000  Uiso   1.00
C929   C     0.22793   0.61030   0.60437   0.00000  Uiso   1.00
C930   C     0.16695   0.49978   0.40638   0.00000  Uiso   1.00
C931   C     0.16649   0.50027   0.59363   0.00000  Uiso   1.00
C932   C     0.16691   0.49980   0.35517   0.00000  Uiso   1.00
C933   C     0.16668   0.50046   0.64484   0.00000  Uiso   1.00
C934   C     0.02071   0.47924   0.45912   0.00000  Uiso   1.00
C935   C     0.31311   0.51768   0.54199   0.00000  Uiso   1.00
C936   C     0.31056   0.47804   0.46031   0.00000  Uiso   1.00
H937   H     0.02875   0.43050   0.40352   0.00000  Uiso   1.00
H938   H     0.29356   0.39246   0.39368   0.00000  Uiso   1.00
H939   H     0.24267   0.40687   0.41666   0.00000  Uiso   1.00
H940   H     0.28621   0.39830   0.46019   0.00000  Uiso   1.00
H941   H     0.04014   0.52663   0.61587   0.00000  Uiso   1.00
H942   H     0.03782   0.60314   0.61027   0.00000  Uiso   1.00
H943   H     0.04591   0.60034   0.54366   0.00000  Uiso   1.00
H944   H     0.08938   0.59184   0.58724   0.00000  Uiso   1.00
H945   H     0.19557   0.37305   0.61432   0.00000  Uiso   1.00
H946   H     0.25966   0.40293   0.54394   0.00000  Uiso   1.00
H947   H     0.26399   0.34969   0.57135   0.00000  Uiso   1.00
H948   H     0.07111   0.47121   0.35050   0.00000  Uiso   1.00
H949   H     0.26401   0.39880   0.61100   0.00000  Uiso   1.00
H950   H     0.13980   0.62103   0.38661   0.00000  Uiso   1.00
H951   H     0.07059   0.65214   0.41336   0.00000  Uiso   1.00
H952   H     0.07149   0.60873   0.45956   0.00000  Uiso   1.00
H953   H     0.06956   0.59454   0.39368   0.00000  Uiso   1.00
H954   H     0.11189   0.40739   0.42845   0.00000  Uiso   1.00
H955   H     0.15137   0.40847   0.35581   0.00000  Uiso   1.00
H956   H     0.12341   0.35743   0.34498   0.00000  Uiso   1.00
H957   H     0.17622   0.35651   0.37194   0.00000  Uiso   1.00
H958   H     0.16772   0.63489   0.61594   0.00000  Uiso   1.00
H959   H     0.02710   0.50716   0.36467   0.00000  Uiso   1.00
H960   H     0.24056   0.63599   0.63116   0.00000  Uiso   1.00
H961   H     0.24881   0.60630   0.57202   0.00000  Uiso   1.00
H962   H     0.22688   0.57852   0.62479   0.00000  Uiso   1.00
H963   H     0.07709   0.51483   0.39725   0.00000  Uiso   1.00
H964   H     0.30635   0.55955   0.60430   0.00000  Uiso   1.00
H965   H     0.26566   0.51353   0.65241   0.00000  Uiso   1.00
H966   H     0.30716   0.47784   0.62986   0.00000  Uiso   1.00
H967   H     0.25553   0.47695   0.59967   0.00000  Uiso   1.00
H968   H     0.29571   0.46791   0.38458   0.00000  Uiso   1.00
N969   N     0.16667   0.61907   0.50000   0.00000  Uiso   1.00
N970   N     0.18595   0.62199   0.58785   0.00000  Uiso   1.00
N971   N     0.16667   0.38093   0.50000   0.00000  Uiso   1.00
N972   N     0.04245   0.45898   0.41861   0.00000  Uiso   1.00
N973   N     0.29201   0.53329   0.58526   0.00000  Uiso   1.00
N974   N     0.28641   0.45893   0.41955   0.00000  Uiso   1.00
N975   N     0.04757   0.53815   0.58117   0.00000  Uiso   1.00
N976   N     0.20496   0.38179   0.57927   0.00000  Uiso   1.00
N977   N     0.12797   0.61702   0.42170   0.00000  Uiso   1.00
N978   N     0.12804   0.37859   0.42025   0.00000  Uiso   1.00
O979   O     0.10559   0.53821   0.50000   0.00000  Uiso   1.00
O980   O     0.22774   0.46179   0.50000   0.00000  Uiso   1.00
O981   O     0.22774   0.53821   0.50000   0.00000  Uiso   1.00
O982   O     0.10559   0.46179   0.50000   0.00000  Uiso   1.00
O983   O     0.16667   0.53821   0.42845   0.00000  Uiso   1.00
O984   O     0.16666   0.46179   0.57155   0.00000  Uiso   1.00
O985   O     0.16666   0.53821   0.57155   0.00000  Uiso   1.00
O986   O     0.16667   0.46179   0.42845   0.00000  Uiso   1.00
Zn987  Zn    0.16667   0.55104   0.50000   0.00000  Uiso   1.00
Zn988  Zn    0.16667   0.44896   0.50000   0.00000  Uiso   1.00
C989   C     0.42030   0.50011   0.49926   0.00000  Uiso   1.00
C990   C     0.35647   0.51998   0.54010   0.00000  Uiso   1.00
C991   C     0.62410   0.49855   0.50098   0.00000  Uiso   1.00
C992   C     0.37614   0.50051   0.49892   0.00000  Uiso   1.00
C993   C     0.51753   0.35787   0.53936   0.00000  Uiso   1.00
C994   C     0.48239   0.64182   0.46065   0.00000  Uiso   1.00
C995   C     0.48238   0.35645   0.46047   0.00000  Uiso   1.00
C996   C     0.51438   0.64350   0.54106   0.00000  Uiso   1.00
C997   C     0.38834   0.48975   0.38082   0.00000  Uiso   1.00
C998   C     0.61292   0.49845   0.61842   0.00000  Uiso   1.00
C999   C     0.61022   0.41180   0.42296   0.00000  Uiso   1.00
C1000  C     0.57978   0.49976   0.50042   0.00000  Uiso   1.00
C1001  C     0.38873   0.58576   0.58030   0.00000  Uiso   1.00
C1002  C     0.58357   0.38335   0.57621   0.00000  Uiso   1.00
C1003  C     0.41596   0.61833   0.42232   0.00000  Uiso   1.00
C1004  C     0.47921   0.37494   0.37099   0.00000  Uiso   1.00
C1005  C     0.56127   0.61030   0.60437   0.00000  Uiso   1.00
C1006  C     0.50029   0.49978   0.40638   0.00000  Uiso   1.00
C1007  C     0.49983   0.50027   0.59363   0.00000  Uiso   1.00
C1008  C     0.50025   0.49980   0.35517   0.00000  Uiso   1.00
C1009  C     0.50002   0.50046   0.64484   0.00000  Uiso   1.00
C1010  C     0.35405   0.47924   0.45912   0.00000  Uiso   1.00
C1011  C     0.64644   0.51768   0.54199   0.00000  Uiso   1.00
C1012  C     0.64390   0.47804   0.46031   0.00000  Uiso   1.00
H1013  H     0.36209   0.43050   0.40352   0.00000  Uiso   1.00
H1014  H     0.62690   0.39246   0.39368   0.00000  Uiso   1.00
H1015  H     0.57601   0.40687   0.41666   0.00000  Uiso   1.00
H1016  H     0.61955   0.39830   0.46019   0.00000  Uiso   1.00
H1017  H     0.37348   0.52663   0.61587   0.00000  Uiso   1.00
H1018  H     0.37116   0.60314   0.61027   0.00000  Uiso   1.00
H1019  H     0.37924   0.60034   0.54366   0.00000  Uiso   1.00
H1020  H     0.42271   0.59184   0.58724   0.00000  Uiso   1.00
H1021  H     0.52890   0.37305   0.61432   0.00000  Uiso   1.00
H1022  H     0.59299   0.40293   0.54394   0.00000  Uiso   1.00
H1023  H     0.59732   0.34969   0.57135   0.00000  Uiso   1.00
H1024  H     0.40444   0.47121   0.35050   0.00000  Uiso   1.00
H1025  H     0.59734   0.39880   0.61100   0.00000  Uiso   1.00
H1026  H     0.47313   0.62103   0.38661   0.00000  Uiso   1.00
H1027  H     0.40393   0.65214   0.41336   0.00000  Uiso   1.00
H1028  H     0.40483   0.60873   0.45956   0.00000  Uiso   1.00
H1029  H     0.40290   0.59454   0.39368   0.00000  Uiso   1.00
H1030  H     0.44523   0.40739   0.42845   0.00000  Uiso   1.00
H1031  H     0.48470   0.40847   0.35581   0.00000  Uiso   1.00
H1032  H     0.45675   0.35743   0.34498   0.00000  Uiso   1.00
H1033  H     0.50955   0.35651   0.37194   0.00000  Uiso   1.00
H1034  H     0.50105   0.63489   0.61594   0.00000  Uiso   1.00
H1035  H     0.36043   0.50716   0.36467   0.00000  Uiso   1.00
H1036  H     0.57390   0.63599   0.63116   0.00000  Uiso   1.00
H1037  H     0.58215   0.60630   0.57202   0.00000  Uiso   1.00
H1038  H     0.56021   0.57852   0.62479   0.00000  Uiso   1.00
H1039  H     0.41042   0.51483   0.39725   0.00000  Uiso   1.00
H1040  H     0.63968   0.55955   0.60430   0.00000  Uiso   1.00
H1041  H     0.59899   0.51353   0.65241   0.00000  Uiso   1.00
H1042  H     0.64050   0.47784   0.62986   0.00000  Uiso   1.00
H1043  H     0.58887   0.47695   0.59967   0.00000  Uiso   1.00
H1044  H     0.62905   0.46791   0.38458   0.00000  Uiso   1.00
N1045  N     0.50000   0.61907   0.50000   0.00000  Uiso   1.00
N1046  N     0.51928   0.62199   0.58785   0.00000  Uiso   1.00
N1047  N     0.50000   0.38093   0.50000   0.00000  Uiso   1.00
N1048  N     0.37579   0.45898   0.41861   0.00000  Uiso   1.00
N1049  N     0.62534   0.53329   0.58526   0.00000  Uiso   1.00
N1050  N     0.61974   0.45893   0.41955   0.00000  Uiso   1.00
N1051  N     0.38090   0.53815   0.58117   0.00000  Uiso   1.00
N1052  N     0.53829   0.38179   0.57927   0.00000  Uiso   1.00
N1053  N     0.46130   0.61702   0.42170   0.00000  Uiso   1.00
N1054  N     0.46138   0.37859   0.42025   0.00000  Uiso   1.00
O1055  O     0.43892   0.53821   0.50000   0.00000  Uiso   1.00
O1056  O     0.56108   0.46179   0.50000   0.00000  Uiso   1.00
O1057  O     0.56108   0.53821   0.50000   0.00000  Uiso   1.00
O1058  O     0.43892   0.46179   0.50000   0.00000  Uiso   1.00
O1059  O     0.50000   0.53821   0.42845   0.00000  Uiso   1.00
O1060  O     0.50000   0.46179   0.57155   0.00000  Uiso   1.00
O1061  O     0.50000   0.53821   0.57155   0.00000  Uiso   1.00
O1062  O     0.50000   0.46179   0.42845   0.00000  Uiso   1.00
Zn1063 Zn    0.50000   0.55104   0.50000   0.00000  Uiso   1.00
Zn1064 Zn    0.50000   0.44896   0.50000   0.00000  Uiso   1.00
C1065  C     0.75364   0.50011   0.49926   0.00000  Uiso   1.00
C1066  C     0.68980   0.51998   0.54010   0.00000  Uiso   1.00
C1067  C     0.95743   0.49855   0.50098   0.00000  Uiso   1.00
C1068  C     0.70947   0.50051   0.49892   0.00000  Uiso   1.00
C1069  C     0.85086   0.35787   0.53936   0.00000  Uiso   1.00
C1070  C     0.81573   0.64182   0.46065   0.00000  Uiso   1.00
C1071  C     0.81571   0.35645   0.46047   0.00000  Uiso   1.00
C1072  C     0.84771   0.64350   0.54106   0.00000  Uiso   1.00
C1073  C     0.72167   0.48975   0.38082   0.00000  Uiso   1.00
C1074  C     0.94625   0.49845   0.61842   0.00000  Uiso   1.00
C1075  C     0.94356   0.41180   0.42296   0.00000  Uiso   1.00
C1076  C     0.91311   0.49976   0.50042   0.00000  Uiso   1.00
C1077  C     0.72206   0.58576   0.58030   0.00000  Uiso   1.00
C1078  C     0.91690   0.38335   0.57621   0.00000  Uiso   1.00
C1079  C     0.74930   0.61833   0.42232   0.00000  Uiso   1.00
C1080  C     0.81254   0.37494   0.37099   0.00000  Uiso   1.00
C1081  C     0.89460   0.61030   0.60437   0.00000  Uiso   1.00
C1082  C     0.83362   0.49978   0.40638   0.00000  Uiso   1.00
C1083  C     0.83316   0.50027   0.59363   0.00000  Uiso   1.00
C1084  C     0.83358   0.49980   0.35517   0.00000  Uiso   1.00
C1085  C     0.83335   0.50046   0.64484   0.00000  Uiso   1.00
C1086  C     0.68738   0.47924   0.45912   0.00000  Uiso   1.00
C1087  C     0.97977   0.51768   0.54199   0.00000  Uiso   1.00
C1088  C     0.97723   0.47804   0.46031   0.00000  Uiso   1.00
H1089  H     0.69542   0.43050   0.40352   0.00000  Uiso   1.00
H1090  H     0.96023   0.39246   0.39368   0.00000  Uiso   1.00
H1091  H     0.90934   0.40687   0.41666   0.00000  Uiso   1.00
H1092  H     0.95288   0.39830   0.46019   0.00000  Uiso   1.00
H1093  H     0.70681   0.52663   0.61587   0.00000  Uiso   1.00
H1094  H     0.70449   0.60314   0.61027   0.00000  Uiso   1.00
H1095  H     0.71258   0.60034   0.54366   0.00000  Uiso   1.00
H1096  H     0.75604   0.59184   0.58724   0.00000  Uiso   1.00
H1097  H     0.86223   0.37305   0.61432   0.00000  Uiso   1.00
H1098  H     0.92632   0.40293   0.54394   0.00000  Uiso   1.00
H1099  H     0.93066   0.34969   0.57135   0.00000  Uiso   1.00
H1100  H     0.73777   0.47121   0.35050   0.00000  Uiso   1.00
H1101  H     0.93068   0.39880   0.61100   0.00000  Uiso   1.00
H1102  H     0.80647   0.62103   0.38661   0.00000  Uiso   1.00
H1103  H     0.73726   0.65214   0.41336   0.00000  Uiso   1.00
H1104  H     0.73816   0.60873   0.45956   0.00000  Uiso   1.00
H1105  H     0.73623   0.59454   0.39368   0.00000  Uiso   1.00
H1106  H     0.77856   0.40739   0.42845   0.00000  Uiso   1.00
H1107  H     0.81804   0.40847   0.35581   0.00000  Uiso   1.00
H1108  H     0.79008   0.35743   0.34498   0.00000  Uiso   1.00
H1109  H     0.84289   0.35651   0.37194   0.00000  Uiso   1.00
H1110  H     0.83438   0.63489   0.61594   0.00000  Uiso   1.00
H1111  H     0.69376   0.50716   0.36467   0.00000  Uiso   1.00
H1112  H     0.90723   0.63599   0.63116   0.00000  Uiso   1.00
H1113  H     0.91548   0.60630   0.57202   0.00000  Uiso   1.00
H1114  H     0.89354   0.57852   0.62479   0.00000  Uiso   1.00
H1115  H     0.74376   0.51483   0.39725   0.00000  Uiso   1.00
H1116  H     0.97301   0.55955   0.60430   0.00000  Uiso   1.00
H1117  H     0.93233   0.51353   0.65241   0.00000  Uiso   1.00
H1118  H     0.97383   0.47784   0.62986   0.00000  Uiso   1.00
H1119  H     0.92220   0.47695   0.59967   0.00000  Uiso   1.00
H1120  H     0.96238   0.46791   0.38458   0.00000  Uiso   1.00
N1121  N     0.83333   0.61907   0.50000   0.00000  Uiso   1.00
N1122  N     0.85261   0.62199   0.58785   0.00000  Uiso   1.00
N1123  N     0.83333   0.38093   0.50000   0.00000  Uiso   1.00
N1124  N     0.70912   0.45898   0.41861   0.00000  Uiso   1.00
N1125  N     0.95867   0.53329   0.58526   0.00000  Uiso   1.00
N1126  N     0.95308   0.45893   0.41955   0.00000  Uiso   1.00
N1127  N     0.71424   0.53815   0.58117   0.00000  Uiso   1.00
N1128  N     0.87162   0.38179   0.57927   0.00000  Uiso   1.00
N1129  N     0.79464   0.61702   0.42170   0.00000  Uiso   1.00
N1130  N     0.79471   0.37859   0.42025   0.00000  Uiso   1.00
O1131  O     0.77226   0.53821   0.50000   0.00000  Uiso   1.00
O1132  O     0.89441   0.46179   0.50000   0.00000  Uiso   1.00
O1133  O     0.89441   0.53821   0.50000   0.00000  Uiso   1.00
O1134  O     0.77226   0.46179   0.50000   0.00000  Uiso   1.00
O1135  O     0.83334   0.53821   0.42845   0.00000  Uiso   1.00
O1136  O     0.83333   0.46179   0.57155   0.00000  Uiso   1.00
O1137  O     0.83333   0.53821   0.57155   0.00000  Uiso   1.00
O1138  O     0.83334   0.46179   0.42845   0.00000  Uiso   1.00
Zn1139 Zn    0.83333   0.55104   0.50000   0.00000  Uiso   1.00
Zn1140 Zn    0.83333   0.44896   0.50000   0.00000  Uiso   1.00
C1141  C     0.08697   0.83344   0.49926   0.00000  Uiso   1.00
C1142  C     0.02314   0.85332   0.54010   0.00000  Uiso   1.00
C1143  C     0.29076   0.83189   0.50098   0.00000  Uiso   1.00
C1144  C     0.04281   0.83385   0.49892   0.00000  Uiso   1.00
C1145  C     0.18420   0.69120   0.53936   0.00000  Uiso   1.00
C1146  C     0.14906   0.97515   0.46065   0.00000  Uiso   1.00
C1147  C     0.14905   0.68979   0.46047   0.00000  Uiso   1.00
C1148  C     0.18105   0.97683   0.54106   0.00000  Uiso   1.00
C1149  C     0.05500   0.82308   0.38082   0.00000  Uiso   1.00
C1150  C     0.27958   0.83178   0.61842   0.00000  Uiso   1.00
C1151  C     0.27689   0.74513   0.42296   0.00000  Uiso   1.00
C1152  C     0.24645   0.83309   0.50042   0.00000  Uiso   1.00
C1153  C     0.05539   0.91909   0.58030   0.00000  Uiso   1.00
C1154  C     0.25024   0.71668   0.57621   0.00000  Uiso   1.00
C1155  C     0.08263   0.95167   0.42232   0.00000  Uiso   1.00
C1156  C     0.14587   0.70827   0.37099   0.00000  Uiso   1.00
C1157  C     0.22793   0.94363   0.60437   0.00000  Uiso   1.00
C1158  C     0.16695   0.83311   0.40638   0.00000  Uiso   1.00
C1159  C     0.16649   0.83360   0.59363   0.00000  Uiso   1.00
C1160  C     0.16691   0.83313   0.35517   0.00000  Uiso   1.00
C1161  C     0.16668   0.83379   0.64484   0.00000  Uiso   1.00
C1162  C     0.02071   0.81257   0.45912   0.00000  Uiso   1.00
C1163  C     0.31311   0.85101   0.54199   0.00000  Uiso   1.00
C1164  C     0.31056   0.81138   0.46031   0.00000  Uiso   1.00
H1165  H     0.02875   0.76383   0.40352   0.00000  Uiso   1.00
H1166  H     0.29356   0.72579   0.39368   0.00000  Uiso   1.00
H1167  H     0.24267   0.74020   0.41666   0.00000  Uiso   1.00
H1168  H     0.28621   0.73163   0.46019   0.00000  Uiso   1.00
H1169  H     0.04014   0.85996   0.61587   0.00000  Uiso   1.00
H1170  H     0.03782   0.93647   0.61027   0.00000  Uiso   1.00
H1171  H     0.04591   0.93367   0.54366   0.00000  Uiso   1.00
H1172  H     0.08938   0.92517   0.58724   0.00000  Uiso   1.00
H1173  H     0.19557   0.70638   0.61432   0.00000  Uiso   1.00
H1174  H     0.25966   0.73627   0.54394   0.00000  Uiso   1.00
H1175  H     0.26399   0.68302   0.57135   0.00000  Uiso   1.00
H1176  H     0.07111   0.80454   0.35050   0.00000  Uiso   1.00
H1177  H     0.26401   0.73213   0.61100   0.00000  Uiso   1.00
H1178  H     0.13980   0.95436   0.38661   0.00000  Uiso   1.00
H1179  H     0.07059   0.98548   0.41336   0.00000  Uiso   1.00
H1180  H     0.07149   0.94207   0.45956   0.00000  Uiso   1.00
H1181  H     0.06956   0.92787   0.39368   0.00000  Uiso   1.00
H1182  H     0.11189   0.74072   0.42845   0.00000  Uiso   1.00
H1183  H     0.15137   0.74180   0.35581   0.00000  Uiso   1.00
H1184  H     0.12341   0.69077   0.34498   0.00000  Uiso   1.00
H1185  H     0.17622   0.68984   0.37194   0.00000  Uiso   1.00
H1186  H     0.16772   0.96822   0.61594   0.00000  Uiso   1.00
H1187  H     0.02710   0.84049   0.36467   0.00000  Uiso   1.00
H1188  H     0.24056   0.96933   0.63116   0.00000  Uiso   1.00
H1189  H     0.24881   0.93964   0.57202   0.00000  Uiso   1.00
H1190  H     0.22688   0.91186   0.62479   0.00000  Uiso   1.00
H1191  H     0.07709   0.84816   0.39725   0.00000  Uiso   1.00
H1192  H     0.30635   0.89288   0.60430   0.00000  Uiso   1.00
H1193  H     0.26566   0.84687   0.65241   0.00000  Uiso   1.00
H1194  H     0.30716   0.81117   0.62986   0.00000  Uiso   1.00
H1195  H     0.25553   0.81029   0.59967   0.00000  Uiso   1.00
H1196  H     0.29571   0.80124   0.38458   0.00000  Uiso   1.00
N1197  N     0.16667   0.95240   0.50000   0.00000  Uiso   1.00
N1198  N     0.18595   0.95533   0.58785   0.00000  Uiso   1.00
N1199  N     0.16667   0.71427   0.50000   0.00000  Uiso   1.00
N1200  N     0.04245   0.79231   0.41861   0.00000  Uiso   1.00
N1201  N     0.29201   0.86663   0.58526   0.00000  Uiso   1.00
N1202  N     0.28641   0.79226   0.41955   0.00000  Uiso   1.00
N1203  N     0.04757   0.87148   0.58117   0.00000  Uiso   1.00
N1204  N     0.20496   0.71513   0.57927   0.00000  Uiso   1.00
N1205  N     0.12797   0.95035   0.42170   0.00000  Uiso   1.00
N1206  N     0.12804   0.71192   0.42025   0.00000  Uiso   1.00
O1207  O     0.10559   0.87154   0.50000   0.00000  Uiso   1.00
O1208  O     0.22774   0.79513   0.50000   0.00000  Uiso   1.00
O1209  O     0.22774   0.87154   0.50000   0.00000  Uiso   1.00
O1210  O     0.10559   0.79513   0.50000   0.00000  Uiso   1.00
O1211  O     0.16667   0.87155   0.42845   0.00000  Uiso   1.00
O1212  O     0.16666   0.79512   0.57155   0.00000  Uiso   1.00
O1213  O     0.16666   0.87155   0.57155   0.00000  Uiso   1.00
O1214  O     0.16667   0.79512   0.42845   0.00000  Uiso   1.00
Zn1215 Zn    0.16667   0.88437   0.50000   0.00000  Uiso   1.00
Zn1216 Zn    0.16667   0.78229   0.50000   0.00000  Uiso   1.00
C1217  C     0.42030   0.83344   0.49926   0.00000  Uiso   1.00
C1218  C     0.35647   0.85332   0.54010   0.00000  Uiso   1.00
C1219  C     0.62410   0.83189   0.50098   0.00000  Uiso   1.00
C1220  C     0.37614   0.83385   0.49892   0.00000  Uiso   1.00
C1221  C     0.51753   0.69120   0.53936   0.00000  Uiso   1.00
C1222  C     0.48239   0.97515   0.46065   0.00000  Uiso   1.00
C1223  C     0.48238   0.68979   0.46047   0.00000  Uiso   1.00
C1224  C     0.51438   0.97683   0.54106   0.00000  Uiso   1.00
C1225  C     0.38834   0.82308   0.38082   0.00000  Uiso   1.00
C1226  C     0.61292   0.83178   0.61842   0.00000  Uiso   1.00
C1227  C     0.61022   0.74513   0.42296   0.00000  Uiso   1.00
C1228  C     0.57978   0.83309   0.50042   0.00000  Uiso   1.00
C1229  C     0.38873   0.91909   0.58030   0.00000  Uiso   1.00
C1230  C     0.58357   0.71668   0.57621   0.00000  Uiso   1.00
C1231  C     0.41596   0.95167   0.42232   0.00000  Uiso   1.00
C1232  C     0.47921   0.70827   0.37099   0.00000  Uiso   1.00
C1233  C     0.56127   0.94363   0.60437   0.00000  Uiso   1.00
C1234  C     0.50029   0.83311   0.40638   0.00000  Uiso   1.00
C1235  C     0.49983   0.83360   0.59363   0.00000  Uiso   1.00
C1236  C     0.50025   0.83313   0.35517   0.00000  Uiso   1.00
C1237  C     0.50002   0.83379   0.64484   0.00000  Uiso   1.00
C1238  C     0.35405   0.81257   0.45912   0.00000  Uiso   1.00
C1239  C     0.64644   0.85101   0.54199   0.00000  Uiso   1.00
C1240  C     0.64390   0.81138   0.46031   0.00000  Uiso   1.00
H1241  H     0.36209   0.76383   0.40352   0.00000  Uiso   1.00
H1242  H     0.62690   0.72579   0.39368   0.00000  Uiso   1.00
H1243  H     0.57601   0.74020   0.41666   0.00000  Uiso   1.00
H1244  H     0.61955   0.73163   0.46019   0.00000  Uiso   1.00
H1245  H     0.37348   0.85996   0.61587   0.00000  Uiso   1.00
H1246  H     0.37116   0.93647   0.61027   0.00000  Uiso   1.00
H1247  H     0.37924   0.93367   0.54366   0.00000  Uiso   1.00
H1248  H     0.42271   0.92517   0.58724   0.00000  Uiso   1.00
H1249  H     0.52890   0.70638   0.61432   0.00000  Uiso   1.00
H1250  H     0.59299   0.73627   0.54394   0.00000  Uiso   1.00
H1251  H     0.59732   0.68302   0.57135   0.00000  Uiso   1.00
H1252  H     0.40444   0.80454   0.35050   0.00000  Uiso   1.00
H1253  H     0.59734   0.73213   0.61100   0.00000  Uiso   1.00
H1254  H     0.47313   0.95436   0.38661   0.00000  Uiso   1.00
H1255  H     0.40393   0.98548   0.41336   0.00000  Uiso   1.00
H1256  H     0.40483   0.94207   0.45956   0.00000  Uiso   1.00
H1257  H     0.40290   0.92787   0.39368   0.00000  Uiso   1.00
H1258  H     0.44523   0.74072   0.42845   0.00000  Uiso   1.00
H1259  H     0.48470   0.74180   0.35581   0.00000  Uiso   1.00
H1260  H     0.45675   0.69077   0.34498   0.00000  Uiso   1.00
H1261  H     0.50955   0.68984   0.37194   0.00000  Uiso   1.00
H1262  H     0.50105   0.96822   0.61594   0.00000  Uiso   1.00
H1263  H     0.36043   0.84049   0.36467   0.00000  Uiso   1.00
H1264  H     0.57390   0.96933   0.63116   0.00000  Uiso   1.00
H1265  H     0.58215   0.93964   0.57202   0.00000  Uiso   1.00
H1266  H     0.56021   0.91186   0.62479   0.00000  Uiso   1.00
H1267  H     0.41042   0.84816   0.39725   0.00000  Uiso   1.00
H1268  H     0.63968   0.89288   0.60430   0.00000  Uiso   1.00
H1269  H     0.59899   0.84687   0.65241   0.00000  Uiso   1.00
H1270  H     0.64050   0.81117   0.62986   0.00000  Uiso   1.00
H1271  H     0.58887   0.81029   0.59967   0.00000  Uiso   1.00
H1272  H     0.62905   0.80124   0.38458   0.00000  Uiso   1.00
N1273  N     0.50000   0.95240   0.50000   0.00000  Uiso   1.00
N1274  N     0.51928   0.95533   0.58785   0.00000  Uiso   1.00
N1275  N     0.50000   0.71427   0.50000   0.00000  Uiso   1.00
N1276  N     0.37579   0.79231   0.41861   0.00000  Uiso   1.00
N1277  N     0.62534   0.86663   0.58526   0.00000  Uiso   1.00
N1278  N     0.61974   0.79226   0.41955   0.00000  Uiso   1.00
N1279  N     0.38090   0.87148   0.58117   0.00000  Uiso   1.00
N1280  N     0.53829   0.71513   0.57927   0.00000  Uiso   1.00
N1281  N     0.46130   0.95035   0.42170   0.00000  Uiso   1.00
N1282  N     0.46138   0.71192   0.42025   0.00000  Uiso   1.00
O1283  O     0.43892   0.87154   0.50000   0.00000  Uiso   1.00
O1284  O     0.56108   0.79513   0.50000   0.00000  Uiso   1.00
O1285  O     0.56108   0.87154   0.50000   0.00000  Uiso   1.00
O1286  O     0.43892   0.79513   0.50000   0.00000  Uiso   1.00
O1287  O     0.50000   0.87155   0.42845   0.00000  Uiso   1.00
O1288  O     0.50000   0.79512   0.57155   0.00000  Uiso   1.00
O1289  O     0.50000   0.87155   0.57155   0.00000  Uiso   1.00
O1290  O     0.50000   0.79512   0.42845   0.00000  Uiso   1.00
Zn1291 Zn    0.50000   0.88437   0.50000   0.00000  Uiso   1.00
Zn1292 Zn    0.50000   0.78229   0.50000   0.00000  Uiso   1.00
C1293  C     0.75364   0.83344   0.49926   0.00000  Uiso   1.00
C1294  C     0.68980   0.85332   0.54010   0.00000  Uiso   1.00
C1295  C     0.95743   0.83189   0.50098   0.00000  Uiso   1.00
C1296  C     0.70947   0.83385   0.49892   0.00000  Uiso   1.00
C1297  C     0.85086   0.69120   0.53936   0.00000  Uiso   1.00
C1298  C     0.81573   0.97515   0.46065   0.00000  Uiso   1.00
C1299  C     0.81571   0.68979   0.46047   0.00000  Uiso   1.00
C1300  C     0.84771   0.97683   0.54106   0.00000  Uiso   1.00
C1301  C     0.72167   0.82308   0.38082   0.00000  Uiso   1.00
C1302  C     0.94625   0.83178   0.61842   0.00000  Uiso   1.00
C1303  C     0.94356   0.74513   0.42296   0.00000  Uiso   1.00
C1304  C     0.91311   0.83309   0.50042   0.00000  Uiso   1.00
C1305  C     0.72206   0.91909   0.58030   0.00000  Uiso   1.00
C1306  C     0.91690   0.71668   0.57621   0.00000  Uiso   1.00
C1307  C     0.74930   0.95167   0.42232   0.00000  Uiso   1.00
C1308  C     0.81254   0.70827   0.37099   0.00000  Uiso   1.00
C1309  C     0.89460   0.94363   0.60437   0.00000  Uiso   1.00
C1310  C     0.83362   0.83311   0.40638   0.00000  Uiso   1.00
C1311  C     0.83316   0.83360   0.59363   0.00000  Uiso   1.00
C1312  C     0.83358   0.83313   0.35517   0.00000  Uiso   1.00
C1313  C     0.83335   0.83379   0.64484   0.00000  Uiso   1.00
C1314  C     0.68738   0.81257   0.45912   0.00000  Uiso   1.00
C1315  C     0.97977   0.85101   0.54199   0.00000  Uiso   1.00
C1316  C     0.97723   0.81138   0.46031   0.00000  Uiso   1.00
H1317  H     0.69542   0.76383   0.40352   0.00000  Uiso   1.00
H1318  H     0.96023   0.72579   0.39368   0.00000  Uiso   1.00
H1319  H     0.90934   0.74020   0.41666   0.00000  Uiso   1.00
H1320  H     0.95288   0.73163   0.46019   0.00000  Uiso   1.00
H1321  H     0.70681   0.85996   0.61587   0.00000  Uiso   1.00
H1322  H     0.70449   0.93647   0.61027   0.00000  Uiso   1.00
H1323  H     0.71258   0.93367   0.54366   0.00000  Uiso   1.00
H1324  H     0.75604   0.92517   0.58724   0.00000  Uiso   1.00
H1325  H     0.86223   0.70638   0.61432   0.00000  Uiso   1.00
H1326  H     0.92632   0.73627   0.54394   0.00000  Uiso   1.00
H1327  H     0.93066   0.68302   0.57135   0.00000  Uiso   1.00
H1328  H     0.73777   0.80454   0.35050   0.00000  Uiso   1.00
H1329  H     0.93068   0.73213   0.61100   0.00000  Uiso   1.00
H1330  H     0.80647   0.95436   0.38661   0.00000  Uiso   1.00
H1331  H     0.73726   0.98548   0.41336   0.00000  Uiso   1.00
H1332  H     0.73816   0.94207   0.45956   0.00000  Uiso   1.00
H1333  H     0.73623   0.92787   0.39368   0.00000  Uiso   1.00
H1334  H     0.77856   0.74072   0.42845   0.00000  Uiso   1.00
H1335  H     0.81804   0.74180   0.35581   0.00000  Uiso   1.00
H1336  H     0.79008   0.69077   0.34498   0.00000  Uiso   1.00
H1337  H     0.84289   0.68984   0.37194   0.00000  Uiso   1.00
H1338  H     0.83438   0.96822   0.61594   0.00000  Uiso   1.00
H1339  H     0.69376   0.84049   0.36467   0.00000  Uiso   1.00
H1340  H     0.90723   0.96933   0.63116   0.00000  Uiso   1.00
H1341  H     0.91548   0.93964   0.57202   0.00000  Uiso   1.00
H1342  H     0.89354   0.91186   0.62479   0.00000  Uiso   1.00
H1343  H     0.74376   0.84816   0.39725   0.00000  Uiso   1.00
H1344  H     0.97301   0.89288   0.60430   0.00000  Uiso   1.00
H1345  H     0.93233   0.84687   0.65241   0.00000  Uiso   1.00
H1346  H     0.97383   0.81117   0.62986   0.00000  Uiso   1.00
H1347  H     0.92220   0.81029   0.59967   0.00000  Uiso   1.00
H1348  H     0.96238   0.80124   0.38458   0.00000  Uiso   1.00
N1349  N     0.83333   0.95240   0.50000   0.00000  Uiso   1.00
N1350  N     0.85261   0.95533   0.58785   0.00000  Uiso   1.00
N1351  N     0.83333   0.71427   0.50000   0.00000  Uiso   1.00
N1352  N     0.70912   0.79231   0.41861   0.00000  Uiso   1.00
N1353  N     0.95867   0.86663   0.58526   0.00000  Uiso   1.00
N1354  N     0.95308   0.79226   0.41955   0.00000  Uiso   1.00
N1355  N     0.71424   0.87148   0.58117   0.00000  Uiso   1.00
N1356  N     0.87162   0.71513   0.57927   0.00000  Uiso   1.00
N1357  N     0.79464   0.95035   0.42170   0.00000  Uiso   1.00
N1358  N     0.79471   0.71192   0.42025   0.00000  Uiso   1.00
O1359  O     0.77226   0.87154   0.50000   0.00000  Uiso   1.00
O1360  O     0.89441   0.79513   0.50000   0.00000  Uiso   1.00
O1361  O     0.89441   0.87154   0.50000   0.00000  Uiso   1.00
O1362  O     0.77226   0.79513   0.50000   0.00000  Uiso   1.00
O1363  O     0.83334   0.87155   0.42845   0.00000  Uiso   1.00
O1364  O     0.83333   0.79512   0.57155   0.00000  Uiso   1.00
O1365  O     0.83333   0.87155   0.57155   0.00000  Uiso   1.00
O1366  O     0.83334   0.79512   0.42845   0.00000  Uiso   1.00
Zn1367 Zn    0.83333   0.88437   0.50000   0.00000  Uiso   1.00
Zn1368 Zn    0.83333   0.78229   0.50000   0.00000  Uiso   1.00
C1369  C     0.08697   0.16677   0.83260   0.00000  Uiso   1.00
C1370  C     0.02314   0.18665   0.87344   0.00000  Uiso   1.00
C1371  C     0.29076   0.16522   0.83431   0.00000  Uiso   1.00
C1372  C     0.04281   0.16718   0.83226   0.00000  Uiso   1.00
C1373  C     0.18420   0.02454   0.87270   0.00000  Uiso   1.00
C1374  C     0.14906   0.30848   0.79399   0.00000  Uiso   1.00
C1375  C     0.14905   0.02312   0.79380   0.00000  Uiso   1.00
C1376  C     0.18105   0.31016   0.87439   0.00000  Uiso   1.00
C1377  C     0.05500   0.15642   0.71416   0.00000  Uiso   1.00
C1378  C     0.27958   0.16511   0.95176   0.00000  Uiso   1.00
C1379  C     0.27689   0.07847   0.75629   0.00000  Uiso   1.00
C1380  C     0.24645   0.16643   0.83375   0.00000  Uiso   1.00
C1381  C     0.05539   0.25242   0.91363   0.00000  Uiso   1.00
C1382  C     0.25024   0.05002   0.90954   0.00000  Uiso   1.00
C1383  C     0.08263   0.28500   0.75565   0.00000  Uiso   1.00
C1384  C     0.14587   0.04160   0.70432   0.00000  Uiso   1.00
C1385  C     0.22793   0.27697   0.93770   0.00000  Uiso   1.00
C1386  C     0.16695   0.16644   0.73971   0.00000  Uiso   1.00
C1387  C     0.16649   0.16693   0.92696   0.00000  Uiso   1.00
C1388  C     0.16691   0.16647   0.68850   0.00000  Uiso   1.00
C1389  C     0.16668   0.16713   0.97817   0.00000  Uiso   1.00
C1390  C     0.02071   0.14591   0.79246   0.00000  Uiso   1.00
C1391  C     0.31311   0.18434   0.87532   0.00000  Uiso   1.00
C1392  C     0.31056   0.14471   0.79364   0.00000  Uiso   1.00
H1393  H     0.02875   0.09716   0.73686   0.00000  Uiso   1.00
H1394  H     0.29356   0.05913   0.72702   0.00000  Uiso   1.00
H1395  H     0.24267   0.07354   0.74999   0.00000  Uiso   1.00
H1396  H     0.28621   0.06497   0.79352   0.00000  Uiso   1.00
H1397  H     0.04014   0.19329   0.94920   0.00000  Uiso   1.00
H1398  H     0.03782   0.26981   0.94360   0.00000  Uiso   1.00
H1399  H     0.04591   0.26701   0.87700   0.00000  Uiso   1.00
H1400  H     0.08938   0.25850   0.92057   0.00000  Uiso   1.00
H1401  H     0.19557   0.03971   0.94765   0.00000  Uiso   1.00
H1402  H     0.25966   0.06960   0.87727   0.00000  Uiso   1.00
H1403  H     0.26399   0.01636   0.90468   0.00000  Uiso   1.00
H1404  H     0.07111   0.13787   0.68384   0.00000  Uiso   1.00
H1405  H     0.26401   0.06547   0.94434   0.00000  Uiso   1.00
H1406  H     0.13980   0.28769   0.71994   0.00000  Uiso   1.00
H1407  H     0.07059   0.31881   0.74669   0.00000  Uiso   1.00
H1408  H     0.07149   0.27540   0.79290   0.00000  Uiso   1.00
H1409  H     0.06956   0.26120   0.72701   0.00000  Uiso   1.00
H1410  H     0.11189   0.07406   0.76178   0.00000  Uiso   1.00
H1411  H     0.15137   0.07513   0.68915   0.00000  Uiso   1.00
H1412  H     0.12341   0.02410   0.67831   0.00000  Uiso   1.00
H1413  H     0.17622   0.02318   0.70528   0.00000  Uiso   1.00
H1414  H     0.16772   0.30156   0.94928   0.00000  Uiso   1.00
H1415  H     0.02710   0.17383   0.69801   0.00000  Uiso   1.00
H1416  H     0.24056   0.30266   0.96450   0.00000  Uiso   1.00
H1417  H     0.24881   0.27297   0.90536   0.00000  Uiso   1.00
H1418  H     0.22688   0.24519   0.95812   0.00000  Uiso   1.00
H1419  H     0.07709   0.18149   0.73058   0.00000  Uiso   1.00
H1420  H     0.30635   0.22622   0.93763   0.00000  Uiso   1.00
H1421  H     0.26566   0.18020   0.98574   0.00000  Uiso   1.00
H1422  H     0.30716   0.14451   0.96319   0.00000  Uiso   1.00
H1423  H     0.25553   0.14362   0.93301   0.00000  Uiso   1.00
H1424  H     0.29571   0.13458   0.71792   0.00000  Uiso   1.00
N1425  N     0.16667   0.28573   0.83333   0.00000  Uiso   1.00
N1426  N     0.18595   0.28866   0.92118   0.00000  Uiso   1.00
N1427  N     0.16667   0.04760   0.83333   0.00000  Uiso   1.00
N1428  N     0.04245   0.12565   0.75194   0.00000  Uiso   1.00
N1429  N     0.29201   0.19996   0.91860   0.00000  Uiso   1.00
N1430  N     0.28641   0.12559   0.75288   0.00000  Uiso   1.00
N1431  N     0.04757   0.20482   0.91451   0.00000  Uiso   1.00
N1432  N     0.20496   0.04846   0.91260   0.00000  Uiso   1.00
N1433  N     0.12797   0.28368   0.75504   0.00000  Uiso   1.00
N1434  N     0.12804   0.04526   0.75359   0.00000  Uiso   1.00
O1435  O     0.10559   0.20487   0.83333   0.00000  Uiso   1.00
O1436  O     0.22774   0.12846   0.83334   0.00000  Uiso   1.00
O1437  O     0.22774   0.20487   0.83334   0.00000  Uiso   1.00
O1438  O     0.10559   0.12846   0.83333   0.00000  Uiso   1.00
O1439  O     0.16667   0.20488   0.76178   0.00000  Uiso   1.00
O1440  O     0.16666   0.12845   0.90489   0.00000  Uiso   1.00
O1441  O     0.16666   0.20488   0.90489   0.00000  Uiso   1.00
O1442  O     0.16667   0.12845   0.76178   0.00000  Uiso   1.00
Zn1443 Zn    0.16667   0.21771   0.83333   0.00000  Uiso   1.00
Zn1444 Zn    0.16667   0.11563   0.83333   0.00000  Uiso   1.00
C1445  C     0.42030   0.16677   0.83260   0.00000  Uiso   1.00
C1446  C     0.35647   0.18665   0.87344   0.00000  Uiso   1.00
C1447  C     0.62410   0.16522   0.83431   0.00000  Uiso   1.00
C1448  C     0.37614   0.16718   0.83226   0.00000  Uiso   1.00
C1449  C     0.51753   0.02454   0.87270   0.00000  Uiso   1.00
C1450  C     0.48239   0.30848   0.79399   0.00000  Uiso   1.00
C1451  C     0.48238   0.02312   0.79380   0.00000  Uiso   1.00
C1452  C     0.51438   0.31016   0.87439   0.00000  Uiso   1.00
C1453  C     0.38834   0.15642   0.71416   0.00000  Uiso   1.00
C1454  C     0.61292   0.16511   0.95176   0.00000  Uiso   1.00
C1455  C     0.61022   0.07847   0.75629   0.00000  Uiso   1.00
C1456  C     0.57978   0.16643   0.83375   0.00000  Uiso   1.00
C1457  C     0.38873   0.25242   0.91363   0.00000  Uiso   1.00
C1458  C     0.58357   0.05002   0.90954   0.00000  Uiso   1.00
C1459  C     0.41596   0.28500   0.75565   0.00000  Uiso   1.00
C1460  C     0.47921   0.04160   0.70432   0.00000  Uiso   1.00
C1461  C     0.56127   0.27697   0.93770   0.00000  Uiso   1.00
C1462  C     0.50029   0.16644   0.73971   0.00000  Uiso   1.00
C1463  C     0.49983   0.16693   0.92696   0.00000  Uiso   1.00
C1464  C     0.50025   0.16647   0.68850   0.00000  Uiso   1.00
C1465  C     0.50002   0.16713   0.97817   0.00000  Uiso   1.00
C1466  C     0.35405   0.14591   0.79246   0.00000  Uiso   1.00
C1467  C     0.64644   0.18434   0.87532   0.00000  Uiso   1.00
C1468  C     0.64390   0.14471   0.79364   0.00000  Uiso   1.00
H1469  H     0.36209   0.09716   0.73686   0.00000  Uiso   1.00
H1470  H     0.62690   0.05913   0.72702   0.00000  Uiso   1.00
H1471  H     0.57601   0.07354   0.74999   0.00000  Uiso   1.00
H1472  H     0.61955   0.06497   0.79352   0.00000  Uiso   1.00
H1473  H     0.37348   0.19329   0.94920   0.00000  Uiso   1.00
H1474  H     0.37116   0.26981   0.94360   0.00000  Uiso   1.00
H1475  H     0.37924   0.26701   0.87700   0.00000  Uiso   1.00
H1476  H     0.42271   0.25850   0.92057   0.00000  Uiso   1.00
H1477  H     0.52890   0.03971   0.94765   0.00000  Uiso   1.00
H1478  H     0.59299   0.06960   0.87727   0.00000  Uiso   1.00
H1479  H     0.59732   0.01636   0.90468   0.00000  Uiso   1.00
H1480  H     0.40444   0.13787   0.68384   0.00000  Uiso   1.00
H1481  H     0.59734   0.06547   0.94434   0.00000  Uiso   1.00
H1482  H     0.47313   0.28769   0.71994   0.00000  Uiso   1.00
H1483  H     0.40393   0.31881   0.74669   0.00000  Uiso   1.00
H1484  H     0.40483   0.27540   0.79290   0.00000  Uiso   1.00
H1485  H     0.40290   0.26120   0.72701   0.00000  Uiso   1.00
H1486  H     0.44523   0.07406   0.76178   0.00000  Uiso   1.00
H1487  H     0.48470   0.07513   0.68915   0.00000  Uiso   1.00
H1488  H     0.45675   0.02410   0.67831   0.00000  Uiso   1.00
H1489  H     0.50955   0.02318   0.70528   0.00000  Uiso   1.00
H1490  H     0.50105   0.30156   0.94928   0.00000  Uiso   1.00
H1491  H     0.36043   0.17383   0.69801   0.00000  Uiso   1.00
H1492  H     0.57390   0.30266   0.96450   0.00000  Uiso   1.00
H1493  H     0.58215   0.27297   0.90536   0.00000  Uiso   1.00
H1494  H     0.56021   0.24519   0.95812   0.00000  Uiso   1.00
H1495  H     0.41042   0.18149   0.73058   0.00000  Uiso   1.00
H1496  H     0.63968   0.22622   0.93763   0.00000  Uiso   1.00
H1497  H     0.59899   0.18020   0.98574   0.00000  Uiso   1.00
H1498  H     0.64050   0.14451   0.96319   0.00000  Uiso   1.00
H1499  H     0.58887   0.14362   0.93301   0.00000  Uiso   1.00
H1500  H     0.62905   0.13458   0.71792   0.00000  Uiso   1.00
N1501  N     0.50000   0.28573   0.83333   0.00000  Uiso   1.00
N1502  N     0.51928   0.28866   0.92118   0.00000  Uiso   1.00
N1503  N     0.50000   0.04760   0.83333   0.00000  Uiso   1.00
N1504  N     0.37579   0.12565   0.75194   0.00000  Uiso   1.00
N1505  N     0.62534   0.19996   0.91860   0.00000  Uiso   1.00
N1506  N     0.61974   0.12559   0.75288   0.00000  Uiso   1.00
N1507  N     0.38090   0.20482   0.91451   0.00000  Uiso   1.00
N1508  N     0.53829   0.04846   0.91260   0.00000  Uiso   1.00
N1509  N     0.46130   0.28368   0.75504   0.00000  Uiso   1.00
N1510  N     0.46138   0.04526   0.75359   0.00000  Uiso   1.00
O1511  O     0.43892   0.20487   0.83333   0.00000  Uiso   1.00
O1512  O     0.56108   0.12846   0.83334   0.00000  Uiso   1.00
O1513  O     0.56108   0.20487   0.83334   0.00000  Uiso   1.00
O1514  O     0.43892   0.12846   0.83333   0.00000  Uiso   1.00
O1515  O     0.50000   0.20488   0.76178   0.00000  Uiso   1.00
O1516  O     0.50000   0.12845   0.90489   0.00000  Uiso   1.00
O1517  O     0.50000   0.20488   0.90489   0.00000  Uiso   1.00
O1518  O     0.50000   0.12845   0.76178   0.00000  Uiso   1.00
Zn1519 Zn    0.50000   0.21771   0.83333   0.00000  Uiso   1.00
Zn1520 Zn    0.50000   0.11563   0.83333   0.00000  Uiso   1.00
C1521  C     0.75364   0.16677   0.83260   0.00000  Uiso   1.00
C1522  C     0.68980   0.18665   0.87344   0.00000  Uiso   1.00
C1523  C     0.95743   0.16522   0.83431   0.00000  Uiso   1.00
C1524  C     0.70947   0.16718   0.83226   0.00000  Uiso   1.00
C1525  C     0.85086   0.02454   0.87270   0.00000  Uiso   1.00
C1526  C     0.81573   0.30848   0.79399   0.00000  Uiso   1.00
C1527  C     0.81571   0.02312   0.79380   0.00000  Uiso   1.00
C1528  C     0.84771   0.31016   0.87439   0.00000  Uiso   1.00
C1529  C     0.72167   0.15642   0.71416   0.00000  Uiso   1.00
C1530  C     0.94625   0.16511   0.95176   0.00000  Uiso   1.00
C1531  C     0.94356   0.07847   0.75629   0.00000  Uiso   1.00
C1532  C     0.91311   0.16643   0.83375   0.00000  Uiso   1.00
C1533  C     0.72206   0.25242   0.91363   0.00000  Uiso   1.00
C1534  C     0.91690   0.05002   0.90954   0.00000  Uiso   1.00
C1535  C     0.74930   0.28500   0.75565   0.00000  Uiso   1.00
C1536  C     0.81254   0.04160   0.70432   0.00000  Uiso   1.00
C1537  C     0.89460   0.27697   0.93770   0.00000  Uiso   1.00
C1538  C     0.83362   0.16644   0.73971   0.00000  Uiso   1.00
C1539  C     0.83316   0.16693   0.92696   0.00000  Uiso   1.00
C1540  C     0.83358   0.16647   0.68850   0.00000  Uiso   1.00
C1541  C     0.83335   0.16713   0.97817   0.00000  Uiso   1.00
C1542  C     0.68738   0.14591   0.79246   0.00000  Uiso   1.00
C1543  C     0.97977   0.18434   0.87532   0.00000  Uiso   1.00
C1544  C     0.97723   0.14471   0.79364   0.00000  Uiso   1.00
H1545  H     0.69542   0.09716   0.73686   0.00000  Uiso   1.00
H1546  H     0.96023   0.05913   0.72702   0.00000  Uiso   1.00
H1547  H     0.90934   0.07354   0.74999   0.00000  Uiso   1.00
H1548  H     0.95288   0.06497   0.79352   0.00000  Uiso   1.00
H1549  H     0.70681   0.19329   0.94920   0.00000  Uiso   1.00
H1550  H     0.70449   0.26981   0.94360   0.00000  Uiso   1.00
H1551  H     0.71258   0.26701   0.87700   0.00000  Uiso   1.00
H1552  H     0.75604   0.25850   0.92057   0.00000  Uiso   1.00
H1553  H     0.86223   0.03971   0.94765   0.00000  Uiso   1.00
H1554  H     0.92632   0.06960   0.87727   0.00000  Uiso   1.00
H1555  H     0.93066   0.01636   0.90468   0.00000  Uiso   1.00
H1556  H     0.73777   0.13787   0.68384   0.00000  Uiso   1.00
H1557  H     0.93068   0.06547   0.94434   0.00000  Uiso   1.00
H1558  H     0.80647   0.28769   0.71994   0.00000  Uiso   1.00
H1559  H     0.73726   0.31881   0.74669   0.00000  Uiso   1.00
H1560  H     0.73816   0.27540   0.79290   0.00000  Uiso   1.00
H1561  H     0.73623   0.26120   0.72701   0.00000  Uiso   1.00
H1562  H     0.77856   0.07406   0.76178   0.00000  Uiso   1.00
H1563  H     0.81804   0.07513   0.68915   0.00000  Uiso   1.00
H1564  H     0.79008   0.02410   0.67831   0.00000  Uiso   1.00
H1565  H     0.84289   0.02318   0.70528   0.00000  Uiso   1.00
H1566  H     0.83438   0.30156   0.94928   0.00000  Uiso   1.00
H1567  H     0.69376   0.17383   0.69801   0.00000  Uiso   1.00
H1568  H     0.90723   0.30266   0.96450   0.00000  Uiso   1.00
H1569  H     0.91548   0.27297   0.90536   0.00000  Uiso   1.00
H1570  H     0.89354   0.24519   0.95812   0.00000  Uiso   1.00
H1571  H     0.74376   0.18149   0.73058   0.00000  Uiso   1.00
H1572  H     0.97301   0.22622   0.93763   0.00000  Uiso   1.00
H1573  H     0.93233   0.18020   0.98574   0.00000  Uiso   1.00
H1574  H     0.97383   0.14451   0.96319   0.00000  Uiso   1.00
H1575  H     0.92220   0.14362   0.93301   0.00000  Uiso   1.00
H1576  H     0.96238   0.13458   0.71792   0.00000  Uiso   1.00
N1577  N     0.83333   0.28573   0.83333   0.00000  Uiso   1.00
N1578  N     0.85261   0.28866   0.92118   0.00000  Uiso   1.00
N1579  N     0.83333   0.04760   0.83333   0.00000  Uiso   1.00
N1580  N     0.70912   0.12565   0.75194   0.00000  Uiso   1.00
N1581  N     0.95867   0.19996   0.91860   0.00000  Uiso   1.00
N1582  N     0.95308   0.12559   0.75288   0.00000  Uiso   1.00
N1583  N     0.71424   0.20482   0.91451   0.00000  Uiso   1.00
N1584  N     0.87162   0.04846   0.91260   0.00000  Uiso   1.00
N1585  N     0.79464   0.28368   0.75504   0.00000  Uiso   1.00
N1586  N     0.79471   0.04526   0.75359   0.00000  Uiso   1.00
O1587  O     0.77226   0.20487   0.83333   0.00000  Uiso   1.00
O1588  O     0.89441   0.12846   0.83334   0.00000  Uiso   1.00
O1589  O     0.89441   0.20487   0.83334   0.00000  Uiso   1.00
O1590  O     0.77226   0.12846   0.83333   0.00000  Uiso   1.00
O1591  O     0.83334   0.20488   0.76178   0.00000  Uiso   1.00
O1592  O     0.83333   0.12845   0.90489   0.00000  Uiso   1.00
O1593  O     0.83333   0.20488   0.90489   0.00000  Uiso   1.00
O1594  O     0.83334   0.12845   0.76178   0.00000  Uiso   1.00
Zn1595 Zn    0.83333   0.21771   0.83333   0.00000  Uiso   1.00
Zn1596 Zn    0.83333   0.11563   0.83333   0.00000  Uiso   1.00
C1597  C     0.08697   0.50011   0.83260   0.00000  Uiso   1.00
C1598  C     0.02314   0.51998   0.87344   0.00000  Uiso   1.00
C1599  C     0.29076   0.49855   0.83431   0.00000  Uiso   1.00
C1600  C     0.04281   0.50051   0.83226   0.00000  Uiso   1.00
C1601  C     0.18420   0.35787   0.87270   0.00000  Uiso   1.00
C1602  C     0.14906   0.64182   0.79399   0.00000  Uiso   1.00
C1603  C     0.14905   0.35645   0.79380   0.00000  Uiso   1.00
C1604  C     0.18105   0.64350   0.87439   0.00000  Uiso   1.00
C1605  C     0.05500   0.48975   0.71416   0.00000  Uiso   1.00
C1606  C     0.27958   0.49845   0.95176   0.00000  Uiso   1.00
C1607  C     0.27689   0.41180   0.75629   0.00000  Uiso   1.00
C1608  C     0.24645   0.49976   0.83375   0.00000  Uiso   1.00
C1609  C     0.05539   0.58576   0.91363   0.00000  Uiso   1.00
C1610  C     0.25024   0.38335   0.90954   0.00000  Uiso   1.00
C1611  C     0.08263   0.61833   0.75565   0.00000  Uiso   1.00
C1612  C     0.14587   0.37494   0.70432   0.00000  Uiso   1.00
C1613  C     0.22793   0.61030   0.93770   0.00000  Uiso   1.00
C1614  C     0.16695   0.49978   0.73971   0.00000  Uiso   1.00
C1615  C     0.16649   0.50027   0.92696   0.00000  Uiso   1.00
C1616  C     0.16691   0.49980   0.68850   0.00000  Uiso   1.00
C1617  C     0.16668   0.50046   0.97817   0.00000  Uiso   1.00
C1618  C     0.02071   0.47924   0.79246   0.00000  Uiso   1.00
C1619  C     0.31311   0.51768   0.87532   0.00000  Uiso   1.00
C1620  C     0.31056   0.47804   0.79364   0.00000  Uiso   1.00
H1621  H     0.02875   0.43050   0.73686   0.00000  Uiso   1.00
H1622  H     0.29356   0.39246   0.72702   0.00000  Uiso   1.00
H1623  H     0.24267   0.40687   0.74999   0.00000  Uiso   1.00
H1624  H     0.28621   0.39830   0.79352   0.00000  Uiso   1.00
H1625  H     0.04014   0.52663   0.94920   0.00000  Uiso   1.00
H1626  H     0.03782   0.60314   0.94360   0.00000  Uiso   1.00
H1627  H     0.04591   0.60034   0.87700   0.00000  Uiso   1.00
H1628  H     0.08938   0.59184   0.92057   0.00000  Uiso   1.00
H1629  H     0.19557   0.37305   0.94765   0.00000  Uiso   1.00
H1630  H     0.25966   0.40293   0.87727   0.00000  Uiso   1.00
H1631  H     0.26399   0.34969   0.90468   0.00000  Uiso   1.00
H1632  H     0.07111   0.47121   0.68384   0.00000  Uiso   1.00
H1633  H     0.26401   0.39880   0.94434   0.00000  Uiso   1.00
H1634  H     0.13980   0.62103   0.71994   0.00000  Uiso   1.00
H1635  H     0.07059   0.65214   0.74669   0.00000  Uiso   1.00
H1636  H     0.07149   0.60873   0.79290   0.00000  Uiso   1.00
H1637  H     0.06956   0.59454   0.72701   0.00000  Uiso   1.00
H1638  H     0.11189   0.40739   0.76178   0.00000  Uiso   1.00
H1639  H     0.15137   0.40847   0.68915   0.00000  Uiso   1.00
H1640  H     0.12341   0.35743   0.67831   0.00000  Uiso   1.00
H1641  H     0.17622   0.35651   0.70528   0.00000  Uiso   1.00
H1642  H     0.16772   0.63489   0.94928   0.00000  Uiso   1.00
H1643  H     0.02710   0.50716   0.69801   0.00000  Uiso   1.00
H1644  H     0.24056   0.63599   0.96450   0.00000  Uiso   1.00
H1645  H     0.24881   0.60630   0.90536   0.00000  Uiso   1.00
H1646  H     0.22688   0.57852   0.95812   0.00000  Uiso   1.00
H1647  H     0.07709   0.51483   0.73058   0.00000  Uiso   1.00
H1648  H     0.30635   0.55955   0.93763   0.00000  Uiso   1.00
H1649  H     0.26566   0.51353   0.98574   0.00000  Uiso   1.00
H1650  H     0.30716   0.47784   0.96319   0.00000  Uiso   1.00
H1651  H     0.25553   0.47695   0.93301   0.00000  Uiso   1.00
H1652  H     0.29571   0.46791   0.71792   0.00000  Uiso   1.00
N1653  N     0.16667   0.61907   0.83333   0.00000  Uiso   1.00
N1654  N     0.18595   0.62199   0.92118   0.00000  Uiso   1.00
N1655  N     0.16667   0.38093   0.83333   0.00000  Uiso   1.00
N1656  N     0.04245   0.45898   0.75194   0.00000  Uiso   1.00
N1657  N     0.29201   0.53329   0.91860   0.00000  Uiso   1.00
N1658  N     0.28641   0.45893   0.75288   0.00000  Uiso   1.00
N1659  N     0.04757   0.53815   0.91451   0.00000  Uiso   1.00
N1660  N     0.20496   0.38179   0.91260   0.00000  Uiso   1.00
N1661  N     0.12797   0.61702   0.75504   0.00000  Uiso   1.00
N1662  N     0.12804   0.37859   0.75359   0.00000  Uiso   1.00
O1663  O     0.10559   0.53821   0.83333   0.00000  Uiso   1.00
O1664  O     0.22774   0.46179   0.83334   0.00000  Uiso   1.00
O1665  O     0.22774   0.53821   0.83334   0.00000  Uiso   1.00
O1666  O     0.10559   0.46179   0.83333   0.00000  Uiso   1.00
O1667  O     0.16667   0.53821   0.76178   0.00000  Uiso   1.00
O1668  O     0.16666   0.46179   0.90489   0.00000  Uiso   1.00
O1669  O     0.16666   0.53821   0.90489   0.00000  Uiso   1.00
O1670  O     0.16667   0.46179   0.76178   0.00000  Uiso   1.00
Zn1671 Zn    0.16667   0.55104   0.83333   0.00000  Uiso   1.00
Zn1672 Zn    0.16667   0.44896   0.83333   0.00000  Uiso   1.00
C1673  C     0.42030   0.50011   0.83260   0.00000  Uiso   1.00
C1674  C     0.35647   0.51998   0.87344   0.00000  Uiso   1.00
C1675  C     0.62410   0.49855   0.83431   0.00000  Uiso   1.00
C1676  C     0.37614   0.50051   0.83226   0.00000  Uiso   1.00
C1677  C     0.51753   0.35787   0.87270   0.00000  Uiso   1.00
C1678  C     0.48239   0.64182   0.79399   0.00000  Uiso   1.00
C1679  C     0.48238   0.35645   0.79380   0.00000  Uiso   1.00
C1680  C     0.51438   0.64350   0.87439   0.00000  Uiso   1.00
C1681  C     0.38834   0.48975   0.71416   0.00000  Uiso   1.00
C1682  C     0.61292   0.49845   0.95176   0.00000  Uiso   1.00
C1683  C     0.61022   0.41180   0.75629   0.00000  Uiso   1.00
C1684  C     0.57978   0.49976   0.83375   0.00000  Uiso   1.00
C1685  C     0.38873   0.58576   0.91363   0.00000  Uiso   1.00
C1686  C     0.58357   0.38335   0.90954   0.00000  Uiso   1.00
C1687  C     0.41596   0.61833   0.75565   0.00000  Uiso   1.00
C1688  C     0.47921   0.37494   0.70432   0.00000  Uiso   1.00
C1689  C     0.56127   0.61030   0.93770   0.00000  Uiso   1.00
C1690  C     0.50029   0.49978   0.73971   0.00000  Uiso   1.00
C1691  C     0.49983   0.50027   0.92696   0.00000  Uiso   1.00
C1692  C     0.50025   0.49980   0.68850   0.00000  Uiso   1.00
C1693  C     0.50002   0.50046   0.97817   0.00000  Uiso   1.00
C1694  C     0.35405   0.47924   0.79246   0.00000  Uiso   1.00
C1695  C     0.64644   0.51768   0.87532   0.00000  Uiso   1.00
C1696  C     0.64390   0.47804   0.79364   0.00000  Uiso   1.00
H1697  H     0.36209   0.43050   0.73686   0.00000  Uiso   1.00
H1698  H     0.62690   0.39246   0.72702   0.00000  Uiso   1.00
H1699  H     0.57601   0.40687   0.74999   0.00000  Uiso   1.00
H1700  H     0.61955   0.39830   0.79352   0.00000  Uiso   1.00
H1701  H     0.37348   0.52663   0.94920   0.00000  Uiso   1.00
H1702  H     0.37116   0.60314   0.94360   0.00000  Uiso   1.00
H1703  H     0.37924   0.60034   0.87700   0.00000  Uiso   1.00
H1704  H     0.42271   0.59184   0.92057   0.00000  Uiso   1.00
H1705  H     0.52890   0.37305   0.94765   0.00000  Uiso   1.00
H1706  H     0.59299   0.40293   0.87727   0.00000  Uiso   1.00
H1707  H     0.59732   0.34969   0.90468   0.00000  Uiso   1.00
H1708  H     0.40444   0.47121   0.68384   0.00000  Uiso   1.00
H1709  H     0.59734   0.39880   0.94434   0.00000  Uiso   1.00
H1710  H     0.47313   0.62103   0.71994   0.00000  Uiso   1.00
H1711  H     0.40393   0.65214   0.74669   0.00000  Uiso   1.00
H1712  H     0.40483   0.60873   0.79290   0.00000  Uiso   1.00
H1713  H     0.40290   0.59454   0.72701   0.00000  Uiso   1.00
H1714  H     0.44523   0.40739   0.76178   0.00000  Uiso   1.00
H1715  H     0.48470   0.40847   0.68915   0.00000  Uiso   1.00
H1716  H     0.45675   0.35743   0.67831   0.00000  Uiso   1.00
H1717  H     0.50955   0.35651   0.70528   0.00000  Uiso   1.00
H1718  H     0.50105   0.63489   0.94928   0.00000  Uiso   1.00
H1719  H     0.36043   0.50716   0.69801   0.00000  Uiso   1.00
H1720  H     0.57390   0.63599   0.96450   0.00000  Uiso   1.00
H1721  H     0.58215   0.60630   0.90536   0.00000  Uiso   1.00
H1722  H     0.56021   0.57852   0.95812   0.00000  Uiso   1.00
H1723  H     0.41042   0.51483   0.73058   0.00000  Uiso   1.00
H1724  H     0.63968   0.55955   0.93763   0.00000  Uiso   1.00
H1725  H     0.59899   0.51353   0.98574   0.00000  Uiso   1.00
H1726  H     0.64050   0.47784   0.96319   0.00000  Uiso   1.00
H1727  H     0.58887   0.47695   0.93301   0.00000  Uiso   1.00
H1728  H     0.62905   0.46791   0.71792   0.00000  Uiso   1.00
N1729  N     0.50000   0.61907   0.83333   0.00000  Uiso   1.00
N1730  N     0.51928   0.62199   0.92118   0.00000  Uiso   1.00
N1731  N     0.50000   0.38093   0.83333   0.00000  Uiso   1.00
N1732  N     0.37579   0.45898   0.75194   0.00000  Uiso   1.00
N1733  N     0.62534   0.53329   0.91860   0.00000  Uiso   1.00
N1734  N     0.61974   0.45893   0.75288   0.00000  Uiso   1.00
N1735  N     0.38090   0.53815   0.91451   0.00000  Uiso   1.00
N1736  N     0.53829   0.38179   0.91260   0.00000  Uiso   1.00
N1737  N     0.46130   0.61702   0.75504   0.00000  Uiso   1.00
N1738  N     0.46138   0.37859   0.75359   0.00000  Uiso   1.00
O1739  O     0.43892   0.53821   0.83333   0.00000  Uiso   1.00
O1740  O     0.56108   0.46179   0.83334   0.00000  Uiso   1.00
O1741  O     0.56108   0.53821   0.83334   0.00000  Uiso   1.00
O1742  O     0.43892   0.46179   0.83333   0.00000  Uiso   1.00
O1743  O     0.50000   0.53821   0.76178   0.00000  Uiso   1.00
O1744  O     0.50000   0.46179   0.90489   0.00000  Uiso   1.00
O1745  O     0.50000   0.53821   0.90489   0.00000  Uiso   1.00
O1746  O     0.50000   0.46179   0.76178   0.00000  Uiso   1.00
Zn1747 Zn    0.50000   0.55104   0.83333   0.00000  Uiso   1.00
Zn1748 Zn    0.50000   0.44896   0.83333   0.00000  Uiso   1.00
C1749  C     0.75364   0.50011   0.83260   0.00000  Uiso   1.00
C1750  C     0.68980   0.51998   0.87344   0.00000  Uiso   1.00
C1751  C     0.95743   0.49855   0.83431   0.00000  Uiso   1.00
C1752  C     0.70947   0.50051   0.83226   0.00000  Uiso   1.00
C1753  C     0.85086   0.35787   0.87270   0.00000  Uiso   1.00
C1754  C     0.81573   0.64182   0.79399   0.00000  Uiso   1.00
C1755  C     0.81571   0.35645   0.79380   0.00000  Uiso   1.00
C1756  C     0.84771   0.64350   0.87439   0.00000  Uiso   1.00
C1757  C     0.72167   0.48975   0.71416   0.00000  Uiso   1.00
C1758  C     0.94625   0.49845   0.95176   0.00000  Uiso   1.00
C1759  C     0.94356   0.41180   0.75629   0.00000  Uiso   1.00
C1760  C     0.91311   0.49976   0.83375   0.00000  Uiso   1.00
C1761  C     0.72206   0.58576   0.91363   0.00000  Uiso   1.00
C1762  C     0.91690   0.38335   0.90954   0.00000  Uiso   1.00
C1763  C     0.74930   0.61833   0.75565   0.00000  Uiso   1.00
C1764  C     0.81254   0.37494   0.70432   0.00000  Uiso   1.00
C1765  C     0.89460   0.61030   0.93770   0.00000  Uiso   1.00
C1766  C     0.83362   0.49978   0.73971   0.00000  Uiso   1.00
C1767  C     0.83316   0.50027   0.92696   0.00000  Uiso   1.00
C1768  C     0.83358   0.49980   0.68850   0.00000  Uiso   1.00
C1769  C     0.83335   0.50046   0.97817   0.00000  Uiso   1.00
C1770  C     0.68738   0.47924   0.79246   0.00000  Uiso   1.00
C1771  C     0.97977   0.51768   0.87532   0.00000  Uiso   1.00
C1772  C     0.97723   0.47804   0.79364   0.00000  Uiso   1.00
H1773  H     0.69542   0.43050   0.73686   0.00000  Uiso   1.00
H1774  H     0.96023   0.39246   0.72702   0.00000  Uiso   1.00
H1775  H     0.90934   0.40687   0.74999   0.00000  Uiso   1.00
H1776  H     0.95288   0.39830   0.79352   0.00000  Uiso   1.00
H1777  H     0.70681   0.52663   0.94920   0.00000  Uiso   1.00
H1778  H     0.70449   0.60314   0.94360   0.00000  Uiso   1.00
H1779  H     0.71258   0.60034   0.87700   0.00000  Uiso   1.00
H1780  H     0.75604   0.59184   0.92057   0.00000  Uiso   1.00
H1781  H     0.86223   0.37305   0.94765   0.00000  Uiso   1.00
H1782  H     0.92632   0.40293   0.87727   0.00000  Uiso   1.00
H1783  H     0.93066   0.34969   0.90468   0.00000  Uiso   1.00
H1784  H     0.73777   0.47121   0.68384   0.00000  Uiso   1.00
H1785  H     0.93068   0.39880   0.94434   0.00000  Uiso   1.00
H1786  H     0.80647   0.62103   0.71994   0.00000  Uiso   1.00
H1787  H     0.73726   0.65214   0.74669   0.00000  Uiso   1.00
H1788  H     0.73816   0.60873   0.79290   0.00000  Uiso   1.00
H1789  H     0.73623   0.59454   0.72701   0.00000  Uiso   1.00
H1790  H     0.77856   0.40739   0.76178   0.00000  Uiso   1.00
H1791  H     0.81804   0.40847   0.68915   0.00000  Uiso   1.00
H1792  H     0.79008   0.35743   0.67831   0.00000  Uiso   1.00
H1793  H     0.84289   0.35651   0.70528   0.00000  Uiso   1.00
H1794  H     0.83438   0.63489   0.94928   0.00000  Uiso   1.00
H1795  H     0.69376   0.50716   0.69801   0.00000  Uiso   1.00
H1796  H     0.90723   0.63599   0.96450   0.00000  Uiso   1.00
H1797  H     0.91548   0.60630   0.90536   0.00000  Uiso   1.00
H1798  H     0.89354   0.57852   0.95812   0.00000  Uiso   1.00
H1799  H     0.74376   0.51483   0.73058   0.00000  Uiso   1.00
H1800  H     0.97301   0.55955   0.93763   0.00000  Uiso   1.00
H1801  H     0.93233   0.51353   0.98574   0.00000  Uiso   1.00
H1802  H     0.97383   0.47784   0.96319   0.00000  Uiso   1.00
H1803  H     0.92220   0.47695   0.93301   0.00000  Uiso   1.00
H1804  H     0.96238   0.46791   0.71792   0.00000  Uiso   1.00
N1805  N     0.83333   0.61907   0.83333   0.00000  Uiso   1.00
N1806  N     0.85261   0.62199   0.92118   0.00000  Uiso   1.00
N1807  N     0.83333   0.38093   0.83333   0.00000  Uiso   1.00
N1808  N     0.70912   0.45898   0.75194   0.00000  Uiso   1.00
N1809  N     0.95867   0.53329   0.91860   0.00000  Uiso   1.00
N1810  N     0.95308   0.45893   0.75288   0.00000  Uiso   1.00
N1811  N     0.71424   0.53815   0.91451   0.00000  Uiso   1.00
N1812  N     0.87162   0.38179   0.91260   0.00000  Uiso   1.00
N1813  N     0.79464   0.61702   0.75504   0.00000  Uiso   1.00
N1814  N     0.79471   0.37859   0.75359   0.00000  Uiso   1.00
O1815  O     0.77226   0.53821   0.83333   0.00000  Uiso   1.00
O1816  O     0.89441   0.46179   0.83334   0.00000  Uiso   1.00
O1817  O     0.89441   0.53821   0.83334   0.00000  Uiso   1.00
O1818  O     0.77226   0.46179   0.83333   0.00000  Uiso   1.00
O1819  O     0.83334   0.53821   0.76178   0.00000  Uiso   1.00
O1820  O     0.83333   0.46179   0.90489   0.00000  Uiso   1.00
O1821  O     0.83333   0.53821   0.90489   0.00000  Uiso   1.00
O1822  O     0.83334   0.46179   0.76178   0.00000  Uiso   1.00
Zn1823 Zn    0.83333   0.55104   0.83333   0.00000  Uiso   1.00
Zn1824 Zn    0.83333   0.44896   0.83333   0.00000  Uiso   1.00
C1825  C     0.08697   0.83344   0.83260   0.00000  Uiso   1.00
C1826  C     0.02314   0.85332   0.87344   0.00000  Uiso   1.00
C1827  C     0.29076   0.83189   0.83431   0.00000  Uiso   1.00
C1828  C     0.04281   0.83385   0.83226   0.00000  Uiso   1.00
C1829  C     0.18420   0.69120   0.87270   0.00000  Uiso   1.00
C1830  C     0.14906   0.97515   0.79399   0.00000  Uiso   1.00
C1831  C     0.14905   0.68979   0.79380   0.00000  Uiso   1.00
C1832  C     0.18105   0.97683   0.87439   0.00000  Uiso   1.00
C1833  C     0.05500   0.82308   0.71416   0.00000  Uiso   1.00
C1834  C     0.27958   0.83178   0.95176   0.00000  Uiso   1.00
C1835  C     0.27689   0.74513   0.75629   0.00000  Uiso   1.00
C1836  C     0.24645   0.83309   0.83375   0.00000  Uiso   1.00
C1837  C     0.05539   0.91909   0.91363   0.00000  Uiso   1.00
C1838  C     0.25024   0.71668   0.90954   0.00000  Uiso   1.00
C1839  C     0.08263   0.95167   0.75565   0.00000  Uiso   1.00
C1840  C     0.14587   0.70827   0.70432   0.00000  Uiso   1.00
C1841  C     0.22793   0.94363   0.93770   0.00000  Uiso   1.00
C1842  C     0.16695   0.83311   0.73971   0.00000  Uiso   1.00
C1843  C     0.16649   0.83360   0.92696   0.00000  Uiso   1.00
C1844  C     0.16691   0.83313   0.68850   0.00000  Uiso   1.00
C1845  C     0.16668   0.83379   0.97817   0.00000  Uiso   1.00
C1846  C     0.02071   0.81257   0.79246   0.00000  Uiso   1.00
C1847  C     0.31311   0.85101   0.87532   0.00000  Uiso   1.00
C1848  C     0.31056   0.81138   0.79364   0.00000  Uiso   1.00
H1849  H     0.02875   0.76383   0.73686   0.00000  Uiso   1.00
H1850  H     0.29356   0.72579   0.72702   0.00000  Uiso   1.00
H1851  H     0.24267   0.74020   0.74999   0.00000  Uiso   1.00
H1852  H     0.28621   0.73163   0.79352   0.00000  Uiso   1.00
H1853  H     0.04014   0.85996   0.94920   0.00000  Uiso   1.00
H1854  H     0.03782   0.93647   0.94360   0.00000  Uiso   1.00
H1855  H     0.04591   0.93367   0.87700   0.00000  Uiso   1.00
H1856  H     0.08938   0.92517   0.92057   0.00000  Uiso   1.00
H1857  H     0.19557   0.70638   0.94765   0.00000  Uiso   1.00
H1858  H     0.25966   0.73627   0.87727   0.00000  Uiso   1.00
H1859  H     0.26399   0.68302   0.90468   0.00000  Uiso   1.00
H1860  H     0.07111   0.80454   0.68384   0.00000  Uiso   1.00
H1861  H     0.26401   0.73213   0.94434   0.00000  Uiso   1.00
H1862  H     0.13980   0.95436   0.71994   0.00000  Uiso   1.00
H1863  H     0.07059   0.98548   0.74669   0.00000  Uiso   1.00
H1864  H     0.07149   0.94207   0.79290   0.00000  Uiso   1.00
H1865  H     0.06956   0.92787   0.72701   0.00000  Uiso   1.00
H1866  H     0.11189   0.74072   0.76178   0.00000  Uiso   1.00
H1867  H     0.15137   0.74180   0.68915   0.00000  Uiso   1.00
H1868  H     0.12341   0.69077   0.67831   0.00000  Uiso   1.00
H1869  H     0.17622   0.68984   0.70528   0.00000  Uiso   1.00
H1870  H     0.16772   0.96822   0.94928   0.00000  Uiso   1.00
H1871  H     0.02710   0.84049   0.69801   0.00000  Uiso   1.00
H1872  H     0.24056   0.96933   0.96450   0.00000  Uiso   1.00
H1873  H     0.24881   0.93964   0.90536   0.00000  Uiso   1.00
H1874  H     0.22688   0.91186   0.95812   0.00000  Uiso   1.00
H1875  H     0.07709   0.84816   0.73058   0.00000  Uiso   1.00
H1876  H     0.30635   0.89288   0.93763   0.00000  Uiso   1.00
H1877  H     0.26566   0.84687   0.98574   0.00000  Uiso   1.00
H1878  H     0.30716   0.81117   0.96319   0.00000  Uiso   1.00
H1879  H     0.25553   0.81029   0.93301   0.00000  Uiso   1.00
H1880  H     0.29571   0.80124   0.71792   0.00000  Uiso   1.00
N1881  N     0.16667   0.95240   0.83333   0.00000  Uiso   1.00
N1882  N     0.18595   0.95533   0.92118   0.00000  Uiso   1.00
N1883  N     0.16667   0.71427   0.83333   0.00000  Uiso   1.00
N1884  N     0.04245   0.79231   0.75194   0.00000  Uiso   1.00
N1885  N     0.29201   0.86663   0.91860   0.00000  Uiso   1.00
N1886  N     0.28641   0.79226   0.75288   0.00000  Uiso   1.00
N1887  N     0.04757   0.87148   0.91451   0.00000  Uiso   1.00
N1888  N     0.20496   0.71513   0.91260   0.00000  Uiso   1.00
N1889  N     0.12797   0.95035   0.75504   0.00000  Uiso   1.00
N1890  N     0.12804   0.71192   0.75359   0.00000  Uiso   1.00
O1891  O     0.10559   0.87154   0.83333   0.00000  Uiso   1.00
O1892  O     0.22774   0.79513   0.83334   0.00000  Uiso   1.00
O1893  O     0.22774   0.87154   0.83334   0.00000  Uiso   1.00
O1894  O     0.10559   0.79513   0.83333   0.00000  Uiso   1.00
O1895  O     0.16667   0.87155   0.76178   0.00000  Uiso   1.00
O1896  O     0.16666   0.79512   0.90489   0.00000  Uiso   1.00
O1897  O     0.16666   0.87155   0.90489   0.00000  Uiso   1.00
O1898  O     0.16667   0.79512   0.76178   0.00000  Uiso   1.00
Zn1899 Zn    0.16667   0.88437   0.83333   0.00000  Uiso   1.00
Zn1900 Zn    0.16667   0.78229   0.83333   0.00000  Uiso   1.00
C1901  C     0.42030   0.83344   0.83260   0.00000  Uiso   1.00
C1902  C     0.35647   0.85332   0.87344   0.00000  Uiso   1.00
C1903  C     0.62410   0.83189   0.83431   0.00000  Uiso   1.00
C1904  C     0.37614   0.83385   0.83226   0.00000  Uiso   1.00
C1905  C     0.51753   0.69120   0.87270   0.00000  Uiso   1.00
C1906  C     0.48239   0.97515   0.79399   0.00000  Uiso   1.00
C1907  C     0.48238   0.68979   0.79380   0.00000  Uiso   1.00
C1908  C     0.51438   0.97683   0.87439   0.00000  Uiso   1.00
C1909  C     0.38834   0.82308   0.71416   0.00000  Uiso   1.00
C1910  C     0.61292   0.83178   0.95176   0.00000  Uiso   1.00
C1911  C     0.61022   0.74513   0.75629   0.00000  Uiso   1.00
C1912  C     0.57978   0.83309   0.83375   0.00000  Uiso   1.00
C1913  C     0.38873   0.91909   0.91363   0.00000  Uiso   1.00
C1914  C     0.58357   0.71668   0.90954   0.00000  Uiso   1.00
C1915  C     0.41596   0.95167   0.75565   0.00000  Uiso   1.00
C1916  C     0.47921   0.70827   0.70432   0.00000  Uiso   1.00
C1917  C     0.56127   0.94363   0.93770   0.00000  Uiso   1.00
C1918  C     0.50029   0.83311   0.73971   0.00000  Uiso   1.00
C1919  C     0.49983   0.83360   0.92696   0.00000  Uiso   1.00
C1920  C     0.50025   0.83313   0.68850   0.00000  Uiso   1.00
C1921  C     0.50002   0.83379   0.97817   0.00000  Uiso   1.00
C1922  C     0.35405   0.81257   0.79246   0.00000  Uiso   1.00
C1923  C     0.64644   0.85101   0.87532   0.00000  Uiso   1.00
C1924  C     0.64390   0.81138   0.79364   0.00000  Uiso   1.00
H1925  H     0.36209   0.76383   0.73686   0.00000  Uiso   1.00
H1926  H     0.62690   0.72579   0.72702   0.00000  Uiso   1.00
H1927  H     0.57601   0.74020   0.74999   0.00000  Uiso   1.00
H1928  H     0.61955   0.73163   0.79352   0.00000  Uiso   1.00
H1929  H     0.37348   0.85996   0.94920   0.00000  Uiso   1.00
H1930  H     0.37116   0.93647   0.94360   0.00000  Uiso   1.00
H1931  H     0.37924   0.93367   0.87700   0.00000  Uiso   1.00
H1932  H     0.42271   0.92517   0.92057   0.00000  Uiso   1.00
H1933  H     0.52890   0.70638   0.94765   0.00000  Uiso   1.00
H1934  H     0.59299   0.73627   0.87727   0.00000  Uiso   1.00
H1935  H     0.59732   0.68302   0.90468   0.00000  Uiso   1.00
H1936  H     0.40444   0.80454   0.68384   0.00000  Uiso   1.00
H1937  H     0.59734   0.73213   0.94434   0.00000  Uiso   1.00
H1938  H     0.47313   0.95436   0.71994   0.00000  Uiso   1.00
H1939  H     0.40393   0.98548   0.74669   0.00000  Uiso   1.00
H1940  H     0.40483   0.94207   0.79290   0.00000  Uiso   1.00
H1941  H     0.40290   0.92787   0.72701   0.00000  Uiso   1.00
H1942  H     0.44523   0.74072   0.76178   0.00000  Uiso   1.00
H1943  H     0.48470   0.74180   0.68915   0.00000  Uiso   1.00
H1944  H     0.45675   0.69077   0.67831   0.00000  Uiso   1.00
H1945  H     0.50955   0.68984   0.70528   0.00000  Uiso   1.00
H1946  H     0.50105   0.96822   0.94928   0.00000  Uiso   1.00
H1947  H     0.36043   0.84049   0.69801   0.00000  Uiso   1.00
H1948  H     0.57390   0.96933   0.96450   0.00000  Uiso   1.00
H1949  H     0.58215   0.93964   0.90536   0.00000  Uiso   1.00
H1950  H     0.56021   0.91186   0.95812   0.00000  Uiso   1.00
H1951  H     0.41042   0.84816   0.73058   0.00000  Uiso   1.00
H1952  H     0.63968   0.89288   0.93763   0.00000  Uiso   1.00
H1953  H     0.59899   0.84687   0.98574   0.00000  Uiso   1.00
H1954  H     0.64050   0.81117   0.96319   0.00000  Uiso   1.00
H1955  H     0.58887   0.81029   0.93301   0.00000  Uiso   1.00
H1956  H     0.62905   0.80124   0.71792   0.00000  Uiso   1.00
N1957  N     0.50000   0.95240   0.83333   0.00000  Uiso   1.00
N1958  N     0.51928   0.95533   0.92118   0.00000  Uiso   1.00
N1959  N     0.50000   0.71427   0.83333   0.00000  Uiso   1.00
N1960  N     0.37579   0.79231   0.75194   0.00000  Uiso   1.00
N1961  N     0.62534   0.86663   0.91860   0.00000  Uiso   1.00
N1962  N     0.61974   0.79226   0.75288   0.00000  Uiso   1.00
N1963  N     0.38090   0.87148   0.91451   0.00000  Uiso   1.00
N1964  N     0.53829   0.71513   0.91260   0.00000  Uiso   1.00
N1965  N     0.46130   0.95035   0.75504   0.00000  Uiso   1.00
N1966  N     0.46138   0.71192   0.75359   0.00000  Uiso   1.00
O1967  O     0.43892   0.87154   0.83333   0.00000  Uiso   1.00
O1968  O     0.56108   0.79513   0.83334   0.00000  Uiso   1.00
O1969  O     0.56108   0.87154   0.83334   0.00000  Uiso   1.00
O1970  O     0.43892   0.79513   0.83333   0.00000  Uiso   1.00
O1971  O     0.50000   0.87155   0.76178   0.00000  Uiso   1.00
O1972  O     0.50000   0.79512   0.90489   0.00000  Uiso   1.00
O1973  O     0.50000   0.87155   0.90489   0.00000  Uiso   1.00
O1974  O     0.50000   0.79512   0.76178   0.00000  Uiso   1.00
Zn1975 Zn    0.50000   0.88437   0.83333   0.00000  Uiso   1.00
Zn1976 Zn    0.50000   0.78229   0.83333   0.00000  Uiso   1.00
C1977  C     0.75364   0.83344   0.83260   0.00000  Uiso   1.00
C1978  C     0.68980   0.85332   0.87344   0.00000  Uiso   1.00
C1979  C     0.95743   0.83189   0.83431   0.00000  Uiso   1.00
C1980  C     0.70947   0.83385   0.83226   0.00000  Uiso   1.00
C1981  C     0.85086   0.69120   0.87270   0.00000  Uiso   1.00
C1982  C     0.81573   0.97515   0.79399   0.00000  Uiso   1.00
C1983  C     0.81571   0.68979   0.79380   0.00000  Uiso   1.00
C1984  C     0.84771   0.97683   0.87439   0.00000  Uiso   1.00
C1985  C     0.72167   0.82308   0.71416   0.00000  Uiso   1.00
C1986  C     0.94625   0.83178   0.95176   0.00000  Uiso   1.00
C1987  C     0.94356   0.74513   0.75629   0.00000  Uiso   1.00
C1988  C     0.91311   0.83309   0.83375   0.00000  Uiso   1.00
C1989  C     0.72206   0.91909   0.91363   0.00000  Uiso   1.00
C1990  C     0.91690   0.71668   0.90954   0.00000  Uiso   1.00
C1991  C     0.74930   0.95167   0.75565   0.00000  Uiso   1.00
C1992  C     0.81254   0.70827   0.70432   0.00000  Uiso   1.00
C1993  C     0.89460   0.94363   0.93770   0.00000  Uiso   1.00
C1994  C     0.83362   0.83311   0.73971   0.00000  Uiso   1.00
C1995  C     0.83316   0.83360   0.92696   0.00000  Uiso   1.00
C1996  C     0.83358   0.83313   0.68850   0.00000  Uiso   1.00
C1997  C     0.83335   0.83379   0.97817   0.00000  Uiso   1.00
C1998  C     0.68738   0.81257   0.79246   0.00000  Uiso   1.00
C1999  C     0.97977   0.85101   0.87532   0.00000  Uiso   1.00
C2000  C     0.97723   0.81138   0.79364   0.00000  Uiso   1.00
H2001  H     0.69542   0.76383   0.73686   0.00000  Uiso   1.00
H2002  H     0.96023   0.72579   0.72702   0.00000  Uiso   1.00
H2003  H     0.90934   0.74020   0.74999   0.00000  Uiso   1.00
H2004  H     0.95288   0.73163   0.79352   0.00000  Uiso   1.00
H2005  H     0.70681   0.85996   0.94920   0.00000  Uiso   1.00
H2006  H     0.70449   0.93647   0.94360   0.00000  Uiso   1.00
H2007  H     0.71258   0.93367   0.87700   0.00000  Uiso   1.00
H2008  H     0.75604   0.92517   0.92057   0.00000  Uiso   1.00
H2009  H     0.86223   0.70638   0.94765   0.00000  Uiso   1.00
H2010  H     0.92632   0.73627   0.87727   0.00000  Uiso   1.00
H2011  H     0.93066   0.68302   0.90468   0.00000  Uiso   1.00
H2012  H     0.73777   0.80454   0.68384   0.00000  Uiso   1.00
H2013  H     0.93068   0.73213   0.94434   0.00000  Uiso   1.00
H2014  H     0.80647   0.95436   0.71994   0.00000  Uiso   1.00
H2015  H     0.73726   0.98548   0.74669   0.00000  Uiso   1.00
H2016  H     0.73816   0.94207   0.79290   0.00000  Uiso   1.00
H2017  H     0.73623   0.92787   0.72701   0.00000  Uiso   1.00
H2018  H     0.77856   0.74072   0.76178   0.00000  Uiso   1.00
H2019  H     0.81804   0.74180   0.68915   0.00000  Uiso   1.00
H2020  H     0.79008   0.69077   0.67831   0.00000  Uiso   1.00
H2021  H     0.84289   0.68984   0.70528   0.00000  Uiso   1.00
H2022  H     0.83438   0.96822   0.94928   0.00000  Uiso   1.00
H2023  H     0.69376   0.84049   0.69801   0.00000  Uiso   1.00
H2024  H     0.90723   0.96933   0.96450   0.00000  Uiso   1.00
H2025  H     0.91548   0.93964   0.90536   0.00000  Uiso   1.00
H2026  H     0.89354   0.91186   0.95812   0.00000  Uiso   1.00
H2027  H     0.74376   0.84816   0.73058   0.00000  Uiso   1.00
H2028  H     0.97301   0.89288   0.93763   0.00000  Uiso   1.00
H2029  H     0.93233   0.84687   0.98574   0.00000  Uiso   1.00
H2030  H     0.97383   0.81117   0.96319   0.00000  Uiso   1.00
H2031  H     0.92220   0.81029   0.93301   0.00000  Uiso   1.00
H2032  H     0.96238   0.80124   0.71792   0.00000  Uiso   1.00
N2033  N     0.83333   0.95240   0.83333   0.00000  Uiso   1.00
N2034  N     0.85261   0.95533   0.92118   0.00000  Uiso   1.00
N2035  N     0.83333   0.71427   0.83333   0.00000  Uiso   1.00
N2036  N     0.70912   0.79231   0.75194   0.00000  Uiso   1.00
N2037  N     0.95867   0.86663   0.91860   0.00000  Uiso   1.00
N2038  N     0.95308   0.79226   0.75288   0.00000  Uiso   1.00
N2039  N     0.71424   0.87148   0.91451   0.00000  Uiso   1.00
N2040  N     0.87162   0.71513   0.91260   0.00000  Uiso   1.00
N2041  N     0.79464   0.95035   0.75504   0.00000  Uiso   1.00
N2042  N     0.79471   0.71192   0.75359   0.00000  Uiso   1.00
O2043  O     0.77226   0.87154   0.83333   0.00000  Uiso   1.00
O2044  O     0.89441   0.79513   0.83334   0.00000  Uiso   1.00
O2045  O     0.89441   0.87154   0.83334   0.00000  Uiso   1.00
O2046  O     0.77226   0.79513   0.83333   0.00000  Uiso   1.00
O2047  O     0.83334   0.87155   0.76178   0.00000  Uiso   1.00
O2048  O     0.83333   0.79512   0.90489   0.00000  Uiso   1.00
O2049  O     0.83333   0.87155   0.90489   0.00000  Uiso   1.00
O2050  O     0.83334   0.79512   0.76178   0.00000  Uiso   1.00
Zn2051 Zn    0.83333   0.88437   0.83333   0.00000  Uiso   1.00
Zn2052 Zn    0.83333   0.78229   0.83333   0.00000  Uiso   1.00
loop_
_geom_bond_atom_site_label_1
_geom_bond_atom_site_label_2
_geom_bond_distance
_geom_bond_site_symmetry_2
_ccdc_geom_bond_type
C1     O67     1.288   .     A
C1     O70     1.290   .     A
C1     C4      1.409   .     S
C2     C4      1.399   .     A
C2     N63     1.427   .     S
C2     C175    1.388   1_455 S
C3     C23     1.403   .     A
C3     C24     1.403   .     A
C3     C12     1.414   .     S
C4     C22     1.402   .     A
C5     N59     1.372   .     A
C5     N64     1.422   .     S
C5     C464    1.435   1_545 S
C6     N57     1.368   .     A
C6     N65     1.421   .     S
C6     C235    1.437   .     S
C7     N59     1.381   .     A
C7     N66     1.422   .     S
C7     C462    1.437   1_545 S
C8     N57     1.375   .     A
C8     N58     1.420   .     S
C8     C233    1.435   .     S
C9     H36     1.111   .     S
C9     H51     1.108   .     S
C9     H47     1.110   .     S
C9     N60     1.445   .     S
C10    H55     1.106   .     S
C10    H54     1.111   .     S
C10    N61     1.445   .     S
C10    H53     1.110   .     S
C11    H27     1.110   .     S
C11    N62     1.450   .     S
C11    H28     1.112   .     S
C11    H26     1.111   .     S
C12    O69     1.295   .     A
C12    O68     1.286   .     A
C13    H32     1.110   .     S
C13    N63     1.450   .     S
C13    H31     1.111   .     S
C13    H30     1.111   .     S
C14    H34     1.101   .     S
C14    N64     1.450   .     S
C14    H37     1.110   .     S
C14    H35     1.105   .     S
C15    H39     1.109   .     S
C15    H40     1.109   .     S
C15    H41     1.109   .     S
C15    N65     1.448   .     S
C16    H44     1.110   .     S
C16    H43     1.106   .     S
C16    H45     1.112   .     S
C16    N66     1.450   .     S
C17    H50     1.106   .     S
C17    N58     1.442   .     S
C17    H48     1.110   .     S
C17    H49     1.110   .     S
C18    O74     1.291   .     A
C18    C20     1.367   .     S
C18    O71     1.284   .     A
C19    O72     1.285   .     A
C19    C21     1.367   .     S
C19    O73     1.290   .     A
C20    C1389   1.166   1_554 S
C21    C704    1.166   .     S
C22    N60     1.427   .     S
C22    C176    1.389   1_455 S
C23    N61     1.425   .     S
C23    C78     1.388   .     S
C24    N62     1.427   .     S
C24    C98     1.389   .     S
H25    N60     1.030   .     S
H29    N63     1.029   .     S
H33    N64     1.029   .     S
H38    N65     1.029   .     S
H42    N66     1.026   .     S
H46    N58     1.031   .     S
H52    N61     1.030   .     S
H56    N62     1.028   .     S
N57    Zn75    2.038   .     S
N59    Zn76    2.038   .     S
O67    Zn75    1.988   .     S
O68    Zn76    1.988   .     S
O69    Zn75    1.985   .     S
O70    Zn76    1.985   .     S
O71    Zn75    1.941   .     S
O72    Zn76    1.941   .     S
O73    Zn75    1.955   .     S
O74    Zn76    1.955   .     S
C77    O143    1.288   .     A
C77    O146    1.290   .     A
C77    C80     1.409   .     S
C78    C80     1.399   .     A
C78    N139    1.427   .     S
C79    C99     1.403   .     A
C79    C100    1.403   .     A
C79    C88     1.414   .     S
C80    C98     1.402   .     A
C81    N135    1.372   .     A
C81    N140    1.422   .     S
C81    C540    1.435   1_545 S
C82    N133    1.368   .     A
C82    N141    1.421   .     S
C82    C311    1.437   .     S
C83    N135    1.381   .     A
C83    N142    1.422   .     S
C83    C538    1.437   1_545 S
C84    N133    1.375   .     A
C84    N134    1.420   .     S
C84    C309    1.435   .     S
C85    H112    1.111   .     S
C85    H127    1.108   .     S
C85    H123    1.110   .     S
C85    N136    1.445   .     S
C86    H131    1.106   .     S
C86    H130    1.111   .     S
C86    N137    1.445   .     S
C86    H129    1.110   .     S
C87    H103    1.110   .     S
C87    N138    1.450   .     S
C87    H104    1.112   .     S
C87    H102    1.111   .     S
C88    O145    1.295   .     A
C88    O144    1.286   .     A
C89    H108    1.110   .     S
C89    N139    1.450   .     S
C89    H107    1.111   .     S
C89    H106    1.111   .     S
C90    H110    1.101   .     S
C90    N140    1.450   .     S
C90    H113    1.110   .     S
C90    H111    1.105   .     S
C91    H115    1.109   .     S
C91    H116    1.109   .     S
C91    H117    1.109   .     S
C91    N141    1.448   .     S
C92    H120    1.110   .     S
C92    H119    1.106   .     S
C92    H121    1.112   .     S
C92    N142    1.450   .     S
C93    H126    1.106   .     S
C93    N134    1.442   .     S
C93    H124    1.110   .     S
C93    H125    1.110   .     S
C94    O150    1.291   .     A
C94    C96     1.367   .     S
C94    O147    1.284   .     A
C95    O148    1.285   .     A
C95    C97     1.367   .     S
C95    O149    1.290   .     A
C96    C1465   1.166   1_554 S
C97    C780    1.166   .     S
C98    N136    1.427   .     S
C99    N137    1.425   .     S
C99    C154    1.388   .     S
C100   N138    1.427   .     S
C100   C174    1.389   .     S
H101   N136    1.030   .     S
H105   N139    1.029   .     S
H109   N140    1.029   .     S
H114   N141    1.029   .     S
H118   N142    1.026   .     S
H122   N134    1.031   .     S
H128   N137    1.030   .     S
H132   N138    1.028   .     S
N133   Zn151   2.038   .     S
N135   Zn152   2.038   .     S
O143   Zn151   1.988   .     S
O144   Zn152   1.988   .     S
O145   Zn151   1.985   .     S
O146   Zn152   1.985   .     S
O147   Zn151   1.941   .     S
O148   Zn152   1.941   .     S
O149   Zn151   1.955   .     S
O150   Zn152   1.955   .     S
C153   O219    1.288   .     A
C153   O222    1.290   .     A
C153   C156    1.409   .     S
C154   C156    1.399   .     A
C154   N215    1.427   .     S
C155   C175    1.403   .     A
C155   C176    1.403   .     A
C155   C164    1.414   .     S
C156   C174    1.402   .     A
C157   N211    1.372   .     A
C157   N216    1.422   .     S
C157   C616    1.435   1_545 S
C158   N209    1.368   .     A
C158   N217    1.421   .     S
C158   C387    1.437   .     S
C159   N211    1.381   .     A
C159   N218    1.422   .     S
C159   C614    1.437   1_545 S
C160   N209    1.375   .     A
C160   N210    1.420   .     S
C160   C385    1.435   .     S
C161   H188    1.111   .     S
C161   H203    1.108   .     S
C161   H199    1.110   .     S
C161   N212    1.445   .     S
C162   H207    1.106   .     S
C162   H206    1.111   .     S
C162   N213    1.445   .     S
C162   H205    1.110   .     S
C163   H179    1.110   .     S
C163   N214    1.450   .     S
C163   H180    1.112   .     S
C163   H178    1.111   .     S
C164   O221    1.295   .     A
C164   O220    1.286   .     A
C165   H184    1.110   .     S
C165   N215    1.450   .     S
C165   H183    1.111   .     S
C165   H182    1.111   .     S
C166   H186    1.101   .     S
C166   N216    1.450   .     S
C166   H189    1.110   .     S
C166   H187    1.105   .     S
C167   H191    1.109   .     S
C167   H192    1.109   .     S
C167   H193    1.109   .     S
C167   N217    1.448   .     S
C168   H196    1.110   .     S
C168   H195    1.106   .     S
C168   H197    1.112   .     S
C168   N218    1.450   .     S
C169   H202    1.106   .     S
C169   N210    1.442   .     S
C169   H200    1.110   .     S
C169   H201    1.110   .     S
C170   O226    1.291   .     A
C170   C172    1.367   .     S
C170   O223    1.284   .     A
C171   O224    1.285   .     A
C171   C173    1.367   .     S
C171   O225    1.290   .     A
C172   C1541   1.166   1_554 S
C173   C856    1.166   .     S
C174   N212    1.427   .     S
C175   N213    1.425   .     S
C175   C2      1.388   1_655 S
C176   N214    1.427   .     S
C176   C22     1.389   1_655 S
H177   N212    1.030   .     S
H181   N215    1.029   .     S
H185   N216    1.029   .     S
H190   N217    1.029   .     S
H194   N218    1.026   .     S
H198   N210    1.031   .     S
H204   N213    1.030   .     S
H208   N214    1.028   .     S
N209   Zn227   2.038   .     S
N211   Zn228   2.038   .     S
O219   Zn227   1.988   .     S
O220   Zn228   1.988   .     S
O221   Zn227   1.985   .     S
O222   Zn228   1.985   .     S
O223   Zn227   1.941   .     S
O224   Zn228   1.941   .     S
O225   Zn227   1.955   .     S
O226   Zn228   1.955   .     S
C229   O295    1.288   .     A
C229   O298    1.290   .     A
C229   C232    1.409   .     S
C230   C232    1.399   .     A
C230   N291    1.427   .     S
C230   C403    1.388   1_455 S
C231   C251    1.403   .     A
C231   C252    1.403   .     A
C231   C240    1.414   .     S
C232   C250    1.402   .     A
C233   N287    1.372   .     A
C233   N292    1.422   .     S
C234   N285    1.368   .     A
C234   N293    1.421   .     S
C234   C463    1.437   .     S
C235   N287    1.381   .     A
C235   N294    1.422   .     S
C236   N285    1.375   .     A
C236   N286    1.420   .     S
C236   C461    1.435   .     S
C237   H264    1.111   .     S
C237   H279    1.108   .     S
C237   H275    1.110   .     S
C237   N288    1.445   .     S
C238   H283    1.106   .     S
C238   H282    1.111   .     S
C238   N289    1.445   .     S
C238   H281    1.110   .     S
C239   H255    1.110   .     S
C239   N290    1.450   .     S
C239   H256    1.112   .     S
C239   H254    1.111   .     S
C240   O297    1.295   .     A
C240   O296    1.286   .     A
C241   H260    1.110   .     S
C241   N291    1.450   .     S
C241   H259    1.111   .     S
C241   H258    1.111   .     S
C242   H262    1.101   .     S
C242   N292    1.450   .     S
C242   H265    1.110   .     S
C242   H263    1.105   .     S
C243   H267    1.109   .     S
C243   H268    1.109   .     S
C243   H269    1.109   .     S
C243   N293    1.448   .     S
C244   H272    1.110   .     S
C244   H271    1.106   .     S
C244   H273    1.112   .     S
C244   N294    1.450   .     S
C245   H278    1.106   .     S
C245   N286    1.442   .     S
C245   H276    1.110   .     S
C245   H277    1.110   .     S
C246   O302    1.291   .     A
C246   C248    1.367   .     S
C246   O299    1.284   .     A
C247   O300    1.285   .     A
C247   C249    1.367   .     S
C247   O301    1.290   .     A
C248   C1617   1.166   1_554 S
C249   C932    1.166   .     S
C250   N288    1.427   .     S
C250   C404    1.389   1_455 S
C251   N289    1.425   .     S
C251   C306    1.388   .     S
C252   N290    1.427   .     S
C252   C326    1.389   .     S
H253   N288    1.030   .     S
H257   N291    1.029   .     S
H261   N292    1.029   .     S
H266   N293    1.029   .     S
H270   N294    1.026   .     S
H274   N286    1.031   .     S
H280   N289    1.030   .     S
H284   N290    1.028   .     S
N285   Zn303   2.038   .     S
N287   Zn304   2.038   .     S
O295   Zn303   1.988   .     S
O296   Zn304   1.988   .     S
O297   Zn303   1.985   .     S
O298   Zn304   1.985   .     S
O299   Zn303   1.941   .     S
O300   Zn304   1.941   .     S
O301   Zn303   1.955   .     S
O302   Zn304   1.955   .     S
C305   O371    1.288   .     A
C305   O374    1.290   .     A
C305   C308    1.409   .     S
C306   C308    1.399   .     A
C306   N367    1.427   .     S
C307   C327    1.403   .     A
C307   C328    1.403   .     A
C307   C316    1.414   .     S
C308   C326    1.402   .     A
C309   N363    1.372   .     A
C309   N368    1.422   .     S
C310   N361    1.368   .     A
C310   N369    1.421   .     S
C310   C539    1.437   .     S
C311   N363    1.381   .     A
C311   N370    1.422   .     S
C312   N361    1.375   .     A
C312   N362    1.420   .     S
C312   C537    1.435   .     S
C313   H340    1.111   .     S
C313   H355    1.108   .     S
C313   H351    1.110   .     S
C313   N364    1.445   .     S
C314   H359    1.106   .     S
C314   H358    1.111   .     S
C314   N365    1.445   .     S
C314   H357    1.110   .     S
C315   H331    1.110   .     S
C315   N366    1.450   .     S
C315   H332    1.112   .     S
C315   H330    1.111   .     S
C316   O373    1.295   .     A
C316   O372    1.286   .     A
C317   H336    1.110   .     S
C317   N367    1.450   .     S
C317   H335    1.111   .     S
C317   H334    1.111   .     S
C318   H338    1.101   .     S
C318   N368    1.450   .     S
C318   H341    1.110   .     S
C318   H339    1.105   .     S
C319   H343    1.109   .     S
C319   H344    1.109   .     S
C319   H345    1.109   .     S
C319   N369    1.448   .     S
C320   H348    1.110   .     S
C320   H347    1.106   .     S
C320   H349    1.112   .     S
C320   N370    1.450   .     S
C321   H354    1.106   .     S
C321   N362    1.442   .     S
C321   H352    1.110   .     S
C321   H353    1.110   .     S
C322   O378    1.291   .     A
C322   C324    1.367   .     S
C322   O375    1.284   .     A
C323   O376    1.285   .     A
C323   C325    1.367   .     S
C323   O377    1.290   .     A
C324   C1693   1.166   1_554 S
C325   C1008   1.166   .     S
C326   N364    1.427   .     S
C327   N365    1.425   .     S
C327   C382    1.388   .     S
C328   N366    1.427   .     S
C328   C402    1.389   .     S
H329   N364    1.030   .     S
H333   N367    1.029   .     S
H337   N368    1.029   .     S
H342   N369    1.029   .     S
H346   N370    1.026   .     S
H350   N362    1.031   .     S
H356   N365    1.030   .     S
H360   N366    1.028   .     S
N361   Zn379   2.038   .     S
N363   Zn380   2.038   .     S
O371   Zn379   1.988   .     S
O372   Zn380   1.988   .     S
O373   Zn379   1.985   .     S
O374   Zn380   1.985   .     S
O375   Zn379   1.941   .     S
O376   Zn380   1.941   .     S
O377   Zn379   1.955   .     S
O378   Zn380   1.955   .     S
C381   O447    1.288   .     A
C381   O450    1.290   .     A
C381   C384    1.409   .     S
C382   C384    1.399   .     A
C382   N443    1.427   .     S
C383   C403    1.403   .     A
C383   C404    1.403   .     A
C383   C392    1.414   .     S
C384   C402    1.402   .     A
C385   N439    1.372   .     A
C385   N444    1.422   .     S
C386   N437    1.368   .     A
C386   N445    1.421   .     S
C386   C615    1.437   .     S
C387   N439    1.381   .     A
C387   N446    1.422   .     S
C388   N437    1.375   .     A
C388   N438    1.420   .     S
C388   C613    1.435   .     S
C389   H416    1.111   .     S
C389   H431    1.108   .     S
C389   H427    1.110   .     S
C389   N440    1.445   .     S
C390   H435    1.106   .     S
C390   H434    1.111   .     S
C390   N441    1.445   .     S
C390   H433    1.110   .     S
C391   H407    1.110   .     S
C391   N442    1.450   .     S
C391   H408    1.112   .     S
C391   H406    1.111   .     S
C392   O449    1.295   .     A
C392   O448    1.286   .     A
C393   H412    1.110   .     S
C393   N443    1.450   .     S
C393   H411    1.111   .     S
C393   H410    1.111   .     S
C394   H414    1.101   .     S
C394   N444    1.450   .     S
C394   H417    1.110   .     S
C394   H415    1.105   .     S
C395   H419    1.109   .     S
C395   H420    1.109   .     S
C395   H421    1.109   .     S
C395   N445    1.448   .     S
C396   H424    1.110   .     S
C396   H423    1.106   .     S
C396   H425    1.112   .     S
C396   N446    1.450   .     S
C397   H430    1.106   .     S
C397   N438    1.442   .     S
C397   H428    1.110   .     S
C397   H429    1.110   .     S
C398   O454    1.291   .     A
C398   C400    1.367   .     S
C398   O451    1.284   .     A
C399   O452    1.285   .     A
C399   C401    1.367   .     S
C399   O453    1.290   .     A
C400   C1769   1.166   1_554 S
C401   C1084   1.166   .     S
C402   N440    1.427   .     S
C403   N441    1.425   .     S
C403   C230    1.388   1_655 S
C404   N442    1.427   .     S
C404   C250    1.389   1_655 S
H405   N440    1.030   .     S
H409   N443    1.029   .     S
H413   N444    1.029   .     S
H418   N445    1.029   .     S
H422   N446    1.026   .     S
H426   N438    1.031   .     S
H432   N441    1.030   .     S
H436   N442    1.028   .     S
N437   Zn455   2.038   .     S
N439   Zn456   2.038   .     S
O447   Zn455   1.988   .     S
O448   Zn456   1.988   .     S
O449   Zn455   1.985   .     S
O450   Zn456   1.985   .     S
O451   Zn455   1.941   .     S
O452   Zn456   1.941   .     S
O453   Zn455   1.955   .     S
O454   Zn456   1.955   .     S
C457   O523    1.288   .     A
C457   O526    1.290   .     A
C457   C460    1.409   .     S
C458   C460    1.399   .     A
C458   N519    1.427   .     S
C458   C631    1.388   1_455 S
C459   C479    1.403   .     A
C459   C480    1.403   .     A
C459   C468    1.414   .     S
C460   C478    1.402   .     A
C461   N515    1.372   .     A
C461   N520    1.422   .     S
C462   N513    1.368   .     A
C462   N521    1.421   .     S
C462   C7      1.437   1_565 S
C463   N515    1.381   .     A
C463   N522    1.422   .     S
C464   N513    1.375   .     A
C464   N514    1.420   .     S
C464   C5      1.435   1_565 S
C465   H492    1.111   .     S
C465   H507    1.108   .     S
C465   H503    1.110   .     S
C465   N516    1.445   .     S
C466   H511    1.106   .     S
C466   H510    1.111   .     S
C466   N517    1.445   .     S
C466   H509    1.110   .     S
C467   H483    1.110   .     S
C467   N518    1.450   .     S
C467   H484    1.112   .     S
C467   H482    1.111   .     S
C468   O525    1.295   .     A
C468   O524    1.286   .     A
C469   H488    1.110   .     S
C469   N519    1.450   .     S
C469   H487    1.111   .     S
C469   H486    1.111   .     S
C470   H490    1.101   .     S
C470   N520    1.450   .     S
C470   H493    1.110   .     S
C470   H491    1.105   .     S
C471   H495    1.109   .     S
C471   H496    1.109   .     S
C471   H497    1.109   .     S
C471   N521    1.448   .     S
C472   H500    1.110   .     S
C472   H499    1.106   .     S
C472   H501    1.112   .     S
C472   N522    1.450   .     S
C473   H506    1.106   .     S
C473   N514    1.442   .     S
C473   H504    1.110   .     S
C473   H505    1.110   .     S
C474   O530    1.291   .     A
C474   C476    1.367   .     S
C474   O527    1.284   .     A
C475   O528    1.285   .     A
C475   C477    1.367   .     S
C475   O529    1.290   .     A
C476   C1845   1.166   1_554 S
C477   C1160   1.166   .     S
C478   N516    1.427   .     S
C478   C632    1.389   1_455 S
C479   N517    1.425   .     S
C479   C534    1.388   .     S
C480   N518    1.427   .     S
C480   C554    1.389   .     S
H481   N516    1.030   .     S
H485   N519    1.029   .     S
H489   N520    1.029   .     S
H494   N521    1.029   .     S
H498   N522    1.026   .     S
H502   N514    1.031   .     S
H508   N517    1.030   .     S
H512   N518    1.028   .     S
N513   Zn531   2.038   .     S
N515   Zn532   2.038   .     S
O523   Zn531   1.988   .     S
O524   Zn532   1.988   .     S
O525   Zn531   1.985   .     S
O526   Zn532   1.985   .     S
O527   Zn531   1.941   .     S
O528   Zn532   1.941   .     S
O529   Zn531   1.955   .     S
O530   Zn532   1.955   .     S
C533   O599    1.288   .     A
C533   O602    1.290   .     A
C533   C536    1.409   .     S
C534   C536    1.399   .     A
C534   N595    1.427   .     S
C535   C555    1.403   .     A
C535   C556    1.403   .     A
C535   C544    1.414   .     S
C536   C554    1.402   .     A
C537   N591    1.372   .     A
C537   N596    1.422   .     S
C538   N589    1.368   .     A
C538   N597    1.421   .     S
C538   C83     1.437   1_565 S
C539   N591    1.381   .     A
C539   N598    1.422   .     S
C540   N589    1.375   .     A
C540   N590    1.420   .     S
C540   C81     1.435   1_565 S
C541   H568    1.111   .     S
C541   H583    1.108   .     S
C541   H579    1.110   .     S
C541   N592    1.445   .     S
C542   H587    1.106   .     S
C542   H586    1.111   .     S
C542   N593    1.445   .     S
C542   H585    1.110   .     S
C543   H559    1.110   .     S
C543   N594    1.450   .     S
C543   H560    1.112   .     S
C543   H558    1.111   .     S
C544   O601    1.295   .     A
C544   O600    1.286   .     A
C545   H564    1.110   .     S
C545   N595    1.450   .     S
C545   H563    1.111   .     S
C545   H562    1.111   .     S
C546   H566    1.101   .     S
C546   N596    1.450   .     S
C546   H569    1.110   .     S
C546   H567    1.105   .     S
C547   H571    1.109   .     S
C547   H572    1.109   .     S
C547   H573    1.109   .     S
C547   N597    1.448   .     S
C548   H576    1.110   .     S
C548   H575    1.106   .     S
C548   H577    1.112   .     S
C548   N598    1.450   .     S
C549   H582    1.106   .     S
C549   N590    1.442   .     S
C549   H580    1.110   .     S
C549   H581    1.110   .     S
C550   O606    1.291   .     A
C550   C552    1.367   .     S
C550   O603    1.284   .     A
C551   O604    1.285   .     A
C551   C553    1.367   .     S
C551   O605    1.290   .     A
C552   C1921   1.166   1_554 S
C553   C1236   1.166   .     S
C554   N592    1.427   .     S
C555   N593    1.425   .     S
C555   C610    1.388   .     S
C556   N594    1.427   .     S
C556   C630    1.389   .     S
H557   N592    1.030   .     S
H561   N595    1.029   .     S
H565   N596    1.029   .     S
H570   N597    1.029   .     S
H574   N598    1.026   .     S
H578   N590    1.031   .     S
H584   N593    1.030   .     S
H588   N594    1.028   .     S
N589   Zn607   2.038   .     S
N591   Zn608   2.038   .     S
O599   Zn607   1.988   .     S
O600   Zn608   1.988   .     S
O601   Zn607   1.985   .     S
O602   Zn608   1.985   .     S
O603   Zn607   1.941   .     S
O604   Zn608   1.941   .     S
O605   Zn607   1.955   .     S
O606   Zn608   1.955   .     S
C609   O675    1.288   .     A
C609   O678    1.290   .     A
C609   C612    1.409   .     S
C610   C612    1.399   .     A
C610   N671    1.427   .     S
C611   C631    1.403   .     A
C611   C632    1.403   .     A
C611   C620    1.414   .     S
C612   C630    1.402   .     A
C613   N667    1.372   .     A
C613   N672    1.422   .     S
C614   N665    1.368   .     A
C614   N673    1.421   .     S
C614   C159    1.437   1_565 S
C615   N667    1.381   .     A
C615   N674    1.422   .     S
C616   N665    1.375   .     A
C616   N666    1.420   .     S
C616   C157    1.435   1_565 S
C617   H644    1.111   .     S
C617   H659    1.108   .     S
C617   H655    1.110   .     S
C617   N668    1.445   .     S
C618   H663    1.106   .     S
C618   H662    1.111   .     S
C618   N669    1.445   .     S
C618   H661    1.110   .     S
C619   H635    1.110   .     S
C619   N670    1.450   .     S
C619   H636    1.112   .     S
C619   H634    1.111   .     S
C620   O677    1.295   .     A
C620   O676    1.286   .     A
C621   H640    1.110   .     S
C621   N671    1.450   .     S
C621   H639    1.111   .     S
C621   H638    1.111   .     S
C622   H642    1.101   .     S
C622   N672    1.450   .     S
C622   H645    1.110   .     S
C622   H643    1.105   .     S
C623   H647    1.109   .     S
C623   H648    1.109   .     S
C623   H649    1.109   .     S
C623   N673    1.448   .     S
C624   H652    1.110   .     S
C624   H651    1.106   .     S
C624   H653    1.112   .     S
C624   N674    1.450   .     S
C625   H658    1.106   .     S
C625   N666    1.442   .     S
C625   H656    1.110   .     S
C625   H657    1.110   .     S
C626   O682    1.291   .     A
C626   C628    1.367   .     S
C626   O679    1.284   .     A
C627   O680    1.285   .     A
C627   C629    1.367   .     S
C627   O681    1.290   .     A
C628   C1997   1.166   1_554 S
C629   C1312   1.166   .     S
C630   N668    1.427   .     S
C631   N669    1.425   .     S
C631   C458    1.388   1_655 S
C632   N670    1.427   .     S
C632   C478    1.389   1_655 S
H633   N668    1.030   .     S
H637   N671    1.029   .     S
H641   N672    1.029   .     S
H646   N673    1.029   .     S
H650   N674    1.026   .     S
H654   N666    1.031   .     S
H660   N669    1.030   .     S
H664   N670    1.028   .     S
N665   Zn683   2.038   .     S
N667   Zn684   2.038   .     S
O675   Zn683   1.988   .     S
O676   Zn684   1.988   .     S
O677   Zn683   1.985   .     S
O678   Zn684   1.985   .     S
O679   Zn683   1.941   .     S
O680   Zn684   1.941   .     S
O681   Zn683   1.955   .     S
O682   Zn684   1.955   .     S
C685   O751    1.288   .     A
C685   O754    1.290   .     A
C685   C688    1.409   .     S
C686   C688    1.399   .     A
C686   N747    1.427   .     S
C686   C859    1.388   1_455 S
C687   C707    1.403   .     A
C687   C708    1.403   .     A
C687   C696    1.414   .     S
C688   C706    1.402   .     A
C689   N743    1.372   .     A
C689   N748    1.422   .     S
C689   C1148   1.435   1_545 S
C690   N741    1.368   .     A
C690   N749    1.421   .     S
C690   C919    1.437   .     S
C691   N743    1.381   .     A
C691   N750    1.422   .     S
C691   C1146   1.437   1_545 S
C692   N741    1.375   .     A
C692   N742    1.420   .     S
C692   C917    1.435   .     S
C693   H720    1.111   .     S
C693   H735    1.108   .     S
C693   H731    1.110   .     S
C693   N744    1.445   .     S
C694   H739    1.106   .     S
C694   H738    1.111   .     S
C694   N745    1.445   .     S
C694   H737    1.110   .     S
C695   H711    1.110   .     S
C695   N746    1.450   .     S
C695   H712    1.112   .     S
C695   H710    1.111   .     S
C696   O753    1.295   .     A
C696   O752    1.286   .     A
C697   H716    1.110   .     S
C697   N747    1.450   .     S
C697   H715    1.111   .     S
C697   H714    1.111   .     S
C698   H718    1.101   .     S
C698   N748    1.450   .     S
C698   H721    1.110   .     S
C698   H719    1.105   .     S
C699   H723    1.109   .     S
C699   H724    1.109   .     S
C699   H725    1.109   .     S
C699   N749    1.448   .     S
C700   H728    1.110   .     S
C700   H727    1.106   .     S
C700   H729    1.112   .     S
C700   N750    1.450   .     S
C701   H734    1.106   .     S
C701   N742    1.442   .     S
C701   H732    1.110   .     S
C701   H733    1.110   .     S
C702   O758    1.291   .     A
C702   C704    1.367   .     S
C702   O755    1.284   .     A
C703   O756    1.285   .     A
C703   C705    1.367   .     S
C703   O757    1.290   .     A
C705   C1388   1.166   .     S
C706   N744    1.427   .     S
C706   C860    1.389   1_455 S
C707   N745    1.425   .     S
C707   C762    1.388   .     S
C708   N746    1.427   .     S
C708   C782    1.389   .     S
H709   N744    1.030   .     S
H713   N747    1.029   .     S
H717   N748    1.029   .     S
H722   N749    1.029   .     S
H726   N750    1.026   .     S
H730   N742    1.031   .     S
H736   N745    1.030   .     S
H740   N746    1.028   .     S
N741   Zn759   2.038   .     S
N743   Zn760   2.038   .     S
O751   Zn759   1.988   .     S
O752   Zn760   1.988   .     S
O753   Zn759   1.985   .     S
O754   Zn760   1.985   .     S
O755   Zn759   1.941   .     S
O756   Zn760   1.941   .     S
O757   Zn759   1.955   .     S
O758   Zn760   1.955   .     S
C761   O827    1.288   .     A
C761   O830    1.290   .     A
C761   C764    1.409   .     S
C762   C764    1.399   .     A
C762   N823    1.427   .     S
C763   C783    1.403   .     A
C763   C784    1.403   .     A
C763   C772    1.414   .     S
C764   C782    1.402   .     A
C765   N819    1.372   .     A
C765   N824    1.422   .     S
C765   C1224   1.435   1_545 S
C766   N817    1.368   .     A
C766   N825    1.421   .     S
C766   C995    1.437   .     S
C767   N819    1.381   .     A
C767   N826    1.422   .     S
C767   C1222   1.437   1_545 S
C768   N817    1.375   .     A
C768   N818    1.420   .     S
C768   C993    1.435   .     S
C769   H796    1.111   .     S
C769   H811    1.108   .     S
C769   H807    1.110   .     S
C769   N820    1.445   .     S
C770   H815    1.106   .     S
C770   H814    1.111   .     S
C770   N821    1.445   .     S
C770   H813    1.110   .     S
C771   H787    1.110   .     S
C771   N822    1.450   .     S
C771   H788    1.112   .     S
C771   H786    1.111   .     S
C772   O829    1.295   .     A
C772   O828    1.286   .     A
C773   H792    1.110   .     S
C773   N823    1.450   .     S
C773   H791    1.111   .     S
C773   H790    1.111   .     S
C774   H794    1.101   .     S
C774   N824    1.450   .     S
C774   H797    1.110   .     S
C774   H795    1.105   .     S
C775   H799    1.109   .     S
C775   H800    1.109   .     S
C775   H801    1.109   .     S
C775   N825    1.448   .     S
C776   H804    1.110   .     S
C776   H803    1.106   .     S
C776   H805    1.112   .     S
C776   N826    1.450   .     S
C777   H810    1.106   .     S
C777   N818    1.442   .     S
C777   H808    1.110   .     S
C777   H809    1.110   .     S
C778   O834    1.291   .     A
C778   C780    1.367   .     S
C778   O831    1.284   .     A
C779   O832    1.285   .     A
C779   C781    1.367   .     S
C779   O833    1.290   .     A
C781   C1464   1.166   .     S
C782   N820    1.427   .     S
C783   N821    1.425   .     S
C783   C838    1.388   .     S
C784   N822    1.427   .     S
C784   C858    1.389   .     S
H785   N820    1.030   .     S
H789   N823    1.029   .     S
H793   N824    1.029   .     S
H798   N825    1.029   .     S
H802   N826    1.026   .     S
H806   N818    1.031   .     S
H812   N821    1.030   .     S
H816   N822    1.028   .     S
N817   Zn835   2.038   .     S
N819   Zn836   2.038   .     S
O827   Zn835   1.988   .     S
O828   Zn836   1.988   .     S
O829   Zn835   1.985   .     S
O830   Zn836   1.985   .     S
O831   Zn835   1.941   .     S
O832   Zn836   1.941   .     S
O833   Zn835   1.955   .     S
O834   Zn836   1.955   .     S
C837   O903    1.288   .     A
C837   O906    1.290   .     A
C837   C840    1.409   .     S
C838   C840    1.399   .     A
C838   N899    1.427   .     S
C839   C859    1.403   .     A
C839   C860    1.403   .     A
C839   C848    1.414   .     S
C840   C858    1.402   .     A
C841   N895    1.372   .     A
C841   N900    1.422   .     S
C841   C1300   1.435   1_545 S
C842   N893    1.368   .     A
C842   N901    1.421   .     S
C842   C1071   1.437   .     S
C843   N895    1.381   .     A
C843   N902    1.422   .     S
C843   C1298   1.437   1_545 S
C844   N893    1.375   .     A
C844   N894    1.420   .     S
C844   C1069   1.435   .     S
C845   H872    1.111   .     S
C845   H887    1.108   .     S
C845   H883    1.110   .     S
C845   N896    1.445   .     S
C846   H891    1.106   .     S
C846   H890    1.111   .     S
C846   N897    1.445   .     S
C846   H889    1.110   .     S
C847   H863    1.110   .     S
C847   N898    1.450   .     S
C847   H864    1.112   .     S
C847   H862    1.111   .     S
C848   O905    1.295   .     A
C848   O904    1.286   .     A
C849   H868    1.110   .     S
C849   N899    1.450   .     S
C849   H867    1.111   .     S
C849   H866    1.111   .     S
C850   H870    1.101   .     S
C850   N900    1.450   .     S
C850   H873    1.110   .     S
C850   H871    1.105   .     S
C851   H875    1.109   .     S
C851   H876    1.109   .     S
C851   H877    1.109   .     S
C851   N901    1.448   .     S
C852   H880    1.110   .     S
C852   H879    1.106   .     S
C852   H881    1.112   .     S
C852   N902    1.450   .     S
C853   H886    1.106   .     S
C853   N894    1.442   .     S
C853   H884    1.110   .     S
C853   H885    1.110   .     S
C854   O910    1.291   .     A
C854   C856    1.367   .     S
C854   O907    1.284   .     A
C855   O908    1.285   .     A
C855   C857    1.367   .     S
C855   O909    1.290   .     A
C857   C1540   1.166   .     S
C858   N896    1.427   .     S
C859   N897    1.425   .     S
C859   C686    1.388   1_655 S
C860   N898    1.427   .     S
C860   C706    1.389   1_655 S
H861   N896    1.030   .     S
H865   N899    1.029   .     S
H869   N900    1.029   .     S
H874   N901    1.029   .     S
H878   N902    1.026   .     S
H882   N894    1.031   .     S
H888   N897    1.030   .     S
H892   N898    1.028   .     S
N893   Zn911   2.038   .     S
N895   Zn912   2.038   .     S
O903   Zn911   1.988   .     S
O904   Zn912   1.988   .     S
O905   Zn911   1.985   .     S
O906   Zn912   1.985   .     S
O907   Zn911   1.941   .     S
O908   Zn912   1.941   .     S
O909   Zn911   1.955   .     S
O910   Zn912   1.955   .     S
C913   O979    1.288   .     A
C913   O982    1.290   .     A
C913   C916    1.409   .     S
C914   C916    1.399   .     A
C914   N975    1.427   .     S
C914   C1087   1.388   1_455 S
C915   C935    1.403   .     A
C915   C936    1.403   .     A
C915   C924    1.414   .     S
C916   C934    1.402   .     A
C917   N971    1.372   .     A
C917   N976    1.422   .     S
C918   N969    1.368   .     A
C918   N977    1.421   .     S
C918   C1147   1.437   .     S
C919   N971    1.381   .     A
C919   N978    1.422   .     S
C920   N969    1.375   .     A
C920   N970    1.420   .     S
C920   C1145   1.435   .     S
C921   H948    1.111   .     S
C921   H963    1.108   .     S
C921   H959    1.110   .     S
C921   N972    1.445   .     S
C922   H967    1.106   .     S
C922   H966    1.111   .     S
C922   N973    1.445   .     S
C922   H965    1.110   .     S
C923   H939    1.110   .     S
C923   N974    1.450   .     S
C923   H940    1.112   .     S
C923   H938    1.111   .     S
C924   O981    1.295   .     A
C924   O980    1.286   .     A
C925   H944    1.110   .     S
C925   N975    1.450   .     S
C925   H943    1.111   .     S
C925   H942    1.111   .     S
C926   H946    1.101   .     S
C926   N976    1.450   .     S
C926   H949    1.110   .     S
C926   H947    1.105   .     S
C927   H951    1.109   .     S
C927   H952    1.109   .     S
C927   H953    1.109   .     S
C927   N977    1.448   .     S
C928   H956    1.110   .     S
C928   H955    1.106   .     S
C928   H957    1.112   .     S
C928   N978    1.450   .     S
C929   H962    1.106   .     S
C929   N970    1.442   .     S
C929   H960    1.110   .     S
C929   H961    1.110   .     S
C930   O986    1.291   .     A
C930   C932    1.367   .     S
C930   O983    1.284   .     A
C931   O984    1.285   .     A
C931   C933    1.367   .     S
C931   O985    1.290   .     A
C933   C1616   1.166   .     S
C934   N972    1.427   .     S
C934   C1088   1.389   1_455 S
C935   N973    1.425   .     S
C935   C990    1.388   .     S
C936   N974    1.427   .     S
C936   C1010   1.389   .     S
H937   N972    1.030   .     S
H941   N975    1.029   .     S
H945   N976    1.029   .     S
H950   N977    1.029   .     S
H954   N978    1.026   .     S
H958   N970    1.031   .     S
H964   N973    1.030   .     S
H968   N974    1.028   .     S
N969   Zn987   2.038   .     S
N971   Zn988   2.038   .     S
O979   Zn987   1.988   .     S
O980   Zn988   1.988   .     S
O981   Zn987   1.985   .     S
O982   Zn988   1.985   .     S
O983   Zn987   1.941   .     S
O984   Zn988   1.941   .     S
O985   Zn987   1.955   .     S
O986   Zn988   1.955   .     S
C989   O1055   1.288   .     A
C989   O1058   1.290   .     A
C989   C992    1.409   .     S
C990   C992    1.399   .     A
C990   N1051   1.427   .     S
C991   C1011   1.403   .     A
C991   C1012   1.403   .     A
C991   C1000   1.414   .     S
C992   C1010   1.402   .     A
C993   N1047   1.372   .     A
C993   N1052   1.422   .     S
C994   N1045   1.368   .     A
C994   N1053   1.421   .     S
C994   C1223   1.437   .     S
C995   N1047   1.381   .     A
C995   N1054   1.422   .     S
C996   N1045   1.375   .     A
C996   N1046   1.420   .     S
C996   C1221   1.435   .     S
C997   H1024   1.111   .     S
C997   H1039   1.108   .     S
C997   H1035   1.110   .     S
C997   N1048   1.445   .     S
C998   H1043   1.106   .     S
C998   H1042   1.111   .     S
C998   N1049   1.445   .     S
C998   H1041   1.110   .     S
C999   H1015   1.110   .     S
C999   N1050   1.450   .     S
C999   H1016   1.112   .     S
C999   H1014   1.111   .     S
C1000  O1057   1.295   .     A
C1000  O1056   1.286   .     A
C1001  H1020   1.110   .     S
C1001  N1051   1.450   .     S
C1001  H1019   1.111   .     S
C1001  H1018   1.111   .     S
C1002  H1022   1.101   .     S
C1002  N1052   1.450   .     S
C1002  H1025   1.110   .     S
C1002  H1023   1.105   .     S
C1003  H1027   1.109   .     S
C1003  H1028   1.109   .     S
C1003  H1029   1.109   .     S
C1003  N1053   1.448   .     S
C1004  H1032   1.110   .     S
C1004  H1031   1.106   .     S
C1004  H1033   1.112   .     S
C1004  N1054   1.450   .     S
C1005  H1038   1.106   .     S
C1005  N1046   1.442   .     S
C1005  H1036   1.110   .     S
C1005  H1037   1.110   .     S
C1006  O1062   1.291   .     A
C1006  C1008   1.367   .     S
C1006  O1059   1.284   .     A
C1007  O1060   1.285   .     A
C1007  C1009   1.367   .     S
C1007  O1061   1.290   .     A
C1009  C1692   1.166   .     S
C1010  N1048   1.427   .     S
C1011  N1049   1.425   .     S
C1011  C1066   1.388   .     S
C1012  N1050   1.427   .     S
C1012  C1086   1.389   .     S
H1013  N1048   1.030   .     S
H1017  N1051   1.029   .     S
H1021  N1052   1.029   .     S
H1026  N1053   1.029   .     S
H1030  N1054   1.026   .     S
H1034  N1046   1.031   .     S
H1040  N1049   1.030   .     S
H1044  N1050   1.028   .     S
N1045  Zn1063  2.038   .     S
N1047  Zn1064  2.038   .     S
O1055  Zn1063  1.988   .     S
O1056  Zn1064  1.988   .     S
O1057  Zn1063  1.985   .     S
O1058  Zn1064  1.985   .     S
O1059  Zn1063  1.941   .     S
O1060  Zn1064  1.941   .     S
O1061  Zn1063  1.955   .     S
O1062  Zn1064  1.955   .     S
C1065  O1131   1.288   .     A
C1065  O1134   1.290   .     A
C1065  C1068   1.409   .     S
C1066  C1068   1.399   .     A
C1066  N1127   1.427   .     S
C1067  C1087   1.403   .     A
C1067  C1088   1.403   .     A
C1067  C1076   1.414   .     S
C1068  C1086   1.402   .     A
C1069  N1123   1.372   .     A
C1069  N1128   1.422   .     S
C1070  N1121   1.368   .     A
C1070  N1129   1.421   .     S
C1070  C1299   1.437   .     S
C1071  N1123   1.381   .     A
C1071  N1130   1.422   .     S
C1072  N1121   1.375   .     A
C1072  N1122   1.420   .     S
C1072  C1297   1.435   .     S
C1073  H1100   1.111   .     S
C1073  H1115   1.108   .     S
C1073  H1111   1.110   .     S
C1073  N1124   1.445   .     S
C1074  H1119   1.106   .     S
C1074  H1118   1.111   .     S
C1074  N1125   1.445   .     S
C1074  H1117   1.110   .     S
C1075  H1091   1.110   .     S
C1075  N1126   1.450   .     S
C1075  H1092   1.112   .     S
C1075  H1090   1.111   .     S
C1076  O1133   1.295   .     A
C1076  O1132   1.286   .     A
C1077  H1096   1.110   .     S
C1077  N1127   1.450   .     S
C1077  H1095   1.111   .     S
C1077  H1094   1.111   .     S
C1078  H1098   1.101   .     S
C1078  N1128   1.450   .     S
C1078  H1101   1.110   .     S
C1078  H1099   1.105   .     S
C1079  H1103   1.109   .     S
C1079  H1104   1.109   .     S
C1079  H1105   1.109   .     S
C1079  N1129   1.448   .     S
C1080  H1108   1.110   .     S
C1080  H1107   1.106   .     S
C1080  H1109   1.112   .     S
C1080  N1130   1.450   .     S
C1081  H1114   1.106   .     S
C1081  N1122   1.442   .     S
C1081  H1112   1.110   .     S
C1081  H1113   1.110   .     S
C1082  O1138   1.291   .     A
C1082  C1084   1.367   .     S
C1082  O1135   1.284   .     A
C1083  O1136   1.285   .     A
C1083  C1085   1.367   .     S
C1083  O1137   1.290   .     A
C1085  C1768   1.166   .     S
C1086  N1124   1.427   .     S
C1087  N1125   1.425   .     S
C1087  C914    1.388   1_655 S
C1088  N1126   1.427   .     S
C1088  C934    1.389   1_655 S
H1089  N1124   1.030   .     S
H1093  N1127   1.029   .     S
H1097  N1128   1.029   .     S
H1102  N1129   1.029   .     S
H1106  N1130   1.026   .     S
H1110  N1122   1.031   .     S
H1116  N1125   1.030   .     S
H1120  N1126   1.028   .     S
N1121  Zn1139  2.038   .     S
N1123  Zn1140  2.038   .     S
O1131  Zn1139  1.988   .     S
O1132  Zn1140  1.988   .     S
O1133  Zn1139  1.985   .     S
O1134  Zn1140  1.985   .     S
O1135  Zn1139  1.941   .     S
O1136  Zn1140  1.941   .     S
O1137  Zn1139  1.955   .     S
O1138  Zn1140  1.955   .     S
C1141  O1207   1.288   .     A
C1141  O1210   1.290   .     A
C1141  C1144   1.409   .     S
C1142  C1144   1.399   .     A
C1142  N1203   1.427   .     S
C1142  C1315   1.388   1_455 S
C1143  C1163   1.403   .     A
C1143  C1164   1.403   .     A
C1143  C1152   1.414   .     S
C1144  C1162   1.402   .     A
C1145  N1199   1.372   .     A
C1145  N1204   1.422   .     S
C1146  N1197   1.368   .     A
C1146  N1205   1.421   .     S
C1146  C691    1.437   1_565 S
C1147  N1199   1.381   .     A
C1147  N1206   1.422   .     S
C1148  N1197   1.375   .     A
C1148  N1198   1.420   .     S
C1148  C689    1.435   1_565 S
C1149  H1176   1.111   .     S
C1149  H1191   1.108   .     S
C1149  H1187   1.110   .     S
C1149  N1200   1.445   .     S
C1150  H1195   1.106   .     S
C1150  H1194   1.111   .     S
C1150  N1201   1.445   .     S
C1150  H1193   1.110   .     S
C1151  H1167   1.110   .     S
C1151  N1202   1.450   .     S
C1151  H1168   1.112   .     S
C1151  H1166   1.111   .     S
C1152  O1209   1.295   .     A
C1152  O1208   1.286   .     A
C1153  H1172   1.110   .     S
C1153  N1203   1.450   .     S
C1153  H1171   1.111   .     S
C1153  H1170   1.111   .     S
C1154  H1174   1.101   .     S
C1154  N1204   1.450   .     S
C1154  H1177   1.110   .     S
C1154  H1175   1.105   .     S
C1155  H1179   1.109   .     S
C1155  H1180   1.109   .     S
C1155  H1181   1.109   .     S
C1155  N1205   1.448   .     S
C1156  H1184   1.110   .     S
C1156  H1183   1.106   .     S
C1156  H1185   1.112   .     S
C1156  N1206   1.450   .     S
C1157  H1190   1.106   .     S
C1157  N1198   1.442   .     S
C1157  H1188   1.110   .     S
C1157  H1189   1.110   .     S
C1158  O1214   1.291   .     A
C1158  C1160   1.367   .     S
C1158  O1211   1.284   .     A
C1159  O1212   1.285   .     A
C1159  C1161   1.367   .     S
C1159  O1213   1.290   .     A
C1161  C1844   1.166   .     S
C1162  N1200   1.427   .     S
C1162  C1316   1.389   1_455 S
C1163  N1201   1.425   .     S
C1163  C1218   1.388   .     S
C1164  N1202   1.427   .     S
C1164  C1238   1.389   .     S
H1165  N1200   1.030   .     S
H1169  N1203   1.029   .     S
H1173  N1204   1.029   .     S
H1178  N1205   1.029   .     S
H1182  N1206   1.026   .     S
H1186  N1198   1.031   .     S
H1192  N1201   1.030   .     S
H1196  N1202   1.028   .     S
N1197  Zn1215  2.038   .     S
N1199  Zn1216  2.038   .     S
O1207  Zn1215  1.988   .     S
O1208  Zn1216  1.988   .     S
O1209  Zn1215  1.985   .     S
O1210  Zn1216  1.985   .     S
O1211  Zn1215  1.941   .     S
O1212  Zn1216  1.941   .     S
O1213  Zn1215  1.955   .     S
O1214  Zn1216  1.955   .     S
C1217  O1283   1.288   .     A
C1217  O1286   1.290   .     A
C1217  C1220   1.409   .     S
C1218  C1220   1.399   .     A
C1218  N1279   1.427   .     S
C1219  C1239   1.403   .     A
C1219  C1240   1.403   .     A
C1219  C1228   1.414   .     S
C1220  C1238   1.402   .     A
C1221  N1275   1.372   .     A
C1221  N1280   1.422   .     S
C1222  N1273   1.368   .     A
C1222  N1281   1.421   .     S
C1222  C767    1.437   1_565 S
C1223  N1275   1.381   .     A
C1223  N1282   1.422   .     S
C1224  N1273   1.375   .     A
C1224  N1274   1.420   .     S
C1224  C765    1.435   1_565 S
C1225  H1252   1.111   .     S
C1225  H1267   1.108   .     S
C1225  H1263   1.110   .     S
C1225  N1276   1.445   .     S
C1226  H1271   1.106   .     S
C1226  H1270   1.111   .     S
C1226  N1277   1.445   .     S
C1226  H1269   1.110   .     S
C1227  H1243   1.110   .     S
C1227  N1278   1.450   .     S
C1227  H1244   1.112   .     S
C1227  H1242   1.111   .     S
C1228  O1285   1.295   .     A
C1228  O1284   1.286   .     A
C1229  H1248   1.110   .     S
C1229  N1279   1.450   .     S
C1229  H1247   1.111   .     S
C1229  H1246   1.111   .     S
C1230  H1250   1.101   .     S
C1230  N1280   1.450   .     S
C1230  H1253   1.110   .     S
C1230  H1251   1.105   .     S
C1231  H1255   1.109   .     S
C1231  H1256   1.109   .     S
C1231  H1257   1.109   .     S
C1231  N1281   1.448   .     S
C1232  H1260   1.110   .     S
C1232  H1259   1.106   .     S
C1232  H1261   1.112   .     S
C1232  N1282   1.450   .     S
C1233  H1266   1.106   .     S
C1233  N1274   1.442   .     S
C1233  H1264   1.110   .     S
C1233  H1265   1.110   .     S
C1234  O1290   1.291   .     A
C1234  C1236   1.367   .     S
C1234  O1287   1.284   .     A
C1235  O1288   1.285   .     A
C1235  C1237   1.367   .     S
C1235  O1289   1.290   .     A
C1237  C1920   1.166   .     S
C1238  N1276   1.427   .     S
C1239  N1277   1.425   .     S
C1239  C1294   1.388   .     S
C1240  N1278   1.427   .     S
C1240  C1314   1.389   .     S
H1241  N1276   1.030   .     S
H1245  N1279   1.029   .     S
H1249  N1280   1.029   .     S
H1254  N1281   1.029   .     S
H1258  N1282   1.026   .     S
H1262  N1274   1.031   .     S
H1268  N1277   1.030   .     S
H1272  N1278   1.028   .     S
N1273  Zn1291  2.038   .     S
N1275  Zn1292  2.038   .     S
O1283  Zn1291  1.988   .     S
O1284  Zn1292  1.988   .     S
O1285  Zn1291  1.985   .     S
O1286  Zn1292  1.985   .     S
O1287  Zn1291  1.941   .     S
O1288  Zn1292  1.941   .     S
O1289  Zn1291  1.955   .     S
O1290  Zn1292  1.955   .     S
C1293  O1359   1.288   .     A
C1293  O1362   1.290   .     A
C1293  C1296   1.409   .     S
C1294  C1296   1.399   .     A
C1294  N1355   1.427   .     S
C1295  C1315   1.403   .     A
C1295  C1316   1.403   .     A
C1295  C1304   1.414   .     S
C1296  C1314   1.402   .     A
C1297  N1351   1.372   .     A
C1297  N1356   1.422   .     S
C1298  N1349   1.368   .     A
C1298  N1357   1.421   .     S
C1298  C843    1.437   1_565 S
C1299  N1351   1.381   .     A
C1299  N1358   1.422   .     S
C1300  N1349   1.375   .     A
C1300  N1350   1.420   .     S
C1300  C841    1.435   1_565 S
C1301  H1328   1.111   .     S
C1301  H1343   1.108   .     S
C1301  H1339   1.110   .     S
C1301  N1352   1.445   .     S
C1302  H1347   1.106   .     S
C1302  H1346   1.111   .     S
C1302  N1353   1.445   .     S
C1302  H1345   1.110   .     S
C1303  H1319   1.110   .     S
C1303  N1354   1.450   .     S
C1303  H1320   1.112   .     S
C1303  H1318   1.111   .     S
C1304  O1361   1.295   .     A
C1304  O1360   1.286   .     A
C1305  H1324   1.110   .     S
C1305  N1355   1.450   .     S
C1305  H1323   1.111   .     S
C1305  H1322   1.111   .     S
C1306  H1326   1.101   .     S
C1306  N1356   1.450   .     S
C1306  H1329   1.110   .     S
C1306  H1327   1.105   .     S
C1307  H1331   1.109   .     S
C1307  H1332   1.109   .     S
C1307  H1333   1.109   .     S
C1307  N1357   1.448   .     S
C1308  H1336   1.110   .     S
C1308  H1335   1.106   .     S
C1308  H1337   1.112   .     S
C1308  N1358   1.450   .     S
C1309  H1342   1.106   .     S
C1309  N1350   1.442   .     S
C1309  H1340   1.110   .     S
C1309  H1341   1.110   .     S
C1310  O1366   1.291   .     A
C1310  C1312   1.367   .     S
C1310  O1363   1.284   .     A
C1311  O1364   1.285   .     A
C1311  C1313   1.367   .     S
C1311  O1365   1.290   .     A
C1313  C1996   1.166   .     S
C1314  N1352   1.427   .     S
C1315  N1353   1.425   .     S
C1315  C1142   1.388   1_655 S
C1316  N1354   1.427   .     S
C1316  C1162   1.389   1_655 S
H1317  N1352   1.030   .     S
H1321  N1355   1.029   .     S
H1325  N1356   1.029   .     S
H1330  N1357   1.029   .     S
H1334  N1358   1.026   .     S
H1338  N1350   1.031   .     S
H1344  N1353   1.030   .     S
H1348  N1354   1.028   .     S
N1349  Zn1367  2.038   .     S
N1351  Zn1368  2.038   .     S
O1359  Zn1367  1.988   .     S
O1360  Zn1368  1.988   .     S
O1361  Zn1367  1.985   .     S
O1362  Zn1368  1.985   .     S
O1363  Zn1367  1.941   .     S
O1364  Zn1368  1.941   .     S
O1365  Zn1367  1.955   .     S
O1366  Zn1368  1.955   .     S
C1369  O1435   1.288   .     A
C1369  O1438   1.290   .     A
C1369  C1372   1.409   .     S
C1370  C1372   1.399   .     A
C1370  N1431   1.427   .     S
C1370  C1543   1.388   1_455 S
C1371  C1391   1.403   .     A
C1371  C1392   1.403   .     A
C1371  C1380   1.414   .     S
C1372  C1390   1.402   .     A
C1373  N1427   1.372   .     A
C1373  N1432   1.422   .     S
C1373  C1832   1.435   1_545 S
C1374  N1425   1.368   .     A
C1374  N1433   1.421   .     S
C1374  C1603   1.437   .     S
C1375  N1427   1.381   .     A
C1375  N1434   1.422   .     S
C1375  C1830   1.437   1_545 S
C1376  N1425   1.375   .     A
C1376  N1426   1.420   .     S
C1376  C1601   1.435   .     S
C1377  H1404   1.111   .     S
C1377  H1419   1.108   .     S
C1377  H1415   1.110   .     S
C1377  N1428   1.445   .     S
C1378  H1423   1.106   .     S
C1378  H1422   1.111   .     S
C1378  N1429   1.445   .     S
C1378  H1421   1.110   .     S
C1379  H1395   1.110   .     S
C1379  N1430   1.450   .     S
C1379  H1396   1.112   .     S
C1379  H1394   1.111   .     S
C1380  O1437   1.295   .     A
C1380  O1436   1.286   .     A
C1381  H1400   1.110   .     S
C1381  N1431   1.450   .     S
C1381  H1399   1.111   .     S
C1381  H1398   1.111   .     S
C1382  H1402   1.101   .     S
C1382  N1432   1.450   .     S
C1382  H1405   1.110   .     S
C1382  H1403   1.105   .     S
C1383  H1407   1.109   .     S
C1383  H1408   1.109   .     S
C1383  H1409   1.109   .     S
C1383  N1433   1.448   .     S
C1384  H1412   1.110   .     S
C1384  H1411   1.106   .     S
C1384  H1413   1.112   .     S
C1384  N1434   1.450   .     S
C1385  H1418   1.106   .     S
C1385  N1426   1.442   .     S
C1385  H1416   1.110   .     S
C1385  H1417   1.110   .     S
C1386  O1442   1.291   .     A
C1386  C1388   1.367   .     S
C1386  O1439   1.284   .     A
C1387  O1440   1.285   .     A
C1387  C1389   1.367   .     S
C1387  O1441   1.290   .     A
C1389  C20     1.166   1_556 S
C1390  N1428   1.427   .     S
C1390  C1544   1.389   1_455 S
C1391  N1429   1.425   .     S
C1391  C1446   1.388   .     S
C1392  N1430   1.427   .     S
C1392  C1466   1.389   .     S
H1393  N1428   1.030   .     S
H1397  N1431   1.029   .     S
H1401  N1432   1.029   .     S
H1406  N1433   1.029   .     S
H1410  N1434   1.026   .     S
H1414  N1426   1.031   .     S
H1420  N1429   1.030   .     S
H1424  N1430   1.028   .     S
N1425  Zn1443  2.038   .     S
N1427  Zn1444  2.038   .     S
O1435  Zn1443  1.988   .     S
O1436  Zn1444  1.988   .     S
O1437  Zn1443  1.985   .     S
O1438  Zn1444  1.985   .     S
O1439  Zn1443  1.941   .     S
O1440  Zn1444  1.941   .     S
O1441  Zn1443  1.955   .     S
O1442  Zn1444  1.955   .     S
C1445  O1511   1.288   .     A
C1445  O1514   1.290   .     A
C1445  C1448   1.409   .     S
C1446  C1448   1.399   .     A
C1446  N1507   1.427   .     S
C1447  C1467   1.403   .     A
C1447  C1468   1.403   .     A
C1447  C1456   1.414   .     S
C1448  C1466   1.402   .     A
C1449  N1503   1.372   .     A
C1449  N1508   1.422   .     S
C1449  C1908   1.435   1_545 S
C1450  N1501   1.368   .     A
C1450  N1509   1.421   .     S
C1450  C1679   1.437   .     S
C1451  N1503   1.381   .     A
C1451  N1510   1.422   .     S
C1451  C1906   1.437   1_545 S
C1452  N1501   1.375   .     A
C1452  N1502   1.420   .     S
C1452  C1677   1.435   .     S
C1453  H1480   1.111   .     S
C1453  H1495   1.108   .     S
C1453  H1491   1.110   .     S
C1453  N1504   1.445   .     S
C1454  H1499   1.106   .     S
C1454  H1498   1.111   .     S
C1454  N1505   1.445   .     S
C1454  H1497   1.110   .     S
C1455  H1471   1.110   .     S
C1455  N1506   1.450   .     S
C1455  H1472   1.112   .     S
C1455  H1470   1.111   .     S
C1456  O1513   1.295   .     A
C1456  O1512   1.286   .     A
C1457  H1476   1.110   .     S
C1457  N1507   1.450   .     S
C1457  H1475   1.111   .     S
C1457  H1474   1.111   .     S
C1458  H1478   1.101   .     S
C1458  N1508   1.450   .     S
C1458  H1481   1.110   .     S
C1458  H1479   1.105   .     S
C1459  H1483   1.109   .     S
C1459  H1484   1.109   .     S
C1459  H1485   1.109   .     S
C1459  N1509   1.448   .     S
C1460  H1488   1.110   .     S
C1460  H1487   1.106   .     S
C1460  H1489   1.112   .     S
C1460  N1510   1.450   .     S
C1461  H1494   1.106   .     S
C1461  N1502   1.442   .     S
C1461  H1492   1.110   .     S
C1461  H1493   1.110   .     S
C1462  O1518   1.291   .     A
C1462  C1464   1.367   .     S
C1462  O1515   1.284   .     A
C1463  O1516   1.285   .     A
C1463  C1465   1.367   .     S
C1463  O1517   1.290   .     A
C1465  C96     1.166   1_556 S
C1466  N1504   1.427   .     S
C1467  N1505   1.425   .     S
C1467  C1522   1.388   .     S
C1468  N1506   1.427   .     S
C1468  C1542   1.389   .     S
H1469  N1504   1.030   .     S
H1473  N1507   1.029   .     S
H1477  N1508   1.029   .     S
H1482  N1509   1.029   .     S
H1486  N1510   1.026   .     S
H1490  N1502   1.031   .     S
H1496  N1505   1.030   .     S
H1500  N1506   1.028   .     S
N1501  Zn1519  2.038   .     S
N1503  Zn1520  2.038   .     S
O1511  Zn1519  1.988   .     S
O1512  Zn1520  1.988   .     S
O1513  Zn1519  1.985   .     S
O1514  Zn1520  1.985   .     S
O1515  Zn1519  1.941   .     S
O1516  Zn1520  1.941   .     S
O1517  Zn1519  1.955   .     S
O1518  Zn1520  1.955   .     S
C1521  O1587   1.288   .     A
C1521  O1590   1.290   .     A
C1521  C1524   1.409   .     S
C1522  C1524   1.399   .     A
C1522  N1583   1.427   .     S
C1523  C1543   1.403   .     A
C1523  C1544   1.403   .     A
C1523  C1532   1.414   .     S
C1524  C1542   1.402   .     A
C1525  N1579   1.372   .     A
C1525  N1584   1.422   .     S
C1525  C1984   1.435   1_545 S
C1526  N1577   1.368   .     A
C1526  N1585   1.421   .     S
C1526  C1755   1.437   .     S
C1527  N1579   1.381   .     A
C1527  N1586   1.422   .     S
C1527  C1982   1.437   1_545 S
C1528  N1577   1.375   .     A
C1528  N1578   1.420   .     S
C1528  C1753   1.435   .     S
C1529  H1556   1.111   .     S
C1529  H1571   1.108   .     S
C1529  H1567   1.110   .     S
C1529  N1580   1.445   .     S
C1530  H1575   1.106   .     S
C1530  H1574   1.111   .     S
C1530  N1581   1.445   .     S
C1530  H1573   1.110   .     S
C1531  H1547   1.110   .     S
C1531  N1582   1.450   .     S
C1531  H1548   1.112   .     S
C1531  H1546   1.111   .     S
C1532  O1589   1.295   .     A
C1532  O1588   1.286   .     A
C1533  H1552   1.110   .     S
C1533  N1583   1.450   .     S
C1533  H1551   1.111   .     S
C1533  H1550   1.111   .     S
C1534  H1554   1.101   .     S
C1534  N1584   1.450   .     S
C1534  H1557   1.110   .     S
C1534  H1555   1.105   .     S
C1535  H1559   1.109   .     S
C1535  H1560   1.109   .     S
C1535  H1561   1.109   .     S
C1535  N1585   1.448   .     S
C1536  H1564   1.110   .     S
C1536  H1563   1.106   .     S
C1536  H1565   1.112   .     S
C1536  N1586   1.450   .     S
C1537  H1570   1.106   .     S
C1537  N1578   1.442   .     S
C1537  H1568   1.110   .     S
C1537  H1569   1.110   .     S
C1538  O1594   1.291   .     A
C1538  C1540   1.367   .     S
C1538  O1591   1.284   .     A
C1539  O1592   1.285   .     A
C1539  C1541   1.367   .     S
C1539  O1593   1.290   .     A
C1541  C172    1.166   1_556 S
C1542  N1580   1.427   .     S
C1543  N1581   1.425   .     S
C1543  C1370   1.388   1_655 S
C1544  N1582   1.427   .     S
C1544  C1390   1.389   1_655 S
H1545  N1580   1.030   .     S
H1549  N1583   1.029   .     S
H1553  N1584   1.029   .     S
H1558  N1585   1.029   .     S
H1562  N1586   1.026   .     S
H1566  N1578   1.031   .     S
H1572  N1581   1.030   .     S
H1576  N1582   1.028   .     S
N1577  Zn1595  2.038   .     S
N1579  Zn1596  2.038   .     S
O1587  Zn1595  1.988   .     S
O1588  Zn1596  1.988   .     S
O1589  Zn1595  1.985   .     S
O1590  Zn1596  1.985   .     S
O1591  Zn1595  1.941   .     S
O1592  Zn1596  1.941   .     S
O1593  Zn1595  1.955   .     S
O1594  Zn1596  1.955   .     S
C1597  O1663   1.288   .     A
C1597  O1666   1.290   .     A
C1597  C1600   1.409   .     S
C1598  C1600   1.399   .     A
C1598  N1659   1.427   .     S
C1598  C1771   1.388   1_455 S
C1599  C1619   1.403   .     A
C1599  C1620   1.403   .     A
C1599  C1608   1.414   .     S
C1600  C1618   1.402   .     A
C1601  N1655   1.372   .     A
C1601  N1660   1.422   .     S
C1602  N1653   1.368   .     A
C1602  N1661   1.421   .     S
C1602  C1831   1.437   .     S
C1603  N1655   1.381   .     A
C1603  N1662   1.422   .     S
C1604  N1653   1.375   .     A
C1604  N1654   1.420   .     S
C1604  C1829   1.435   .     S
C1605  H1632   1.111   .     S
C1605  H1647   1.108   .     S
C1605  H1643   1.110   .     S
C1605  N1656   1.445   .     S
C1606  H1651   1.106   .     S
C1606  H1650   1.111   .     S
C1606  N1657   1.445   .     S
C1606  H1649   1.110   .     S
C1607  H1623   1.110   .     S
C1607  N1658   1.450   .     S
C1607  H1624   1.112   .     S
C1607  H1622   1.111   .     S
C1608  O1665   1.295   .     A
C1608  O1664   1.286   .     A
C1609  H1628   1.110   .     S
C1609  N1659   1.450   .     S
C1609  H1627   1.111   .     S
C1609  H1626   1.111   .     S
C1610  H1630   1.101   .     S
C1610  N1660   1.450   .     S
C1610  H1633   1.110   .     S
C1610  H1631   1.105   .     S
C1611  H1635   1.109   .     S
C1611  H1636   1.109   .     S
C1611  H1637   1.109   .     S
C1611  N1661   1.448   .     S
C1612  H1640   1.110   .     S
C1612  H1639   1.106   .     S
C1612  H1641   1.112   .     S
C1612  N1662   1.450   .     S
C1613  H1646   1.106   .     S
C1613  N1654   1.442   .     S
C1613  H1644   1.110   .     S
C1613  H1645   1.110   .     S
C1614  O1670   1.291   .     A
C1614  C1616   1.367   .     S
C1614  O1667   1.284   .     A
C1615  O1668   1.285   .     A
C1615  C1617   1.367   .     S
C1615  O1669   1.290   .     A
C1617  C248    1.166   1_556 S
C1618  N1656   1.427   .     S
C1618  C1772   1.389   1_455 S
C1619  N1657   1.425   .     S
C1619  C1674   1.388   .     S
C1620  N1658   1.427   .     S
C1620  C1694   1.389   .     S
H1621  N1656   1.030   .     S
H1625  N1659   1.029   .     S
H1629  N1660   1.029   .     S
H1634  N1661   1.029   .     S
H1638  N1662   1.026   .     S
H1642  N1654   1.031   .     S
H1648  N1657   1.030   .     S
H1652  N1658   1.028   .     S
N1653  Zn1671  2.038   .     S
N1655  Zn1672  2.038   .     S
O1663  Zn1671  1.988   .     S
O1664  Zn1672  1.988   .     S
O1665  Zn1671  1.985   .     S
O1666  Zn1672  1.985   .     S
O1667  Zn1671  1.941   .     S
O1668  Zn1672  1.941   .     S
O1669  Zn1671  1.955   .     S
O1670  Zn1672  1.955   .     S
C1673  O1739   1.288   .     A
C1673  O1742   1.290   .     A
C1673  C1676   1.409   .     S
C1674  C1676   1.399   .     A
C1674  N1735   1.427   .     S
C1675  C1695   1.403   .     A
C1675  C1696   1.403   .     A
C1675  C1684   1.414   .     S
C1676  C1694   1.402   .     A
C1677  N1731   1.372   .     A
C1677  N1736   1.422   .     S
C1678  N1729   1.368   .     A
C1678  N1737   1.421   .     S
C1678  C1907   1.437   .     S
C1679  N1731   1.381   .     A
C1679  N1738   1.422   .     S
C1680  N1729   1.375   .     A
C1680  N1730   1.420   .     S
C1680  C1905   1.435   .     S
C1681  H1708   1.111   .     S
C1681  H1723   1.108   .     S
C1681  H1719   1.110   .     S
C1681  N1732   1.445   .     S
C1682  H1727   1.106   .     S
C1682  H1726   1.111   .     S
C1682  N1733   1.445   .     S
C1682  H1725   1.110   .     S
C1683  H1699   1.110   .     S
C1683  N1734   1.450   .     S
C1683  H1700   1.112   .     S
C1683  H1698   1.111   .     S
C1684  O1741   1.295   .     A
C1684  O1740   1.286   .     A
C1685  H1704   1.110   .     S
C1685  N1735   1.450   .     S
C1685  H1703   1.111   .     S
C1685  H1702   1.111   .     S
C1686  H1706   1.101   .     S
C1686  N1736   1.450   .     S
C1686  H1709   1.110   .     S
C1686  H1707   1.105   .     S
C1687  H1711   1.109   .     S
C1687  H1712   1.109   .     S
C1687  H1713   1.109   .     S
C1687  N1737   1.448   .     S
C1688  H1716   1.110   .     S
C1688  H1715   1.106   .     S
C1688  H1717   1.112   .     S
C1688  N1738   1.450   .     S
C1689  H1722   1.106   .     S
C1689  N1730   1.442   .     S
C1689  H1720   1.110   .     S
C1689  H1721   1.110   .     S
C1690  O1746   1.291   .     A
C1690  C1692   1.367   .     S
C1690  O1743   1.284   .     A
C1691  O1744   1.285   .     A
C1691  C1693   1.367   .     S
C1691  O1745   1.290   .     A
C1693  C324    1.166   1_556 S
C1694  N1732   1.427   .     S
C1695  N1733   1.425   .     S
C1695  C1750   1.388   .     S
C1696  N1734   1.427   .     S
C1696  C1770   1.389   .     S
H1697  N1732   1.030   .     S
H1701  N1735   1.029   .     S
H1705  N1736   1.029   .     S
H1710  N1737   1.029   .     S
H1714  N1738   1.026   .     S
H1718  N1730   1.031   .     S
H1724  N1733   1.030   .     S
H1728  N1734   1.028   .     S
N1729  Zn1747  2.038   .     S
N1731  Zn1748  2.038   .     S
O1739  Zn1747  1.988   .     S
O1740  Zn1748  1.988   .     S
O1741  Zn1747  1.985   .     S
O1742  Zn1748  1.985   .     S
O1743  Zn1747  1.941   .     S
O1744  Zn1748  1.941   .     S
O1745  Zn1747  1.955   .     S
O1746  Zn1748  1.955   .     S
C1749  O1815   1.288   .     A
C1749  O1818   1.290   .     A
C1749  C1752   1.409   .     S
C1750  C1752   1.399   .     A
C1750  N1811   1.427   .     S
C1751  C1771   1.403   .     A
C1751  C1772   1.403   .     A
C1751  C1760   1.414   .     S
C1752  C1770   1.402   .     A
C1753  N1807   1.372   .     A
C1753  N1812   1.422   .     S
C1754  N1805   1.368   .     A
C1754  N1813   1.421   .     S
C1754  C1983   1.437   .     S
C1755  N1807   1.381   .     A
C1755  N1814   1.422   .     S
C1756  N1805   1.375   .     A
C1756  N1806   1.420   .     S
C1756  C1981   1.435   .     S
C1757  H1784   1.111   .     S
C1757  H1799   1.108   .     S
C1757  H1795   1.110   .     S
C1757  N1808   1.445   .     S
C1758  H1803   1.106   .     S
C1758  H1802   1.111   .     S
C1758  N1809   1.445   .     S
C1758  H1801   1.110   .     S
C1759  H1775   1.110   .     S
C1759  N1810   1.450   .     S
C1759  H1776   1.112   .     S
C1759  H1774   1.111   .     S
C1760  O1817   1.295   .     A
C1760  O1816   1.286   .     A
C1761  H1780   1.110   .     S
C1761  N1811   1.450   .     S
C1761  H1779   1.111   .     S
C1761  H1778   1.111   .     S
C1762  H1782   1.101   .     S
C1762  N1812   1.450   .     S
C1762  H1785   1.110   .     S
C1762  H1783   1.105   .     S
C1763  H1787   1.109   .     S
C1763  H1788   1.109   .     S
C1763  H1789   1.109   .     S
C1763  N1813   1.448   .     S
C1764  H1792   1.110   .     S
C1764  H1791   1.106   .     S
C1764  H1793   1.112   .     S
C1764  N1814   1.450   .     S
C1765  H1798   1.106   .     S
C1765  N1806   1.442   .     S
C1765  H1796   1.110   .     S
C1765  H1797   1.110   .     S
C1766  O1822   1.291   .     A
C1766  C1768   1.367   .     S
C1766  O1819   1.284   .     A
C1767  O1820   1.285   .     A
C1767  C1769   1.367   .     S
C1767  O1821   1.290   .     A
C1769  C400    1.166   1_556 S
C1770  N1808   1.427   .     S
C1771  N1809   1.425   .     S
C1771  C1598   1.388   1_655 S
C1772  N1810   1.427   .     S
C1772  C1618   1.389   1_655 S
H1773  N1808   1.030   .     S
H1777  N1811   1.029   .     S
H1781  N1812   1.029   .     S
H1786  N1813   1.029   .     S
H1790  N1814   1.026   .     S
H1794  N1806   1.031   .     S
H1800  N1809   1.030   .     S
H1804  N1810   1.028   .     S
N1805  Zn1823  2.038   .     S
N1807  Zn1824  2.038   .     S
O1815  Zn1823  1.988   .     S
O1816  Zn1824  1.988   .     S
O1817  Zn1823  1.985   .     S
O1818  Zn1824  1.985   .     S
O1819  Zn1823  1.941   .     S
O1820  Zn1824  1.941   .     S
O1821  Zn1823  1.955   .     S
O1822  Zn1824  1.955   .     S
C1825  O1891   1.288   .     A
C1825  O1894   1.290   .     A
C1825  C1828   1.409   .     S
C1826  C1828   1.399   .     A
C1826  N1887   1.427   .     S
C1826  C1999   1.388   1_455 S
C1827  C1847   1.403   .     A
C1827  C1848   1.403   .     A
C1827  C1836   1.414   .     S
C1828  C1846   1.402   .     A
C1829  N1883   1.372   .     A
C1829  N1888   1.422   .     S
C1830  N1881   1.368   .     A
C1830  N1889   1.421   .     S
C1830  C1375   1.437   1_565 S
C1831  N1883   1.381   .     A
C1831  N1890   1.422   .     S
C1832  N1881   1.375   .     A
C1832  N1882   1.420   .     S
C1832  C1373   1.435   1_565 S
C1833  H1860   1.111   .     S
C1833  H1875   1.108   .     S
C1833  H1871   1.110   .     S
C1833  N1884   1.445   .     S
C1834  H1879   1.106   .     S
C1834  H1878   1.111   .     S
C1834  N1885   1.445   .     S
C1834  H1877   1.110   .     S
C1835  H1851   1.110   .     S
C1835  N1886   1.450   .     S
C1835  H1852   1.112   .     S
C1835  H1850   1.111   .     S
C1836  O1893   1.295   .     A
C1836  O1892   1.286   .     A
C1837  H1856   1.110   .     S
C1837  N1887   1.450   .     S
C1837  H1855   1.111   .     S
C1837  H1854   1.111   .     S
C1838  H1858   1.101   .     S
C1838  N1888   1.450   .     S
C1838  H1861   1.110   .     S
C1838  H1859   1.105   .     S
C1839  H1863   1.109   .     S
C1839  H1864   1.109   .     S
C1839  H1865   1.109   .     S
C1839  N1889   1.448   .     S
C1840  H1868   1.110   .     S
C1840  H1867   1.106   .     S
C1840  H1869   1.112   .     S
C1840  N1890   1.450   .     S
C1841  H1874   1.106   .     S
C1841  N1882   1.442   .     S
C1841  H1872   1.110   .     S
C1841  H1873   1.110   .     S
C1842  O1898   1.291   .     A
C1842  C1844   1.367   .     S
C1842  O1895   1.284   .     A
C1843  O1896   1.285   .     A
C1843  C1845   1.367   .     S
C1843  O1897   1.290   .     A
C1845  C476    1.166   1_556 S
C1846  N1884   1.427   .     S
C1846  C2000   1.389   1_455 S
C1847  N1885   1.425   .     S
C1847  C1902   1.388   .     S
C1848  N1886   1.427   .     S
C1848  C1922   1.389   .     S
H1849  N1884   1.030   .     S
H1853  N1887   1.029   .     S
H1857  N1888   1.029   .     S
H1862  N1889   1.029   .     S
H1866  N1890   1.026   .     S
H1870  N1882   1.031   .     S
H1876  N1885   1.030   .     S
H1880  N1886   1.028   .     S
N1881  Zn1899  2.038   .     S
N1883  Zn1900  2.038   .     S
O1891  Zn1899  1.988   .     S
O1892  Zn1900  1.988   .     S
O1893  Zn1899  1.985   .     S
O1894  Zn1900  1.985   .     S
O1895  Zn1899  1.941   .     S
O1896  Zn1900  1.941   .     S
O1897  Zn1899  1.955   .     S
O1898  Zn1900  1.955   .     S
C1901  O1967   1.288   .     A
C1901  O1970   1.290   .     A
C1901  C1904   1.409   .     S
C1902  C1904   1.399   .     A
C1902  N1963   1.427   .     S
C1903  C1923   1.403   .     A
C1903  C1924   1.403   .     A
C1903  C1912   1.414   .     S
C1904  C1922   1.402   .     A
C1905  N1959   1.372   .     A
C1905  N1964   1.422   .     S
C1906  N1957   1.368   .     A
C1906  N1965   1.421   .     S
C1906  C1451   1.437   1_565 S
C1907  N1959   1.381   .     A
C1907  N1966   1.422   .     S
C1908  N1957   1.375   .     A
C1908  N1958   1.420   .     S
C1908  C1449   1.435   1_565 S
C1909  H1936   1.111   .     S
C1909  H1951   1.108   .     S
C1909  H1947   1.110   .     S
C1909  N1960   1.445   .     S
C1910  H1955   1.106   .     S
C1910  H1954   1.111   .     S
C1910  N1961   1.445   .     S
C1910  H1953   1.110   .     S
C1911  H1927   1.110   .     S
C1911  N1962   1.450   .     S
C1911  H1928   1.112   .     S
C1911  H1926   1.111   .     S
C1912  O1969   1.295   .     A
C1912  O1968   1.286   .     A
C1913  H1932   1.110   .     S
C1913  N1963   1.450   .     S
C1913  H1931   1.111   .     S
C1913  H1930   1.111   .     S
C1914  H1934   1.101   .     S
C1914  N1964   1.450   .     S
C1914  H1937   1.110   .     S
C1914  H1935   1.105   .     S
C1915  H1939   1.109   .     S
C1915  H1940   1.109   .     S
C1915  H1941   1.109   .     S
C1915  N1965   1.448   .     S
C1916  H1944   1.110   .     S
C1916  H1943   1.106   .     S
C1916  H1945   1.112   .     S
C1916  N1966   1.450   .     S
C1917  H1950   1.106   .     S
C1917  N1958   1.442   .     S
C1917  H1948   1.110   .     S
C1917  H1949   1.110   .     S
C1918  O1974   1.291   .     A
C1918  C1920   1.367   .     S
C1918  O1971   1.284   .     A
C1919  O1972   1.285   .     A
C1919  C1921   1.367   .     S
C1919  O1973   1.290   .     A
C1921  C552    1.166   1_556 S
C1922  N1960   1.427   .     S
C1923  N1961   1.425   .     S
C1923  C1978   1.388   .     S
C1924  N1962   1.427   .     S
C1924  C1998   1.389   .     S
H1925  N1960   1.030   .     S
H1929  N1963   1.029   .     S
H1933  N1964   1.029   .     S
H1938  N1965   1.029   .     S
H1942  N1966   1.026   .     S
H1946  N1958   1.031   .     S
H1952  N1961   1.030   .     S
H1956  N1962   1.028   .     S
N1957  Zn1975  2.038   .     S
N1959  Zn1976  2.038   .     S
O1967  Zn1975  1.988   .     S
O1968  Zn1976  1.988   .     S
O1969  Zn1975  1.985   .     S
O1970  Zn1976  1.985   .     S
O1971  Zn1975  1.941   .     S
O1972  Zn1976  1.941   .     S
O1973  Zn1975  1.955   .     S
O1974  Zn1976  1.955   .     S
C1977  O2043   1.288   .     A
C1977  O2046   1.290   .     A
C1977  C1980   1.409   .     S
C1978  C1980   1.399   .     A
C1978  N2039   1.427   .     S
C1979  C1999   1.403   .     A
C1979  C2000   1.403   .     A
C1979  C1988   1.414   .     S
C1980  C1998   1.402   .     A
C1981  N2035   1.372   .     A
C1981  N2040   1.422   .     S
C1982  N2033   1.368   .     A
C1982  N2041   1.421   .     S
C1982  C1527   1.437   1_565 S
C1983  N2035   1.381   .     A
C1983  N2042   1.422   .     S
C1984  N2033   1.375   .     A
C1984  N2034   1.420   .     S
C1984  C1525   1.435   1_565 S
C1985  H2012   1.111   .     S
C1985  H2027   1.108   .     S
C1985  H2023   1.110   .     S
C1985  N2036   1.445   .     S
C1986  H2031   1.106   .     S
C1986  H2030   1.111   .     S
C1986  N2037   1.445   .     S
C1986  H2029   1.110   .     S
C1987  H2003   1.110   .     S
C1987  N2038   1.450   .     S
C1987  H2004   1.112   .     S
C1987  H2002   1.111   .     S
C1988  O2045   1.295   .     A
C1988  O2044   1.286   .     A
C1989  H2008   1.110   .     S
C1989  N2039   1.450   .     S
C1989  H2007   1.111   .     S
C1989  H2006   1.111   .     S
C1990  H2010   1.101   .     S
C1990  N2040   1.450   .     S
C1990  H2013   1.110   .     S
C1990  H2011   1.105   .     S
C1991  H2015   1.109   .     S
C1991  H2016   1.109   .     S
C1991  H2017   1.109   .     S
C1991  N2041   1.448   .     S
C1992  H2020   1.110   .     S
C1992  H2019   1.106   .     S
C1992  H2021   1.112   .     S
C1992  N2042   1.450   .     S
C1993  H2026   1.106   .     S
C1993  N2034   1.442   .     S
C1993  H2024   1.110   .     S
C1993  H2025   1.110   .     S
C1994  O2050   1.291   .     A
C1994  C1996   1.367   .     S
C1994  O2047   1.284   .     A
C1995  O2048   1.285   .     A
C1995  C1997   1.367   .     S
C1995  O2049   1.290   .     A
C1997  C628    1.166   1_556 S
C1998  N2036   1.427   .     S
C1999  N2037   1.425   .     S
C1999  C1826   1.388   1_655 S
C2000  N2038   1.427   .     S
C2000  C1846   1.389   1_655 S
H2001  N2036   1.030   .     S
H2005  N2039   1.029   .     S
H2009  N2040   1.029   .     S
H2014  N2041   1.029   .     S
H2018  N2042   1.026   .     S
H2022  N2034   1.031   .     S
H2028  N2037   1.030   .     S
H2032  N2038   1.028   .     S
N2033  Zn2051  2.038   .     S
N2035  Zn2052  2.038   .     S
O2043  Zn2051  1.988   .     S
O2044  Zn2052  1.988   .     S
O2045  Zn2051  1.985   .     S
O2046  Zn2052  1.985   .     S
O2047  Zn2051  1.941   .     S
O2048  Zn2052  1.941   .     S
O2049  Zn2051  1.955   .     S
O2050  Zn2052  1.955   .     S
