data_str_m1_o1_o17_pcu_sym.139
_audit_creation_date              2020-01-03
_audit_creation_method            'Materials Studio'
_symmetry_space_group_name_H-M    'P1'
_symmetry_Int_Tables_number       1
_symmetry_cell_setting            triclinic
loop_
_symmetry_equiv_pos_as_xyz
  x,y,z
_cell_length_a                    36.6312
_cell_length_b                    36.6312
_cell_length_c                    34.4477
_cell_angle_alpha                 89.9984
_cell_angle_beta                  89.9984
_cell_angle_gamma                 89.9979
loop_
_atom_site_label
_atom_site_type_symbol
_atom_site_fract_x
_atom_site_fract_y
_atom_site_fract_z
_atom_site_U_iso_or_equiv
_atom_site_adp_type
_atom_site_occupancy
C1     C     0.46680   0.25066   0.41882   0.00000  Uiso   1.00
C2     C     0.21681   0.00058   0.08118   0.00000  Uiso   1.00
C3     C     0.24937   0.03343   0.54071   0.00000  Uiso   1.00
C4     C     0.46657   0.25066   0.45930   0.00000  Uiso   1.00
C5     C     0.03343   0.24934   0.54070   0.00000  Uiso   1.00
C6     C     0.24942   0.03343   0.45929   0.00000  Uiso   1.00
C7     C     0.25058   0.46657   0.54071   0.00000  Uiso   1.00
C8     C     0.21657   0.00065   0.95930   0.00000  Uiso   1.00
C9     C     0.28343   0.49935   0.04070   0.00000  Uiso   1.00
C10    C     0.49942   0.28343   0.95929   0.00000  Uiso   1.00
C11    C     0.00058   0.21657   0.04071   0.00000  Uiso   1.00
C12    C     0.28343   0.49940   0.95929   0.00000  Uiso   1.00
C13    C     0.00063   0.21680   0.91882   0.00000  Uiso   1.00
C14    C     0.21658   0.00060   0.04071   0.00000  Uiso   1.00
C15    C     0.00063   0.21657   0.95929   0.00000  Uiso   1.00
C16    C     0.49937   0.28343   0.04071   0.00000  Uiso   1.00
C17    C     0.09809   0.34810   0.25000   0.00000  Uiso   1.00
C18    C     0.40191   0.15190   0.75000   0.00000  Uiso   1.00
C19    C     0.15191   0.09809   0.25000   0.00000  Uiso   1.00
C20    C     0.34809   0.40191   0.75000   0.00000  Uiso   1.00
C21    C     0.40190   0.15191   0.25000   0.00000  Uiso   1.00
C22    C     0.09810   0.34809   0.75000   0.00000  Uiso   1.00
C23    C     0.34809   0.40191   0.25000   0.00000  Uiso   1.00
C24    C     0.49937   0.28320   0.08118   0.00000  Uiso   1.00
C25    C     0.15191   0.09809   0.75000   0.00000  Uiso   1.00
C26    C     0.09809   0.15191   0.75000   0.00000  Uiso   1.00
C27    C     0.40191   0.34809   0.25000   0.00000  Uiso   1.00
C28    C     0.15190   0.40191   0.75000   0.00000  Uiso   1.00
C29    C     0.34810   0.09809   0.25000   0.00000  Uiso   1.00
C30    C     0.40191   0.34809   0.75000   0.00000  Uiso   1.00
C31    C     0.09809   0.15191   0.25000   0.00000  Uiso   1.00
C32    C     0.34809   0.09810   0.75000   0.00000  Uiso   1.00
C33    C     0.15191   0.40190   0.25000   0.00000  Uiso   1.00
C34    C    -0.00000   0.25001   0.47964   0.00000  Uiso   1.00
C35    C     0.21680   0.00065   0.91882   0.00000  Uiso   1.00
C36    C     0.00000   0.24999   0.52036   0.00000  Uiso   1.00
C37    C     0.25001  -0.00000   0.47964   0.00000  Uiso   1.00
C38    C     0.24999   0.00000   0.52036   0.00000  Uiso   1.00
C39    C     0.25000   0.00001   0.97964   0.00000  Uiso   1.00
C40    C     0.25000   0.49999   0.02036   0.00000  Uiso   1.00
C41    C     0.00001   0.25000   0.97964   0.00000  Uiso   1.00
C42    C     0.49999   0.25000   0.02036   0.00000  Uiso   1.00
C43    C     0.28320   0.49935   0.08118   0.00000  Uiso   1.00
C44    C     0.49944   0.28319   0.91882   0.00000  Uiso   1.00
C45    C     0.00056   0.21681   0.08118   0.00000  Uiso   1.00
C46    C    -0.00000   0.25003   0.39848   0.00000  Uiso   1.00
C47    C     0.00000   0.24997   0.60152   0.00000  Uiso   1.00
C48    C     0.25003  -0.00000   0.39848   0.00000  Uiso   1.00
C49    C     0.03320   0.24934   0.58118   0.00000  Uiso   1.00
C50    C     0.24997   0.00000   0.60152   0.00000  Uiso   1.00
C51    C     0.25000   0.00003   0.89848   0.00000  Uiso   1.00
C52    C     0.25000   0.49997   0.10152   0.00000  Uiso   1.00
C53    C     0.00003   0.25000   0.89848   0.00000  Uiso   1.00
C54    C     0.49997   0.25000   0.10152   0.00000  Uiso   1.00
C55    C     0.06650   0.24874   0.47975   0.00000  Uiso   1.00
C56    C     0.43350   0.25126   0.52025   0.00000  Uiso   1.00
C57    C     0.25123   0.43350   0.47976   0.00000  Uiso   1.00
C58    C     0.24877   0.06650   0.52024   0.00000  Uiso   1.00
C59    C     0.43350   0.25128   0.47976   0.00000  Uiso   1.00
C60    C     0.24944   0.03319   0.41882   0.00000  Uiso   1.00
C61    C     0.06650   0.24872   0.52024   0.00000  Uiso   1.00
C62    C     0.24880   0.06650   0.47975   0.00000  Uiso   1.00
C63    C     0.25120   0.43350   0.52025   0.00000  Uiso   1.00
C64    C     0.18350   0.00126   0.97976   0.00000  Uiso   1.00
C65    C     0.31650   0.49874   0.02024   0.00000  Uiso   1.00
C66    C     0.49880   0.31650   0.97975   0.00000  Uiso   1.00
C67    C     0.00120   0.18350   0.02025   0.00000  Uiso   1.00
C68    C     0.31650   0.49876   0.97975   0.00000  Uiso   1.00
C69    C     0.18350   0.00123   0.02025   0.00000  Uiso   1.00
C70    C     0.00122   0.18350   0.97976   0.00000  Uiso   1.00
C71    C     0.25056   0.46681   0.58118   0.00000  Uiso   1.00
C72    C     0.49878   0.31650   0.02024   0.00000  Uiso   1.00
C73    C     0.25001  -0.00000   0.35600   0.00000  Uiso   1.00
C74    C     0.24999   0.00000   0.64400   0.00000  Uiso   1.00
C75    C    -0.00000   0.25001   0.35600   0.00000  Uiso   1.00
C76    C     0.00000   0.24999   0.64400   0.00000  Uiso   1.00
C77    C     0.00001   0.25000   0.85600   0.00000  Uiso   1.00
C78    C     0.49999   0.25000   0.14400   0.00000  Uiso   1.00
C79    C     0.25000   0.00001   0.85600   0.00000  Uiso   1.00
C80    C     0.25000   0.49999   0.14400   0.00000  Uiso   1.00
C81    C     0.17999   0.07001   0.25000   0.00000  Uiso   1.00
C82    C     0.03319   0.24941   0.41882   0.00000  Uiso   1.00
C83    C     0.32001   0.42999   0.75000   0.00000  Uiso   1.00
C84    C     0.42999   0.18000   0.25000   0.00000  Uiso   1.00
C85    C     0.07001   0.32000   0.75000   0.00000  Uiso   1.00
C86    C     0.32001   0.42999   0.25000   0.00000  Uiso   1.00
C87    C     0.17999   0.07001   0.75000   0.00000  Uiso   1.00
C88    C     0.07000   0.32001   0.25000   0.00000  Uiso   1.00
C89    C     0.43000   0.17999   0.75000   0.00000  Uiso   1.00
C90    C     0.17999   0.43000   0.75000   0.00000  Uiso   1.00
C91    C     0.32001   0.07000   0.25000   0.00000  Uiso   1.00
C92    C     0.42999   0.32001   0.75000   0.00000  Uiso   1.00
C93    C     0.46681   0.25059   0.58118   0.00000  Uiso   1.00
C94    C     0.07001   0.17999   0.25000   0.00000  Uiso   1.00
C95    C     0.32000   0.07001   0.75000   0.00000  Uiso   1.00
C96    C     0.18000   0.42999   0.25000   0.00000  Uiso   1.00
C97    C     0.07001   0.17999   0.75000   0.00000  Uiso   1.00
C98    C     0.42999   0.32001   0.25000   0.00000  Uiso   1.00
C99    C     0.11493   0.41217   0.24875   0.00000  Uiso   1.00
C100   C     0.38508   0.08783   0.75125   0.00000  Uiso   1.00
C101   C     0.08783   0.11491   0.24878   0.00000  Uiso   1.00
C102   C     0.41217   0.38509   0.75122   0.00000  Uiso   1.00
C103   C     0.38509   0.08784   0.24874   0.00000  Uiso   1.00
C104   C     0.25063   0.46680   0.41882   0.00000  Uiso   1.00
C105   C     0.11491   0.41216   0.75125   0.00000  Uiso   1.00
C106   C     0.38923   0.36215   0.21447   0.00000  Uiso   1.00
C107   C     0.11077   0.13785   0.78553   0.00000  Uiso   1.00
C108   C     0.13785   0.11077   0.78553   0.00000  Uiso   1.00
C109   C     0.36215   0.38923   0.21447   0.00000  Uiso   1.00
C110   C     0.08783   0.38507   0.75125   0.00000  Uiso   1.00
C111   C     0.41217   0.11493   0.24875   0.00000  Uiso   1.00
C112   C     0.38509   0.41217   0.75122   0.00000  Uiso   1.00
C113   C     0.11491   0.08783   0.24878   0.00000  Uiso   1.00
C114   C     0.41216   0.11491   0.75126   0.00000  Uiso   1.00
C115   C     0.24937   0.03320   0.58118   0.00000  Uiso   1.00
C116   C     0.08784   0.38509   0.24874   0.00000  Uiso   1.00
C117   C     0.36493   0.16217   0.74875   0.00000  Uiso   1.00
C118   C     0.13508   0.33783   0.25125   0.00000  Uiso   1.00
C119   C     0.33783   0.36491   0.74878   0.00000  Uiso   1.00
C120   C     0.16217   0.13509   0.25122   0.00000  Uiso   1.00
C121   C     0.13509   0.33784   0.74875   0.00000  Uiso   1.00
C122   C     0.36491   0.16216   0.25126   0.00000  Uiso   1.00
C123   C     0.13923   0.11215   0.71447   0.00000  Uiso   1.00
C124   C     0.36077   0.38785   0.28553   0.00000  Uiso   1.00
C125   C     0.38785   0.36077   0.28553   0.00000  Uiso   1.00
C126   C     0.28319   0.49942   0.91882   0.00000  Uiso   1.00
C127   C     0.11215   0.13923   0.71447   0.00000  Uiso   1.00
C128   C     0.33783   0.13507   0.25125   0.00000  Uiso   1.00
C129   C     0.16217   0.36492   0.74875   0.00000  Uiso   1.00
C130   C     0.13509   0.16217   0.25122   0.00000  Uiso   1.00
C131   C     0.36491   0.33783   0.74878   0.00000  Uiso   1.00
C132   C     0.16216   0.36491   0.25126   0.00000  Uiso   1.00
C133   C     0.33784   0.13509   0.74875   0.00000  Uiso   1.00
C134   C     0.03343   0.24939   0.45929   0.00000  Uiso   1.00
C135   C     0.46658   0.25061   0.54071   0.00000  Uiso   1.00
C136   C     0.25063   0.46657   0.45930   0.00000  Uiso   1.00
H137   H     0.09234   0.24826   0.46445   0.00000  Uiso   1.00
H138   H     0.34234   0.49825   0.03555   0.00000  Uiso   1.00
H139   H     0.49834   0.34234   0.96445   0.00000  Uiso   1.00
H140   H     0.00166   0.15766   0.03555   0.00000  Uiso   1.00
H141   H     0.34234   0.49829   0.96445   0.00000  Uiso   1.00
H142   H     0.15766   0.00171   0.03555   0.00000  Uiso   1.00
H143   H     0.00170   0.15766   0.96445   0.00000  Uiso   1.00
H144   H     0.49830   0.34234   0.03555   0.00000  Uiso   1.00
H145   H     0.44111   0.25117   0.40320   0.00000  Uiso   1.00
H146   H     0.05889   0.24883   0.59680   0.00000  Uiso   1.00
H147   H     0.24896   0.05889   0.40320   0.00000  Uiso   1.00
H148   H     0.40766   0.25174   0.53555   0.00000  Uiso   1.00
H149   H     0.25104   0.44111   0.59680   0.00000  Uiso   1.00
H150   H     0.05889   0.24892   0.40320   0.00000  Uiso   1.00
H151   H     0.44111   0.25108   0.59680   0.00000  Uiso   1.00
H152   H     0.25112   0.44111   0.40320   0.00000  Uiso   1.00
H153   H     0.24888   0.05889   0.59680   0.00000  Uiso   1.00
H154   H     0.30889   0.49894   0.90320   0.00000  Uiso   1.00
H155   H     0.19111   0.00106   0.09680   0.00000  Uiso   1.00
H156   H     0.00112   0.19111   0.90320   0.00000  Uiso   1.00
H157   H     0.49888   0.30889   0.09680   0.00000  Uiso   1.00
H158   H     0.19111   0.00115   0.90320   0.00000  Uiso   1.00
H159   H     0.25171   0.40766   0.46445   0.00000  Uiso   1.00
H160   H     0.30889   0.49885   0.09680   0.00000  Uiso   1.00
H161   H     0.49897   0.30889   0.90320   0.00000  Uiso   1.00
H162   H     0.00103   0.19111   0.09680   0.00000  Uiso   1.00
H163   H     0.08940   0.45578   0.27316   0.00000  Uiso   1.00
H164   H     0.08979   0.45570   0.22379   0.00000  Uiso   1.00
H165   H     0.41061   0.04422   0.72684   0.00000  Uiso   1.00
H166   H     0.41021   0.04430   0.77621   0.00000  Uiso   1.00
H167   H     0.04425   0.08939   0.27323   0.00000  Uiso   1.00
H168   H     0.04431   0.08975   0.22386   0.00000  Uiso   1.00
H169   H     0.45575   0.41061   0.72677   0.00000  Uiso   1.00
H170   H     0.24829   0.09234   0.53555   0.00000  Uiso   1.00
H171   H     0.45569   0.41025   0.77614   0.00000  Uiso   1.00
H172   H     0.41066   0.04427   0.27314   0.00000  Uiso   1.00
H173   H     0.41027   0.04437   0.22377   0.00000  Uiso   1.00
H174   H     0.08934   0.45573   0.72686   0.00000  Uiso   1.00
H175   H     0.08973   0.45563   0.77623   0.00000  Uiso   1.00
H176   H     0.38180   0.33670   0.16264   0.00000  Uiso   1.00
H177   H     0.41479   0.36938   0.16270   0.00000  Uiso   1.00
H178   H     0.11820   0.16330   0.83736   0.00000  Uiso   1.00
H179   H     0.08521   0.13062   0.83730   0.00000  Uiso   1.00
H180   H     0.16330   0.11820   0.83736   0.00000  Uiso   1.00
H181   H     0.40766   0.25178   0.46445   0.00000  Uiso   1.00
H182   H     0.13062   0.08521   0.83730   0.00000  Uiso   1.00
H183   H     0.33670   0.38180   0.16264   0.00000  Uiso   1.00
H184   H     0.36938   0.41479   0.16270   0.00000  Uiso   1.00
H185   H     0.04422   0.41060   0.72684   0.00000  Uiso   1.00
H186   H     0.04430   0.41021   0.77621   0.00000  Uiso   1.00
H187   H     0.45578   0.08939   0.27316   0.00000  Uiso   1.00
H188   H     0.45570   0.08979   0.22379   0.00000  Uiso   1.00
H189   H     0.41061   0.45575   0.72677   0.00000  Uiso   1.00
H190   H     0.41025   0.45569   0.77614   0.00000  Uiso   1.00
H191   H     0.08939   0.04425   0.27323   0.00000  Uiso   1.00
H192   H     0.09234   0.24822   0.53555   0.00000  Uiso   1.00
H193   H     0.08975   0.04431   0.22386   0.00000  Uiso   1.00
H194   H     0.45573   0.08934   0.72686   0.00000  Uiso   1.00
H195   H     0.45563   0.08973   0.77623   0.00000  Uiso   1.00
H196   H     0.04427   0.41066   0.27314   0.00000  Uiso   1.00
H197   H     0.04437   0.41027   0.22377   0.00000  Uiso   1.00
H198   H     0.33940   0.20578   0.77316   0.00000  Uiso   1.00
H199   H     0.33979   0.20570   0.72379   0.00000  Uiso   1.00
H200   H     0.16060   0.29422   0.22684   0.00000  Uiso   1.00
H201   H     0.16021   0.29430   0.27621   0.00000  Uiso   1.00
H202   H     0.29425   0.33939   0.77323   0.00000  Uiso   1.00
H203   H     0.24833   0.09234   0.46445   0.00000  Uiso   1.00
H204   H     0.29431   0.33975   0.72386   0.00000  Uiso   1.00
H205   H     0.20575   0.16061   0.22677   0.00000  Uiso   1.00
H206   H     0.20569   0.16025   0.27614   0.00000  Uiso   1.00
H207   H     0.16066   0.29427   0.77314   0.00000  Uiso   1.00
H208   H     0.16027   0.29437   0.72377   0.00000  Uiso   1.00
H209   H     0.33934   0.20573   0.22686   0.00000  Uiso   1.00
H210   H     0.33973   0.20563   0.27623   0.00000  Uiso   1.00
H211   H     0.13180   0.08670   0.66264   0.00000  Uiso   1.00
H212   H     0.16479   0.11938   0.66270   0.00000  Uiso   1.00
H213   H     0.36820   0.41330   0.33736   0.00000  Uiso   1.00
H214   H     0.25167   0.40766   0.53555   0.00000  Uiso   1.00
H215   H     0.33521   0.38062   0.33730   0.00000  Uiso   1.00
H216   H     0.41330   0.36820   0.33736   0.00000  Uiso   1.00
H217   H     0.38062   0.33521   0.33730   0.00000  Uiso   1.00
H218   H     0.08670   0.13180   0.66264   0.00000  Uiso   1.00
H219   H     0.11938   0.16479   0.66270   0.00000  Uiso   1.00
H220   H     0.29422   0.16061   0.22684   0.00000  Uiso   1.00
H221   H     0.29430   0.16021   0.27621   0.00000  Uiso   1.00
H222   H     0.20578   0.33939   0.77316   0.00000  Uiso   1.00
H223   H     0.20570   0.33979   0.72379   0.00000  Uiso   1.00
H224   H     0.16061   0.20575   0.22677   0.00000  Uiso   1.00
H225   H     0.15766   0.00175   0.96445   0.00000  Uiso   1.00
H226   H     0.16025   0.20569   0.27614   0.00000  Uiso   1.00
H227   H     0.33939   0.29425   0.77323   0.00000  Uiso   1.00
H228   H     0.33975   0.29431   0.72386   0.00000  Uiso   1.00
H229   H     0.20573   0.33934   0.22686   0.00000  Uiso   1.00
H230   H     0.20563   0.33973   0.27623   0.00000  Uiso   1.00
H231   H     0.29427   0.16066   0.77314   0.00000  Uiso   1.00
H232   H     0.29437   0.16027   0.72377   0.00000  Uiso   1.00
N233   N     0.10521   0.45017   0.24862   0.00000  Uiso   1.00
N234   N     0.34796   0.40330   0.17859   0.00000  Uiso   1.00
N235   N     0.04983   0.39479   0.75137   0.00000  Uiso   1.00
N236   N     0.45017   0.10521   0.24862   0.00000  Uiso   1.00
N237   N     0.39481   0.45017   0.75132   0.00000  Uiso   1.00
N238   N     0.10519   0.04983   0.24868   0.00000  Uiso   1.00
N239   N     0.45015   0.10517   0.75139   0.00000  Uiso   1.00
N240   N     0.04986   0.39483   0.24861   0.00000  Uiso   1.00
N241   N     0.35521   0.20017   0.74862   0.00000  Uiso   1.00
N242   N     0.14479   0.29983   0.25138   0.00000  Uiso   1.00
N243   N     0.29983   0.35519   0.74868   0.00000  Uiso   1.00
N244   N     0.39479   0.04983   0.75138   0.00000  Uiso   1.00
N245   N     0.20017   0.14481   0.25132   0.00000  Uiso   1.00
N246   N     0.14483   0.29985   0.74861   0.00000  Uiso   1.00
N247   N     0.35517   0.20015   0.25139   0.00000  Uiso   1.00
N248   N     0.15330   0.09796   0.67859   0.00000  Uiso   1.00
N249   N     0.34670   0.40204   0.32141   0.00000  Uiso   1.00
N250   N     0.40204   0.34670   0.32141   0.00000  Uiso   1.00
N251   N     0.09796   0.15330   0.67859   0.00000  Uiso   1.00
N252   N     0.29983   0.14479   0.25138   0.00000  Uiso   1.00
N253   N     0.20017   0.35521   0.74863   0.00000  Uiso   1.00
N254   N     0.14481   0.20017   0.25132   0.00000  Uiso   1.00
N255   N     0.04983   0.10519   0.24868   0.00000  Uiso   1.00
N256   N     0.35519   0.29983   0.74868   0.00000  Uiso   1.00
N257   N     0.20015   0.35517   0.25139   0.00000  Uiso   1.00
N258   N     0.29986   0.14483   0.74861   0.00000  Uiso   1.00
N259   N     0.45017   0.39481   0.75132   0.00000  Uiso   1.00
N260   N     0.39483   0.04986   0.24861   0.00000  Uiso   1.00
N261   N     0.10517   0.45014   0.75139   0.00000  Uiso   1.00
N262   N     0.40330   0.34796   0.17859   0.00000  Uiso   1.00
N263   N     0.09670   0.15204   0.82141   0.00000  Uiso   1.00
N264   N     0.15204   0.09670   0.82141   0.00000  Uiso   1.00
O265   O     0.25000   0.00000   0.25000   0.00000  Uiso   1.00
O266   O     0.25000   0.46963   0.66245   0.00000  Uiso   1.00
O267   O     0.46964   0.25000   0.33755   0.00000  Uiso   1.00
O268   O     0.03037   0.25000   0.66245   0.00000  Uiso   1.00
O269   O     0.00000   0.21963   0.83755   0.00000  Uiso   1.00
O270   O     0.00000   0.28036   0.16245   0.00000  Uiso   1.00
O271   O     0.28037   0.00000   0.83755   0.00000  Uiso   1.00
O272   O     0.21964   0.00000   0.16245   0.00000  Uiso   1.00
O273   O     0.00000   0.28036   0.83755   0.00000  Uiso   1.00
O274   O     0.00000   0.21963   0.16245   0.00000  Uiso   1.00
O275   O     0.21964   0.00000   0.83755   0.00000  Uiso   1.00
O276   O     0.25000   0.00000   0.75000   0.00000  Uiso   1.00
O277   O     0.28037   0.00000   0.16245   0.00000  Uiso   1.00
O278   O     0.20725   0.07308   0.27302   0.00000  Uiso   1.00
O279   O     0.29276   0.42692   0.72698   0.00000  Uiso   1.00
O280   O     0.42693   0.20725   0.27302   0.00000  Uiso   1.00
O281   O     0.07308   0.29275   0.72698   0.00000  Uiso   1.00
O282   O     0.29276   0.42692   0.27302   0.00000  Uiso   1.00
O283   O     0.20725   0.07308   0.72698   0.00000  Uiso   1.00
O284   O     0.07308   0.29275   0.27302   0.00000  Uiso   1.00
O285   O     0.42693   0.20725   0.72698   0.00000  Uiso   1.00
O286   O     0.20725   0.42692   0.72698   0.00000  Uiso   1.00
O287   O     0.00000   0.25000   0.25000   0.00000  Uiso   1.00
O288   O     0.29276   0.07308   0.27302   0.00000  Uiso   1.00
O289   O     0.42693   0.29275   0.72698   0.00000  Uiso   1.00
O290   O     0.07308   0.20724   0.27302   0.00000  Uiso   1.00
O291   O     0.29276   0.07308   0.72698   0.00000  Uiso   1.00
O292   O     0.20725   0.42692   0.27302   0.00000  Uiso   1.00
O293   O     0.07308   0.20724   0.72698   0.00000  Uiso   1.00
O294   O     0.42693   0.29275   0.27302   0.00000  Uiso   1.00
O295   O     0.45725   0.32307   0.77302   0.00000  Uiso   1.00
O296   O     0.04276   0.17692   0.22698   0.00000  Uiso   1.00
O297   O     0.17693   0.45724   0.77302   0.00000  Uiso   1.00
O298   O     0.00000   0.25000   0.75000   0.00000  Uiso   1.00
O299   O     0.32308   0.04276   0.22698   0.00000  Uiso   1.00
O300   O     0.04276   0.17692   0.77302   0.00000  Uiso   1.00
O301   O     0.45725   0.32307   0.22698   0.00000  Uiso   1.00
O302   O     0.32308   0.04276   0.77302   0.00000  Uiso   1.00
O303   O     0.17693   0.45724   0.22698   0.00000  Uiso   1.00
O304   O     0.45725   0.17693   0.22698   0.00000  Uiso   1.00
O305   O     0.04276   0.32307   0.77302   0.00000  Uiso   1.00
O306   O     0.17693   0.04276   0.22698   0.00000  Uiso   1.00
O307   O     0.32308   0.45724   0.77302   0.00000  Uiso   1.00
O308   O     0.04276   0.32307   0.22698   0.00000  Uiso   1.00
O309   O     0.25000   0.46963   0.33755   0.00000  Uiso   1.00
O310   O     0.45725   0.17693   0.77302   0.00000  Uiso   1.00
O311   O     0.32308   0.45724   0.22698   0.00000  Uiso   1.00
O312   O     0.17693   0.04276   0.77302   0.00000  Uiso   1.00
O313   O     0.25000   0.03037   0.66245   0.00000  Uiso   1.00
O314   O     0.03037   0.25000   0.33755   0.00000  Uiso   1.00
O315   O     0.46964   0.25000   0.66245   0.00000  Uiso   1.00
O316   O     0.25000   0.03037   0.33755   0.00000  Uiso   1.00
Zn317  Zn    0.20660   0.00000   0.21735   0.00000  Uiso   1.00
Zn318  Zn    0.04341   0.25000   0.28265   0.00000  Uiso   1.00
Zn319  Zn    0.25000   0.45659   0.71735   0.00000  Uiso   1.00
Zn320  Zn    0.25000   0.04341   0.28265   0.00000  Uiso   1.00
Zn321  Zn    0.04341   0.25000   0.71735   0.00000  Uiso   1.00
Zn322  Zn    0.45660   0.25000   0.28265   0.00000  Uiso   1.00
Zn323  Zn    0.25000   0.04341   0.71735   0.00000  Uiso   1.00
Zn324  Zn    0.25000   0.45659   0.28265   0.00000  Uiso   1.00
Zn325  Zn    0.29341   0.00000   0.78265   0.00000  Uiso   1.00
Zn326  Zn    0.00000   0.20659   0.21735   0.00000  Uiso   1.00
Zn327  Zn    0.00000   0.29340   0.78265   0.00000  Uiso   1.00
Zn328  Zn    0.29341   0.00000   0.21735   0.00000  Uiso   1.00
Zn329  Zn    0.20660   0.00000   0.78265   0.00000  Uiso   1.00
Zn330  Zn    0.00000   0.29340   0.21735   0.00000  Uiso   1.00
Zn331  Zn    0.00000   0.20659   0.78265   0.00000  Uiso   1.00
Zn332  Zn    0.45660   0.25000   0.71735   0.00000  Uiso   1.00
C333   C     0.96680   0.25066   0.41882   0.00000  Uiso   1.00
C334   C     0.71681   0.00058   0.08118   0.00000  Uiso   1.00
C335   C     0.74937   0.03343   0.54071   0.00000  Uiso   1.00
C336   C     0.96657   0.25066   0.45930   0.00000  Uiso   1.00
C337   C     0.53343   0.24934   0.54070   0.00000  Uiso   1.00
C338   C     0.74942   0.03343   0.45929   0.00000  Uiso   1.00
C339   C     0.75058   0.46657   0.54071   0.00000  Uiso   1.00
C340   C     0.71657   0.00065   0.95930   0.00000  Uiso   1.00
C341   C     0.78343   0.49935   0.04070   0.00000  Uiso   1.00
C342   C     0.99942   0.28343   0.95929   0.00000  Uiso   1.00
C343   C     0.50058   0.21657   0.04071   0.00000  Uiso   1.00
C344   C     0.78343   0.49940   0.95929   0.00000  Uiso   1.00
C345   C     0.50063   0.21680   0.91882   0.00000  Uiso   1.00
C346   C     0.71658   0.00060   0.04071   0.00000  Uiso   1.00
C347   C     0.50063   0.21657   0.95929   0.00000  Uiso   1.00
C348   C     0.99937   0.28343   0.04071   0.00000  Uiso   1.00
C349   C     0.59809   0.34810   0.25000   0.00000  Uiso   1.00
C350   C     0.90191   0.15190   0.75000   0.00000  Uiso   1.00
C351   C     0.65191   0.09809   0.25000   0.00000  Uiso   1.00
C352   C     0.84809   0.40191   0.75000   0.00000  Uiso   1.00
C353   C     0.90190   0.15191   0.25000   0.00000  Uiso   1.00
C354   C     0.59810   0.34809   0.75000   0.00000  Uiso   1.00
C355   C     0.84809   0.40191   0.25000   0.00000  Uiso   1.00
C356   C     0.99937   0.28320   0.08118   0.00000  Uiso   1.00
C357   C     0.65191   0.09809   0.75000   0.00000  Uiso   1.00
C358   C     0.59809   0.15191   0.75000   0.00000  Uiso   1.00
C359   C     0.90191   0.34809   0.25000   0.00000  Uiso   1.00
C360   C     0.65190   0.40191   0.75000   0.00000  Uiso   1.00
C361   C     0.84810   0.09809   0.25000   0.00000  Uiso   1.00
C362   C     0.90191   0.34809   0.75000   0.00000  Uiso   1.00
C363   C     0.59809   0.15191   0.25000   0.00000  Uiso   1.00
C364   C     0.84809   0.09810   0.75000   0.00000  Uiso   1.00
C365   C     0.65191   0.40190   0.25000   0.00000  Uiso   1.00
C366   C     0.50000   0.25001   0.47964   0.00000  Uiso   1.00
C367   C     0.71680   0.00065   0.91882   0.00000  Uiso   1.00
C368   C     0.50000   0.24999   0.52036   0.00000  Uiso   1.00
C369   C     0.75001  -0.00000   0.47964   0.00000  Uiso   1.00
C370   C     0.74999   0.00000   0.52036   0.00000  Uiso   1.00
C371   C     0.75000   0.00001   0.97964   0.00000  Uiso   1.00
C372   C     0.75000   0.49999   0.02036   0.00000  Uiso   1.00
C373   C     0.50001   0.25000   0.97964   0.00000  Uiso   1.00
C374   C     0.99999   0.25000   0.02036   0.00000  Uiso   1.00
C375   C     0.78320   0.49935   0.08118   0.00000  Uiso   1.00
C376   C     0.99944   0.28319   0.91882   0.00000  Uiso   1.00
C377   C     0.50056   0.21681   0.08118   0.00000  Uiso   1.00
C378   C     0.50000   0.25003   0.39848   0.00000  Uiso   1.00
C379   C     0.50000   0.24997   0.60152   0.00000  Uiso   1.00
C380   C     0.75003  -0.00000   0.39848   0.00000  Uiso   1.00
C381   C     0.53320   0.24934   0.58118   0.00000  Uiso   1.00
C382   C     0.74997   0.00000   0.60152   0.00000  Uiso   1.00
C383   C     0.75000   0.00003   0.89848   0.00000  Uiso   1.00
C384   C     0.75000   0.49997   0.10152   0.00000  Uiso   1.00
C385   C     0.50003   0.25000   0.89848   0.00000  Uiso   1.00
C386   C     0.99997   0.25000   0.10152   0.00000  Uiso   1.00
C387   C     0.56650   0.24874   0.47975   0.00000  Uiso   1.00
C388   C     0.93350   0.25126   0.52025   0.00000  Uiso   1.00
C389   C     0.75123   0.43350   0.47976   0.00000  Uiso   1.00
C390   C     0.74877   0.06650   0.52024   0.00000  Uiso   1.00
C391   C     0.93350   0.25128   0.47976   0.00000  Uiso   1.00
C392   C     0.74944   0.03319   0.41882   0.00000  Uiso   1.00
C393   C     0.56650   0.24872   0.52024   0.00000  Uiso   1.00
C394   C     0.74880   0.06650   0.47975   0.00000  Uiso   1.00
C395   C     0.75120   0.43350   0.52025   0.00000  Uiso   1.00
C396   C     0.68350   0.00126   0.97976   0.00000  Uiso   1.00
C397   C     0.81650   0.49874   0.02024   0.00000  Uiso   1.00
C398   C     0.99880   0.31650   0.97975   0.00000  Uiso   1.00
C399   C     0.50120   0.18350   0.02025   0.00000  Uiso   1.00
C400   C     0.81650   0.49876   0.97975   0.00000  Uiso   1.00
C401   C     0.68350   0.00123   0.02025   0.00000  Uiso   1.00
C402   C     0.50122   0.18350   0.97976   0.00000  Uiso   1.00
C403   C     0.75056   0.46681   0.58118   0.00000  Uiso   1.00
C404   C     0.99878   0.31650   0.02024   0.00000  Uiso   1.00
C405   C     0.75001  -0.00000   0.35600   0.00000  Uiso   1.00
C406   C     0.74999   0.00000   0.64400   0.00000  Uiso   1.00
C407   C     0.50000   0.25001   0.35600   0.00000  Uiso   1.00
C408   C     0.50000   0.24999   0.64400   0.00000  Uiso   1.00
C409   C     0.50001   0.25000   0.85600   0.00000  Uiso   1.00
C410   C     0.99999   0.25000   0.14400   0.00000  Uiso   1.00
C411   C     0.75000   0.00001   0.85600   0.00000  Uiso   1.00
C412   C     0.75000   0.49999   0.14400   0.00000  Uiso   1.00
C413   C     0.67999   0.07001   0.25000   0.00000  Uiso   1.00
C414   C     0.53319   0.24941   0.41882   0.00000  Uiso   1.00
C415   C     0.82001   0.42999   0.75000   0.00000  Uiso   1.00
C416   C     0.92999   0.18000   0.25000   0.00000  Uiso   1.00
C417   C     0.57001   0.32000   0.75000   0.00000  Uiso   1.00
C418   C     0.82001   0.42999   0.25000   0.00000  Uiso   1.00
C419   C     0.67999   0.07001   0.75000   0.00000  Uiso   1.00
C420   C     0.57000   0.32001   0.25000   0.00000  Uiso   1.00
C421   C     0.93000   0.17999   0.75000   0.00000  Uiso   1.00
C422   C     0.67999   0.43000   0.75000   0.00000  Uiso   1.00
C423   C     0.82001   0.07000   0.25000   0.00000  Uiso   1.00
C424   C     0.92999   0.32001   0.75000   0.00000  Uiso   1.00
C425   C     0.96681   0.25059   0.58118   0.00000  Uiso   1.00
C426   C     0.57001   0.17999   0.25000   0.00000  Uiso   1.00
C427   C     0.82000   0.07001   0.75000   0.00000  Uiso   1.00
C428   C     0.68000   0.42999   0.25000   0.00000  Uiso   1.00
C429   C     0.57001   0.17999   0.75000   0.00000  Uiso   1.00
C430   C     0.92999   0.32001   0.25000   0.00000  Uiso   1.00
C431   C     0.61493   0.41217   0.24875   0.00000  Uiso   1.00
C432   C     0.88508   0.08783   0.75125   0.00000  Uiso   1.00
C433   C     0.58783   0.11491   0.24878   0.00000  Uiso   1.00
C434   C     0.91217   0.38509   0.75122   0.00000  Uiso   1.00
C435   C     0.88509   0.08784   0.24874   0.00000  Uiso   1.00
C436   C     0.75063   0.46680   0.41882   0.00000  Uiso   1.00
C437   C     0.61491   0.41216   0.75125   0.00000  Uiso   1.00
C438   C     0.88923   0.36215   0.21447   0.00000  Uiso   1.00
C439   C     0.61077   0.13785   0.78553   0.00000  Uiso   1.00
C440   C     0.63785   0.11077   0.78553   0.00000  Uiso   1.00
C441   C     0.86215   0.38923   0.21447   0.00000  Uiso   1.00
C442   C     0.58783   0.38507   0.75125   0.00000  Uiso   1.00
C443   C     0.91217   0.11493   0.24875   0.00000  Uiso   1.00
C444   C     0.88509   0.41217   0.75122   0.00000  Uiso   1.00
C445   C     0.61491   0.08783   0.24878   0.00000  Uiso   1.00
C446   C     0.91216   0.11491   0.75126   0.00000  Uiso   1.00
C447   C     0.74937   0.03320   0.58118   0.00000  Uiso   1.00
C448   C     0.58784   0.38509   0.24874   0.00000  Uiso   1.00
C449   C     0.86493   0.16217   0.74875   0.00000  Uiso   1.00
C450   C     0.63508   0.33783   0.25125   0.00000  Uiso   1.00
C451   C     0.83783   0.36491   0.74878   0.00000  Uiso   1.00
C452   C     0.66217   0.13509   0.25122   0.00000  Uiso   1.00
C453   C     0.63509   0.33784   0.74875   0.00000  Uiso   1.00
C454   C     0.86491   0.16216   0.25126   0.00000  Uiso   1.00
C455   C     0.63923   0.11215   0.71447   0.00000  Uiso   1.00
C456   C     0.86077   0.38785   0.28553   0.00000  Uiso   1.00
C457   C     0.88785   0.36077   0.28553   0.00000  Uiso   1.00
C458   C     0.78319   0.49942   0.91882   0.00000  Uiso   1.00
C459   C     0.61215   0.13923   0.71447   0.00000  Uiso   1.00
C460   C     0.83783   0.13507   0.25125   0.00000  Uiso   1.00
C461   C     0.66217   0.36492   0.74875   0.00000  Uiso   1.00
C462   C     0.63509   0.16217   0.25122   0.00000  Uiso   1.00
C463   C     0.86491   0.33783   0.74878   0.00000  Uiso   1.00
C464   C     0.66216   0.36491   0.25126   0.00000  Uiso   1.00
C465   C     0.83784   0.13509   0.74875   0.00000  Uiso   1.00
C466   C     0.53343   0.24939   0.45929   0.00000  Uiso   1.00
C467   C     0.96658   0.25061   0.54071   0.00000  Uiso   1.00
C468   C     0.75063   0.46657   0.45930   0.00000  Uiso   1.00
H469   H     0.59234   0.24826   0.46445   0.00000  Uiso   1.00
H470   H     0.84234   0.49825   0.03555   0.00000  Uiso   1.00
H471   H     0.99834   0.34234   0.96445   0.00000  Uiso   1.00
H472   H     0.50166   0.15766   0.03555   0.00000  Uiso   1.00
H473   H     0.84234   0.49829   0.96445   0.00000  Uiso   1.00
H474   H     0.65766   0.00171   0.03555   0.00000  Uiso   1.00
H475   H     0.50170   0.15766   0.96445   0.00000  Uiso   1.00
H476   H     0.99830   0.34234   0.03555   0.00000  Uiso   1.00
H477   H     0.94111   0.25117   0.40320   0.00000  Uiso   1.00
H478   H     0.55889   0.24883   0.59680   0.00000  Uiso   1.00
H479   H     0.74896   0.05889   0.40320   0.00000  Uiso   1.00
H480   H     0.90766   0.25174   0.53555   0.00000  Uiso   1.00
H481   H     0.75104   0.44111   0.59680   0.00000  Uiso   1.00
H482   H     0.55889   0.24892   0.40320   0.00000  Uiso   1.00
H483   H     0.94111   0.25108   0.59680   0.00000  Uiso   1.00
H484   H     0.75112   0.44111   0.40320   0.00000  Uiso   1.00
H485   H     0.74888   0.05889   0.59680   0.00000  Uiso   1.00
H486   H     0.80889   0.49894   0.90320   0.00000  Uiso   1.00
H487   H     0.69111   0.00106   0.09680   0.00000  Uiso   1.00
H488   H     0.50112   0.19111   0.90320   0.00000  Uiso   1.00
H489   H     0.99888   0.30889   0.09680   0.00000  Uiso   1.00
H490   H     0.69111   0.00115   0.90320   0.00000  Uiso   1.00
H491   H     0.75171   0.40766   0.46445   0.00000  Uiso   1.00
H492   H     0.80889   0.49885   0.09680   0.00000  Uiso   1.00
H493   H     0.99897   0.30889   0.90320   0.00000  Uiso   1.00
H494   H     0.50103   0.19111   0.09680   0.00000  Uiso   1.00
H495   H     0.58940   0.45578   0.27316   0.00000  Uiso   1.00
H496   H     0.58979   0.45570   0.22379   0.00000  Uiso   1.00
H497   H     0.91061   0.04422   0.72684   0.00000  Uiso   1.00
H498   H     0.91021   0.04430   0.77621   0.00000  Uiso   1.00
H499   H     0.54425   0.08939   0.27323   0.00000  Uiso   1.00
H500   H     0.54431   0.08975   0.22386   0.00000  Uiso   1.00
H501   H     0.95575   0.41061   0.72677   0.00000  Uiso   1.00
H502   H     0.74829   0.09234   0.53555   0.00000  Uiso   1.00
H503   H     0.95569   0.41025   0.77614   0.00000  Uiso   1.00
H504   H     0.91066   0.04427   0.27314   0.00000  Uiso   1.00
H505   H     0.91027   0.04437   0.22377   0.00000  Uiso   1.00
H506   H     0.58934   0.45573   0.72686   0.00000  Uiso   1.00
H507   H     0.58973   0.45563   0.77623   0.00000  Uiso   1.00
H508   H     0.88180   0.33670   0.16264   0.00000  Uiso   1.00
H509   H     0.91479   0.36938   0.16270   0.00000  Uiso   1.00
H510   H     0.61820   0.16330   0.83736   0.00000  Uiso   1.00
H511   H     0.58521   0.13062   0.83730   0.00000  Uiso   1.00
H512   H     0.66330   0.11820   0.83736   0.00000  Uiso   1.00
H513   H     0.90766   0.25178   0.46445   0.00000  Uiso   1.00
H514   H     0.63062   0.08521   0.83730   0.00000  Uiso   1.00
H515   H     0.83670   0.38180   0.16264   0.00000  Uiso   1.00
H516   H     0.86938   0.41479   0.16270   0.00000  Uiso   1.00
H517   H     0.54422   0.41060   0.72684   0.00000  Uiso   1.00
H518   H     0.54430   0.41021   0.77621   0.00000  Uiso   1.00
H519   H     0.95578   0.08939   0.27316   0.00000  Uiso   1.00
H520   H     0.95570   0.08979   0.22379   0.00000  Uiso   1.00
H521   H     0.91061   0.45575   0.72677   0.00000  Uiso   1.00
H522   H     0.91025   0.45569   0.77614   0.00000  Uiso   1.00
H523   H     0.58939   0.04425   0.27323   0.00000  Uiso   1.00
H524   H     0.59234   0.24822   0.53555   0.00000  Uiso   1.00
H525   H     0.58975   0.04431   0.22386   0.00000  Uiso   1.00
H526   H     0.95573   0.08934   0.72686   0.00000  Uiso   1.00
H527   H     0.95563   0.08973   0.77623   0.00000  Uiso   1.00
H528   H     0.54427   0.41066   0.27314   0.00000  Uiso   1.00
H529   H     0.54437   0.41027   0.22377   0.00000  Uiso   1.00
H530   H     0.83940   0.20578   0.77316   0.00000  Uiso   1.00
H531   H     0.83979   0.20570   0.72379   0.00000  Uiso   1.00
H532   H     0.66060   0.29422   0.22684   0.00000  Uiso   1.00
H533   H     0.66021   0.29430   0.27621   0.00000  Uiso   1.00
H534   H     0.79425   0.33939   0.77323   0.00000  Uiso   1.00
H535   H     0.74833   0.09234   0.46445   0.00000  Uiso   1.00
H536   H     0.79431   0.33975   0.72386   0.00000  Uiso   1.00
H537   H     0.70575   0.16061   0.22677   0.00000  Uiso   1.00
H538   H     0.70569   0.16025   0.27614   0.00000  Uiso   1.00
H539   H     0.66066   0.29427   0.77314   0.00000  Uiso   1.00
H540   H     0.66027   0.29437   0.72377   0.00000  Uiso   1.00
H541   H     0.83934   0.20573   0.22686   0.00000  Uiso   1.00
H542   H     0.83973   0.20563   0.27623   0.00000  Uiso   1.00
H543   H     0.63180   0.08670   0.66264   0.00000  Uiso   1.00
H544   H     0.66479   0.11938   0.66270   0.00000  Uiso   1.00
H545   H     0.86820   0.41330   0.33736   0.00000  Uiso   1.00
H546   H     0.75167   0.40766   0.53555   0.00000  Uiso   1.00
H547   H     0.83521   0.38062   0.33730   0.00000  Uiso   1.00
H548   H     0.91330   0.36820   0.33736   0.00000  Uiso   1.00
H549   H     0.88062   0.33521   0.33730   0.00000  Uiso   1.00
H550   H     0.58670   0.13180   0.66264   0.00000  Uiso   1.00
H551   H     0.61938   0.16479   0.66270   0.00000  Uiso   1.00
H552   H     0.79422   0.16061   0.22684   0.00000  Uiso   1.00
H553   H     0.79430   0.16021   0.27621   0.00000  Uiso   1.00
H554   H     0.70578   0.33939   0.77316   0.00000  Uiso   1.00
H555   H     0.70570   0.33979   0.72379   0.00000  Uiso   1.00
H556   H     0.66061   0.20575   0.22677   0.00000  Uiso   1.00
H557   H     0.65766   0.00175   0.96445   0.00000  Uiso   1.00
H558   H     0.66025   0.20569   0.27614   0.00000  Uiso   1.00
H559   H     0.83939   0.29425   0.77323   0.00000  Uiso   1.00
H560   H     0.83975   0.29431   0.72386   0.00000  Uiso   1.00
H561   H     0.70573   0.33934   0.22686   0.00000  Uiso   1.00
H562   H     0.70563   0.33973   0.27623   0.00000  Uiso   1.00
H563   H     0.79427   0.16066   0.77314   0.00000  Uiso   1.00
H564   H     0.79437   0.16027   0.72377   0.00000  Uiso   1.00
N565   N     0.60521   0.45017   0.24862   0.00000  Uiso   1.00
N566   N     0.84796   0.40330   0.17859   0.00000  Uiso   1.00
N567   N     0.54983   0.39479   0.75137   0.00000  Uiso   1.00
N568   N     0.95017   0.10521   0.24862   0.00000  Uiso   1.00
N569   N     0.89481   0.45017   0.75132   0.00000  Uiso   1.00
N570   N     0.60519   0.04983   0.24868   0.00000  Uiso   1.00
N571   N     0.95015   0.10517   0.75139   0.00000  Uiso   1.00
N572   N     0.54986   0.39483   0.24861   0.00000  Uiso   1.00
N573   N     0.85521   0.20017   0.74862   0.00000  Uiso   1.00
N574   N     0.64479   0.29983   0.25138   0.00000  Uiso   1.00
N575   N     0.79983   0.35519   0.74868   0.00000  Uiso   1.00
N576   N     0.89479   0.04983   0.75138   0.00000  Uiso   1.00
N577   N     0.70017   0.14481   0.25132   0.00000  Uiso   1.00
N578   N     0.64483   0.29985   0.74861   0.00000  Uiso   1.00
N579   N     0.85517   0.20015   0.25139   0.00000  Uiso   1.00
N580   N     0.65330   0.09796   0.67859   0.00000  Uiso   1.00
N581   N     0.84670   0.40204   0.32141   0.00000  Uiso   1.00
N582   N     0.90204   0.34670   0.32141   0.00000  Uiso   1.00
N583   N     0.59796   0.15330   0.67859   0.00000  Uiso   1.00
N584   N     0.79983   0.14479   0.25138   0.00000  Uiso   1.00
N585   N     0.70017   0.35521   0.74863   0.00000  Uiso   1.00
N586   N     0.64481   0.20017   0.25132   0.00000  Uiso   1.00
N587   N     0.54983   0.10519   0.24868   0.00000  Uiso   1.00
N588   N     0.85519   0.29983   0.74868   0.00000  Uiso   1.00
N589   N     0.70015   0.35517   0.25139   0.00000  Uiso   1.00
N590   N     0.79986   0.14483   0.74861   0.00000  Uiso   1.00
N591   N     0.95017   0.39481   0.75132   0.00000  Uiso   1.00
N592   N     0.89483   0.04986   0.24861   0.00000  Uiso   1.00
N593   N     0.60517   0.45014   0.75139   0.00000  Uiso   1.00
N594   N     0.90330   0.34796   0.17859   0.00000  Uiso   1.00
N595   N     0.59670   0.15204   0.82141   0.00000  Uiso   1.00
N596   N     0.65204   0.09670   0.82141   0.00000  Uiso   1.00
O597   O     0.75000   0.00000   0.25000   0.00000  Uiso   1.00
O598   O     0.75000   0.46963   0.66245   0.00000  Uiso   1.00
O599   O     0.96964   0.25000   0.33755   0.00000  Uiso   1.00
O600   O     0.53037   0.25000   0.66245   0.00000  Uiso   1.00
O601   O     0.50000   0.21963   0.83755   0.00000  Uiso   1.00
O602   O     0.50000   0.28036   0.16245   0.00000  Uiso   1.00
O603   O     0.78037   0.00000   0.83755   0.00000  Uiso   1.00
O604   O     0.71964   0.00000   0.16245   0.00000  Uiso   1.00
O605   O     0.50000   0.28036   0.83755   0.00000  Uiso   1.00
O606   O     0.50000   0.21963   0.16245   0.00000  Uiso   1.00
O607   O     0.71964   0.00000   0.83755   0.00000  Uiso   1.00
O608   O     0.75000   0.00000   0.75000   0.00000  Uiso   1.00
O609   O     0.78037   0.00000   0.16245   0.00000  Uiso   1.00
O610   O     0.70725   0.07308   0.27302   0.00000  Uiso   1.00
O611   O     0.79276   0.42692   0.72698   0.00000  Uiso   1.00
O612   O     0.92693   0.20725   0.27302   0.00000  Uiso   1.00
O613   O     0.57308   0.29275   0.72698   0.00000  Uiso   1.00
O614   O     0.79276   0.42692   0.27302   0.00000  Uiso   1.00
O615   O     0.70725   0.07308   0.72698   0.00000  Uiso   1.00
O616   O     0.57308   0.29275   0.27302   0.00000  Uiso   1.00
O617   O     0.92693   0.20725   0.72698   0.00000  Uiso   1.00
O618   O     0.70725   0.42692   0.72698   0.00000  Uiso   1.00
O619   O     0.50000   0.25000   0.25000   0.00000  Uiso   1.00
O620   O     0.79276   0.07308   0.27302   0.00000  Uiso   1.00
O621   O     0.92693   0.29275   0.72698   0.00000  Uiso   1.00
O622   O     0.57308   0.20724   0.27302   0.00000  Uiso   1.00
O623   O     0.79276   0.07308   0.72698   0.00000  Uiso   1.00
O624   O     0.70725   0.42692   0.27302   0.00000  Uiso   1.00
O625   O     0.57308   0.20724   0.72698   0.00000  Uiso   1.00
O626   O     0.92693   0.29275   0.27302   0.00000  Uiso   1.00
O627   O     0.95725   0.32307   0.77302   0.00000  Uiso   1.00
O628   O     0.54276   0.17692   0.22698   0.00000  Uiso   1.00
O629   O     0.67693   0.45724   0.77302   0.00000  Uiso   1.00
O630   O     0.50000   0.25000   0.75000   0.00000  Uiso   1.00
O631   O     0.82308   0.04276   0.22698   0.00000  Uiso   1.00
O632   O     0.54276   0.17692   0.77302   0.00000  Uiso   1.00
O633   O     0.95725   0.32307   0.22698   0.00000  Uiso   1.00
O634   O     0.82308   0.04276   0.77302   0.00000  Uiso   1.00
O635   O     0.67693   0.45724   0.22698   0.00000  Uiso   1.00
O636   O     0.95725   0.17693   0.22698   0.00000  Uiso   1.00
O637   O     0.54276   0.32307   0.77302   0.00000  Uiso   1.00
O638   O     0.67693   0.04276   0.22698   0.00000  Uiso   1.00
O639   O     0.82308   0.45724   0.77302   0.00000  Uiso   1.00
O640   O     0.54276   0.32307   0.22698   0.00000  Uiso   1.00
O641   O     0.75000   0.46963   0.33755   0.00000  Uiso   1.00
O642   O     0.95725   0.17693   0.77302   0.00000  Uiso   1.00
O643   O     0.82308   0.45724   0.22698   0.00000  Uiso   1.00
O644   O     0.67693   0.04276   0.77302   0.00000  Uiso   1.00
O645   O     0.75000   0.03037   0.66245   0.00000  Uiso   1.00
O646   O     0.53037   0.25000   0.33755   0.00000  Uiso   1.00
O647   O     0.96964   0.25000   0.66245   0.00000  Uiso   1.00
O648   O     0.75000   0.03037   0.33755   0.00000  Uiso   1.00
Zn649  Zn    0.70660   0.00000   0.21735   0.00000  Uiso   1.00
Zn650  Zn    0.54341   0.25000   0.28265   0.00000  Uiso   1.00
Zn651  Zn    0.75000   0.45659   0.71735   0.00000  Uiso   1.00
Zn652  Zn    0.75000   0.04341   0.28265   0.00000  Uiso   1.00
Zn653  Zn    0.54341   0.25000   0.71735   0.00000  Uiso   1.00
Zn654  Zn    0.95660   0.25000   0.28265   0.00000  Uiso   1.00
Zn655  Zn    0.75000   0.04341   0.71735   0.00000  Uiso   1.00
Zn656  Zn    0.75000   0.45659   0.28265   0.00000  Uiso   1.00
Zn657  Zn    0.79341   0.00000   0.78265   0.00000  Uiso   1.00
Zn658  Zn    0.50000   0.20659   0.21735   0.00000  Uiso   1.00
Zn659  Zn    0.50000   0.29340   0.78265   0.00000  Uiso   1.00
Zn660  Zn    0.79341   0.00000   0.21735   0.00000  Uiso   1.00
Zn661  Zn    0.70660   0.00000   0.78265   0.00000  Uiso   1.00
Zn662  Zn    0.50000   0.29340   0.21735   0.00000  Uiso   1.00
Zn663  Zn    0.50000   0.20659   0.78265   0.00000  Uiso   1.00
Zn664  Zn    0.95660   0.25000   0.71735   0.00000  Uiso   1.00
C665   C     0.46680   0.75066   0.41882   0.00000  Uiso   1.00
C666   C     0.21681   0.50058   0.08118   0.00000  Uiso   1.00
C667   C     0.24937   0.53343   0.54071   0.00000  Uiso   1.00
C668   C     0.46657   0.75066   0.45930   0.00000  Uiso   1.00
C669   C     0.03343   0.74934   0.54070   0.00000  Uiso   1.00
C670   C     0.24942   0.53343   0.45929   0.00000  Uiso   1.00
C671   C     0.25058   0.96657   0.54071   0.00000  Uiso   1.00
C672   C     0.21657   0.50065   0.95930   0.00000  Uiso   1.00
C673   C     0.28343   0.99935   0.04070   0.00000  Uiso   1.00
C674   C     0.49942   0.78343   0.95929   0.00000  Uiso   1.00
C675   C     0.00058   0.71657   0.04071   0.00000  Uiso   1.00
C676   C     0.28343   0.99940   0.95929   0.00000  Uiso   1.00
C677   C     0.00063   0.71680   0.91882   0.00000  Uiso   1.00
C678   C     0.21658   0.50060   0.04071   0.00000  Uiso   1.00
C679   C     0.00063   0.71657   0.95929   0.00000  Uiso   1.00
C680   C     0.49937   0.78343   0.04071   0.00000  Uiso   1.00
C681   C     0.09809   0.84810   0.25000   0.00000  Uiso   1.00
C682   C     0.40191   0.65190   0.75000   0.00000  Uiso   1.00
C683   C     0.15191   0.59809   0.25000   0.00000  Uiso   1.00
C684   C     0.34809   0.90191   0.75000   0.00000  Uiso   1.00
C685   C     0.40190   0.65191   0.25000   0.00000  Uiso   1.00
C686   C     0.09810   0.84809   0.75000   0.00000  Uiso   1.00
C687   C     0.34809   0.90191   0.25000   0.00000  Uiso   1.00
C688   C     0.49937   0.78320   0.08118   0.00000  Uiso   1.00
C689   C     0.15191   0.59809   0.75000   0.00000  Uiso   1.00
C690   C     0.09809   0.65191   0.75000   0.00000  Uiso   1.00
C691   C     0.40191   0.84809   0.25000   0.00000  Uiso   1.00
C692   C     0.15190   0.90191   0.75000   0.00000  Uiso   1.00
C693   C     0.34810   0.59809   0.25000   0.00000  Uiso   1.00
C694   C     0.40191   0.84809   0.75000   0.00000  Uiso   1.00
C695   C     0.09809   0.65191   0.25000   0.00000  Uiso   1.00
C696   C     0.34809   0.59810   0.75000   0.00000  Uiso   1.00
C697   C     0.15191   0.90190   0.25000   0.00000  Uiso   1.00
C698   C    -0.00000   0.75001   0.47964   0.00000  Uiso   1.00
C699   C     0.21680   0.50065   0.91882   0.00000  Uiso   1.00
C700   C     0.00000   0.74999   0.52036   0.00000  Uiso   1.00
C701   C     0.25001   0.50000   0.47964   0.00000  Uiso   1.00
C702   C     0.24999   0.50000   0.52036   0.00000  Uiso   1.00
C703   C     0.25000   0.50001   0.97964   0.00000  Uiso   1.00
C704   C     0.25000   0.99999   0.02036   0.00000  Uiso   1.00
C705   C     0.00001   0.75000   0.97964   0.00000  Uiso   1.00
C706   C     0.49999   0.75000   0.02036   0.00000  Uiso   1.00
C707   C     0.28320   0.99935   0.08118   0.00000  Uiso   1.00
C708   C     0.49944   0.78319   0.91882   0.00000  Uiso   1.00
C709   C     0.00056   0.71681   0.08118   0.00000  Uiso   1.00
C710   C    -0.00000   0.75003   0.39848   0.00000  Uiso   1.00
C711   C     0.00000   0.74997   0.60152   0.00000  Uiso   1.00
C712   C     0.25003   0.50000   0.39848   0.00000  Uiso   1.00
C713   C     0.03320   0.74934   0.58118   0.00000  Uiso   1.00
C714   C     0.24997   0.50000   0.60152   0.00000  Uiso   1.00
C715   C     0.25000   0.50003   0.89848   0.00000  Uiso   1.00
C716   C     0.25000   0.99997   0.10152   0.00000  Uiso   1.00
C717   C     0.00003   0.75000   0.89848   0.00000  Uiso   1.00
C718   C     0.49997   0.75000   0.10152   0.00000  Uiso   1.00
C719   C     0.06650   0.74874   0.47975   0.00000  Uiso   1.00
C720   C     0.43350   0.75126   0.52025   0.00000  Uiso   1.00
C721   C     0.25123   0.93350   0.47976   0.00000  Uiso   1.00
C722   C     0.24877   0.56650   0.52024   0.00000  Uiso   1.00
C723   C     0.43350   0.75128   0.47976   0.00000  Uiso   1.00
C724   C     0.24944   0.53319   0.41882   0.00000  Uiso   1.00
C725   C     0.06650   0.74872   0.52024   0.00000  Uiso   1.00
C726   C     0.24880   0.56650   0.47975   0.00000  Uiso   1.00
C727   C     0.25120   0.93350   0.52025   0.00000  Uiso   1.00
C728   C     0.18350   0.50126   0.97976   0.00000  Uiso   1.00
C729   C     0.31650   0.99874   0.02024   0.00000  Uiso   1.00
C730   C     0.49880   0.81650   0.97975   0.00000  Uiso   1.00
C731   C     0.00120   0.68350   0.02025   0.00000  Uiso   1.00
C732   C     0.31650   0.99876   0.97975   0.00000  Uiso   1.00
C733   C     0.18350   0.50123   0.02025   0.00000  Uiso   1.00
C734   C     0.00122   0.68350   0.97976   0.00000  Uiso   1.00
C735   C     0.25056   0.96681   0.58118   0.00000  Uiso   1.00
C736   C     0.49878   0.81650   0.02024   0.00000  Uiso   1.00
C737   C     0.25001   0.50000   0.35600   0.00000  Uiso   1.00
C738   C     0.24999   0.50000   0.64400   0.00000  Uiso   1.00
C739   C    -0.00000   0.75001   0.35600   0.00000  Uiso   1.00
C740   C     0.00000   0.74999   0.64400   0.00000  Uiso   1.00
C741   C     0.00001   0.75000   0.85600   0.00000  Uiso   1.00
C742   C     0.49999   0.75000   0.14400   0.00000  Uiso   1.00
C743   C     0.25000   0.50001   0.85600   0.00000  Uiso   1.00
C744   C     0.25000   0.99999   0.14400   0.00000  Uiso   1.00
C745   C     0.17999   0.57001   0.25000   0.00000  Uiso   1.00
C746   C     0.03319   0.74941   0.41882   0.00000  Uiso   1.00
C747   C     0.32001   0.92999   0.75000   0.00000  Uiso   1.00
C748   C     0.42999   0.68000   0.25000   0.00000  Uiso   1.00
C749   C     0.07001   0.82000   0.75000   0.00000  Uiso   1.00
C750   C     0.32001   0.92999   0.25000   0.00000  Uiso   1.00
C751   C     0.17999   0.57001   0.75000   0.00000  Uiso   1.00
C752   C     0.07000   0.82001   0.25000   0.00000  Uiso   1.00
C753   C     0.43000   0.67999   0.75000   0.00000  Uiso   1.00
C754   C     0.17999   0.93000   0.75000   0.00000  Uiso   1.00
C755   C     0.32001   0.57000   0.25000   0.00000  Uiso   1.00
C756   C     0.42999   0.82001   0.75000   0.00000  Uiso   1.00
C757   C     0.46681   0.75059   0.58118   0.00000  Uiso   1.00
C758   C     0.07001   0.67999   0.25000   0.00000  Uiso   1.00
C759   C     0.32000   0.57001   0.75000   0.00000  Uiso   1.00
C760   C     0.18000   0.92999   0.25000   0.00000  Uiso   1.00
C761   C     0.07001   0.67999   0.75000   0.00000  Uiso   1.00
C762   C     0.42999   0.82001   0.25000   0.00000  Uiso   1.00
C763   C     0.11493   0.91217   0.24875   0.00000  Uiso   1.00
C764   C     0.38508   0.58783   0.75125   0.00000  Uiso   1.00
C765   C     0.08783   0.61491   0.24878   0.00000  Uiso   1.00
C766   C     0.41217   0.88509   0.75122   0.00000  Uiso   1.00
C767   C     0.38509   0.58784   0.24874   0.00000  Uiso   1.00
C768   C     0.25063   0.96680   0.41882   0.00000  Uiso   1.00
C769   C     0.11491   0.91216   0.75125   0.00000  Uiso   1.00
C770   C     0.38923   0.86215   0.21447   0.00000  Uiso   1.00
C771   C     0.11077   0.63785   0.78553   0.00000  Uiso   1.00
C772   C     0.13785   0.61077   0.78553   0.00000  Uiso   1.00
C773   C     0.36215   0.88923   0.21447   0.00000  Uiso   1.00
C774   C     0.08783   0.88507   0.75125   0.00000  Uiso   1.00
C775   C     0.41217   0.61493   0.24875   0.00000  Uiso   1.00
C776   C     0.38509   0.91217   0.75122   0.00000  Uiso   1.00
C777   C     0.11491   0.58783   0.24878   0.00000  Uiso   1.00
C778   C     0.41216   0.61491   0.75126   0.00000  Uiso   1.00
C779   C     0.24937   0.53320   0.58118   0.00000  Uiso   1.00
C780   C     0.08784   0.88509   0.24874   0.00000  Uiso   1.00
C781   C     0.36493   0.66217   0.74875   0.00000  Uiso   1.00
C782   C     0.13508   0.83783   0.25125   0.00000  Uiso   1.00
C783   C     0.33783   0.86491   0.74878   0.00000  Uiso   1.00
C784   C     0.16217   0.63509   0.25122   0.00000  Uiso   1.00
C785   C     0.13509   0.83784   0.74875   0.00000  Uiso   1.00
C786   C     0.36491   0.66216   0.25126   0.00000  Uiso   1.00
C787   C     0.13923   0.61215   0.71447   0.00000  Uiso   1.00
C788   C     0.36077   0.88785   0.28553   0.00000  Uiso   1.00
C789   C     0.38785   0.86077   0.28553   0.00000  Uiso   1.00
C790   C     0.28319   0.99942   0.91882   0.00000  Uiso   1.00
C791   C     0.11215   0.63923   0.71447   0.00000  Uiso   1.00
C792   C     0.33783   0.63507   0.25125   0.00000  Uiso   1.00
C793   C     0.16217   0.86492   0.74875   0.00000  Uiso   1.00
C794   C     0.13509   0.66217   0.25122   0.00000  Uiso   1.00
C795   C     0.36491   0.83783   0.74878   0.00000  Uiso   1.00
C796   C     0.16216   0.86491   0.25126   0.00000  Uiso   1.00
C797   C     0.33784   0.63509   0.74875   0.00000  Uiso   1.00
C798   C     0.03343   0.74939   0.45929   0.00000  Uiso   1.00
C799   C     0.46658   0.75061   0.54071   0.00000  Uiso   1.00
C800   C     0.25063   0.96657   0.45930   0.00000  Uiso   1.00
H801   H     0.09234   0.74826   0.46445   0.00000  Uiso   1.00
H802   H     0.34234   0.99825   0.03555   0.00000  Uiso   1.00
H803   H     0.49834   0.84234   0.96445   0.00000  Uiso   1.00
H804   H     0.00166   0.65766   0.03555   0.00000  Uiso   1.00
H805   H     0.34234   0.99829   0.96445   0.00000  Uiso   1.00
H806   H     0.15766   0.50171   0.03555   0.00000  Uiso   1.00
H807   H     0.00170   0.65766   0.96445   0.00000  Uiso   1.00
H808   H     0.49830   0.84234   0.03555   0.00000  Uiso   1.00
H809   H     0.44111   0.75117   0.40320   0.00000  Uiso   1.00
H810   H     0.05889   0.74883   0.59680   0.00000  Uiso   1.00
H811   H     0.24896   0.55889   0.40320   0.00000  Uiso   1.00
H812   H     0.40766   0.75174   0.53555   0.00000  Uiso   1.00
H813   H     0.25104   0.94111   0.59680   0.00000  Uiso   1.00
H814   H     0.05889   0.74892   0.40320   0.00000  Uiso   1.00
H815   H     0.44111   0.75108   0.59680   0.00000  Uiso   1.00
H816   H     0.25112   0.94111   0.40320   0.00000  Uiso   1.00
H817   H     0.24888   0.55889   0.59680   0.00000  Uiso   1.00
H818   H     0.30889   0.99894   0.90320   0.00000  Uiso   1.00
H819   H     0.19111   0.50106   0.09680   0.00000  Uiso   1.00
H820   H     0.00112   0.69111   0.90320   0.00000  Uiso   1.00
H821   H     0.49888   0.80889   0.09680   0.00000  Uiso   1.00
H822   H     0.19111   0.50115   0.90320   0.00000  Uiso   1.00
H823   H     0.25171   0.90766   0.46445   0.00000  Uiso   1.00
H824   H     0.30889   0.99885   0.09680   0.00000  Uiso   1.00
H825   H     0.49897   0.80889   0.90320   0.00000  Uiso   1.00
H826   H     0.00103   0.69111   0.09680   0.00000  Uiso   1.00
H827   H     0.08940   0.95578   0.27316   0.00000  Uiso   1.00
H828   H     0.08979   0.95570   0.22379   0.00000  Uiso   1.00
H829   H     0.41061   0.54422   0.72684   0.00000  Uiso   1.00
H830   H     0.41021   0.54430   0.77621   0.00000  Uiso   1.00
H831   H     0.04425   0.58939   0.27323   0.00000  Uiso   1.00
H832   H     0.04431   0.58975   0.22386   0.00000  Uiso   1.00
H833   H     0.45575   0.91061   0.72677   0.00000  Uiso   1.00
H834   H     0.24829   0.59234   0.53555   0.00000  Uiso   1.00
H835   H     0.45569   0.91025   0.77614   0.00000  Uiso   1.00
H836   H     0.41066   0.54427   0.27314   0.00000  Uiso   1.00
H837   H     0.41027   0.54437   0.22377   0.00000  Uiso   1.00
H838   H     0.08934   0.95573   0.72686   0.00000  Uiso   1.00
H839   H     0.08973   0.95563   0.77623   0.00000  Uiso   1.00
H840   H     0.38180   0.83670   0.16264   0.00000  Uiso   1.00
H841   H     0.41479   0.86938   0.16270   0.00000  Uiso   1.00
H842   H     0.11820   0.66330   0.83736   0.00000  Uiso   1.00
H843   H     0.08521   0.63062   0.83730   0.00000  Uiso   1.00
H844   H     0.16330   0.61820   0.83736   0.00000  Uiso   1.00
H845   H     0.40766   0.75178   0.46445   0.00000  Uiso   1.00
H846   H     0.13062   0.58521   0.83730   0.00000  Uiso   1.00
H847   H     0.33670   0.88180   0.16264   0.00000  Uiso   1.00
H848   H     0.36938   0.91479   0.16270   0.00000  Uiso   1.00
H849   H     0.04422   0.91060   0.72684   0.00000  Uiso   1.00
H850   H     0.04430   0.91021   0.77621   0.00000  Uiso   1.00
H851   H     0.45578   0.58939   0.27316   0.00000  Uiso   1.00
H852   H     0.45570   0.58979   0.22379   0.00000  Uiso   1.00
H853   H     0.41061   0.95575   0.72677   0.00000  Uiso   1.00
H854   H     0.41025   0.95569   0.77614   0.00000  Uiso   1.00
H855   H     0.08939   0.54425   0.27323   0.00000  Uiso   1.00
H856   H     0.09234   0.74822   0.53555   0.00000  Uiso   1.00
H857   H     0.08975   0.54431   0.22386   0.00000  Uiso   1.00
H858   H     0.45573   0.58934   0.72686   0.00000  Uiso   1.00
H859   H     0.45563   0.58973   0.77623   0.00000  Uiso   1.00
H860   H     0.04427   0.91066   0.27314   0.00000  Uiso   1.00
H861   H     0.04437   0.91027   0.22377   0.00000  Uiso   1.00
H862   H     0.33940   0.70578   0.77316   0.00000  Uiso   1.00
H863   H     0.33979   0.70570   0.72379   0.00000  Uiso   1.00
H864   H     0.16060   0.79422   0.22684   0.00000  Uiso   1.00
H865   H     0.16021   0.79430   0.27621   0.00000  Uiso   1.00
H866   H     0.29425   0.83939   0.77323   0.00000  Uiso   1.00
H867   H     0.24833   0.59234   0.46445   0.00000  Uiso   1.00
H868   H     0.29431   0.83975   0.72386   0.00000  Uiso   1.00
H869   H     0.20575   0.66061   0.22677   0.00000  Uiso   1.00
H870   H     0.20569   0.66025   0.27614   0.00000  Uiso   1.00
H871   H     0.16066   0.79427   0.77314   0.00000  Uiso   1.00
H872   H     0.16027   0.79437   0.72377   0.00000  Uiso   1.00
H873   H     0.33934   0.70573   0.22686   0.00000  Uiso   1.00
H874   H     0.33973   0.70563   0.27623   0.00000  Uiso   1.00
H875   H     0.13180   0.58670   0.66264   0.00000  Uiso   1.00
H876   H     0.16479   0.61938   0.66270   0.00000  Uiso   1.00
H877   H     0.36820   0.91330   0.33736   0.00000  Uiso   1.00
H878   H     0.25167   0.90766   0.53555   0.00000  Uiso   1.00
H879   H     0.33521   0.88062   0.33730   0.00000  Uiso   1.00
H880   H     0.41330   0.86820   0.33736   0.00000  Uiso   1.00
H881   H     0.38062   0.83521   0.33730   0.00000  Uiso   1.00
H882   H     0.08670   0.63180   0.66264   0.00000  Uiso   1.00
H883   H     0.11938   0.66479   0.66270   0.00000  Uiso   1.00
H884   H     0.29422   0.66061   0.22684   0.00000  Uiso   1.00
H885   H     0.29430   0.66021   0.27621   0.00000  Uiso   1.00
H886   H     0.20578   0.83939   0.77316   0.00000  Uiso   1.00
H887   H     0.20570   0.83979   0.72379   0.00000  Uiso   1.00
H888   H     0.16061   0.70575   0.22677   0.00000  Uiso   1.00
H889   H     0.15766   0.50175   0.96445   0.00000  Uiso   1.00
H890   H     0.16025   0.70569   0.27614   0.00000  Uiso   1.00
H891   H     0.33939   0.79425   0.77323   0.00000  Uiso   1.00
H892   H     0.33975   0.79431   0.72386   0.00000  Uiso   1.00
H893   H     0.20573   0.83934   0.22686   0.00000  Uiso   1.00
H894   H     0.20563   0.83973   0.27623   0.00000  Uiso   1.00
H895   H     0.29427   0.66066   0.77314   0.00000  Uiso   1.00
H896   H     0.29437   0.66027   0.72377   0.00000  Uiso   1.00
N897   N     0.10521   0.95017   0.24862   0.00000  Uiso   1.00
N898   N     0.34796   0.90330   0.17859   0.00000  Uiso   1.00
N899   N     0.04983   0.89479   0.75137   0.00000  Uiso   1.00
N900   N     0.45017   0.60521   0.24862   0.00000  Uiso   1.00
N901   N     0.39481   0.95017   0.75132   0.00000  Uiso   1.00
N902   N     0.10519   0.54983   0.24868   0.00000  Uiso   1.00
N903   N     0.45015   0.60517   0.75139   0.00000  Uiso   1.00
N904   N     0.04986   0.89483   0.24861   0.00000  Uiso   1.00
N905   N     0.35521   0.70017   0.74862   0.00000  Uiso   1.00
N906   N     0.14479   0.79983   0.25138   0.00000  Uiso   1.00
N907   N     0.29983   0.85519   0.74868   0.00000  Uiso   1.00
N908   N     0.39479   0.54983   0.75138   0.00000  Uiso   1.00
N909   N     0.20017   0.64481   0.25132   0.00000  Uiso   1.00
N910   N     0.14483   0.79985   0.74861   0.00000  Uiso   1.00
N911   N     0.35517   0.70015   0.25139   0.00000  Uiso   1.00
N912   N     0.15330   0.59796   0.67859   0.00000  Uiso   1.00
N913   N     0.34670   0.90204   0.32141   0.00000  Uiso   1.00
N914   N     0.40204   0.84670   0.32141   0.00000  Uiso   1.00
N915   N     0.09796   0.65330   0.67859   0.00000  Uiso   1.00
N916   N     0.29983   0.64479   0.25138   0.00000  Uiso   1.00
N917   N     0.20017   0.85521   0.74863   0.00000  Uiso   1.00
N918   N     0.14481   0.70017   0.25132   0.00000  Uiso   1.00
N919   N     0.04983   0.60519   0.24868   0.00000  Uiso   1.00
N920   N     0.35519   0.79983   0.74868   0.00000  Uiso   1.00
N921   N     0.20015   0.85517   0.25139   0.00000  Uiso   1.00
N922   N     0.29986   0.64483   0.74861   0.00000  Uiso   1.00
N923   N     0.45017   0.89481   0.75132   0.00000  Uiso   1.00
N924   N     0.39483   0.54986   0.24861   0.00000  Uiso   1.00
N925   N     0.10517   0.95014   0.75139   0.00000  Uiso   1.00
N926   N     0.40330   0.84796   0.17859   0.00000  Uiso   1.00
N927   N     0.09670   0.65204   0.82141   0.00000  Uiso   1.00
N928   N     0.15204   0.59670   0.82141   0.00000  Uiso   1.00
O929   O     0.25000   0.50000   0.25000   0.00000  Uiso   1.00
O930   O     0.25000   0.96963   0.66245   0.00000  Uiso   1.00
O931   O     0.46964   0.75000   0.33755   0.00000  Uiso   1.00
O932   O     0.03037   0.75000   0.66245   0.00000  Uiso   1.00
O933   O     0.00000   0.71963   0.83755   0.00000  Uiso   1.00
O934   O     0.00000   0.78036   0.16245   0.00000  Uiso   1.00
O935   O     0.28037   0.50000   0.83755   0.00000  Uiso   1.00
O936   O     0.21964   0.50000   0.16245   0.00000  Uiso   1.00
O937   O     0.00000   0.78036   0.83755   0.00000  Uiso   1.00
O938   O     0.00000   0.71963   0.16245   0.00000  Uiso   1.00
O939   O     0.21964   0.50000   0.83755   0.00000  Uiso   1.00
O940   O     0.25000   0.50000   0.75000   0.00000  Uiso   1.00
O941   O     0.28037   0.50000   0.16245   0.00000  Uiso   1.00
O942   O     0.20725   0.57308   0.27302   0.00000  Uiso   1.00
O943   O     0.29276   0.92692   0.72698   0.00000  Uiso   1.00
O944   O     0.42693   0.70725   0.27302   0.00000  Uiso   1.00
O945   O     0.07308   0.79275   0.72698   0.00000  Uiso   1.00
O946   O     0.29276   0.92692   0.27302   0.00000  Uiso   1.00
O947   O     0.20725   0.57308   0.72698   0.00000  Uiso   1.00
O948   O     0.07308   0.79275   0.27302   0.00000  Uiso   1.00
O949   O     0.42693   0.70725   0.72698   0.00000  Uiso   1.00
O950   O     0.20725   0.92692   0.72698   0.00000  Uiso   1.00
O951   O     0.00000   0.75000   0.25000   0.00000  Uiso   1.00
O952   O     0.29276   0.57308   0.27302   0.00000  Uiso   1.00
O953   O     0.42693   0.79275   0.72698   0.00000  Uiso   1.00
O954   O     0.07308   0.70724   0.27302   0.00000  Uiso   1.00
O955   O     0.29276   0.57308   0.72698   0.00000  Uiso   1.00
O956   O     0.20725   0.92692   0.27302   0.00000  Uiso   1.00
O957   O     0.07308   0.70724   0.72698   0.00000  Uiso   1.00
O958   O     0.42693   0.79275   0.27302   0.00000  Uiso   1.00
O959   O     0.45725   0.82307   0.77302   0.00000  Uiso   1.00
O960   O     0.04276   0.67692   0.22698   0.00000  Uiso   1.00
O961   O     0.17693   0.95724   0.77302   0.00000  Uiso   1.00
O962   O     0.00000   0.75000   0.75000   0.00000  Uiso   1.00
O963   O     0.32308   0.54276   0.22698   0.00000  Uiso   1.00
O964   O     0.04276   0.67692   0.77302   0.00000  Uiso   1.00
O965   O     0.45725   0.82307   0.22698   0.00000  Uiso   1.00
O966   O     0.32308   0.54276   0.77302   0.00000  Uiso   1.00
O967   O     0.17693   0.95724   0.22698   0.00000  Uiso   1.00
O968   O     0.45725   0.67693   0.22698   0.00000  Uiso   1.00
O969   O     0.04276   0.82307   0.77302   0.00000  Uiso   1.00
O970   O     0.17693   0.54276   0.22698   0.00000  Uiso   1.00
O971   O     0.32308   0.95724   0.77302   0.00000  Uiso   1.00
O972   O     0.04276   0.82307   0.22698   0.00000  Uiso   1.00
O973   O     0.25000   0.96963   0.33755   0.00000  Uiso   1.00
O974   O     0.45725   0.67693   0.77302   0.00000  Uiso   1.00
O975   O     0.32308   0.95724   0.22698   0.00000  Uiso   1.00
O976   O     0.17693   0.54276   0.77302   0.00000  Uiso   1.00
O977   O     0.25000   0.53037   0.66245   0.00000  Uiso   1.00
O978   O     0.03037   0.75000   0.33755   0.00000  Uiso   1.00
O979   O     0.46964   0.75000   0.66245   0.00000  Uiso   1.00
O980   O     0.25000   0.53037   0.33755   0.00000  Uiso   1.00
Zn981  Zn    0.20660   0.50000   0.21735   0.00000  Uiso   1.00
Zn982  Zn    0.04341   0.75000   0.28265   0.00000  Uiso   1.00
Zn983  Zn    0.25000   0.95659   0.71735   0.00000  Uiso   1.00
Zn984  Zn    0.25000   0.54341   0.28265   0.00000  Uiso   1.00
Zn985  Zn    0.04341   0.75000   0.71735   0.00000  Uiso   1.00
Zn986  Zn    0.45660   0.75000   0.28265   0.00000  Uiso   1.00
Zn987  Zn    0.25000   0.54341   0.71735   0.00000  Uiso   1.00
Zn988  Zn    0.25000   0.95659   0.28265   0.00000  Uiso   1.00
Zn989  Zn    0.29341   0.50000   0.78265   0.00000  Uiso   1.00
Zn990  Zn    0.00000   0.70659   0.21735   0.00000  Uiso   1.00
Zn991  Zn    0.00000   0.79340   0.78265   0.00000  Uiso   1.00
Zn992  Zn    0.29341   0.50000   0.21735   0.00000  Uiso   1.00
Zn993  Zn    0.20660   0.50000   0.78265   0.00000  Uiso   1.00
Zn994  Zn    0.00000   0.79340   0.21735   0.00000  Uiso   1.00
Zn995  Zn    0.00000   0.70659   0.78265   0.00000  Uiso   1.00
Zn996  Zn    0.45660   0.75000   0.71735   0.00000  Uiso   1.00
C997   C     0.96680   0.75066   0.41882   0.00000  Uiso   1.00
C998   C     0.71681   0.50058   0.08118   0.00000  Uiso   1.00
C999   C     0.74937   0.53343   0.54071   0.00000  Uiso   1.00
C1000  C     0.96657   0.75066   0.45930   0.00000  Uiso   1.00
C1001  C     0.53343   0.74934   0.54070   0.00000  Uiso   1.00
C1002  C     0.74942   0.53343   0.45929   0.00000  Uiso   1.00
C1003  C     0.75058   0.96657   0.54071   0.00000  Uiso   1.00
C1004  C     0.71657   0.50065   0.95930   0.00000  Uiso   1.00
C1005  C     0.78343   0.99935   0.04070   0.00000  Uiso   1.00
C1006  C     0.99942   0.78343   0.95929   0.00000  Uiso   1.00
C1007  C     0.50058   0.71657   0.04071   0.00000  Uiso   1.00
C1008  C     0.78343   0.99940   0.95929   0.00000  Uiso   1.00
C1009  C     0.50063   0.71680   0.91882   0.00000  Uiso   1.00
C1010  C     0.71658   0.50060   0.04071   0.00000  Uiso   1.00
C1011  C     0.50063   0.71657   0.95929   0.00000  Uiso   1.00
C1012  C     0.99937   0.78343   0.04071   0.00000  Uiso   1.00
C1013  C     0.59809   0.84810   0.25000   0.00000  Uiso   1.00
C1014  C     0.90191   0.65190   0.75000   0.00000  Uiso   1.00
C1015  C     0.65191   0.59809   0.25000   0.00000  Uiso   1.00
C1016  C     0.84809   0.90191   0.75000   0.00000  Uiso   1.00
C1017  C     0.90190   0.65191   0.25000   0.00000  Uiso   1.00
C1018  C     0.59810   0.84809   0.75000   0.00000  Uiso   1.00
C1019  C     0.84809   0.90191   0.25000   0.00000  Uiso   1.00
C1020  C     0.99937   0.78320   0.08118   0.00000  Uiso   1.00
C1021  C     0.65191   0.59809   0.75000   0.00000  Uiso   1.00
C1022  C     0.59809   0.65191   0.75000   0.00000  Uiso   1.00
C1023  C     0.90191   0.84809   0.25000   0.00000  Uiso   1.00
C1024  C     0.65190   0.90191   0.75000   0.00000  Uiso   1.00
C1025  C     0.84810   0.59809   0.25000   0.00000  Uiso   1.00
C1026  C     0.90191   0.84809   0.75000   0.00000  Uiso   1.00
C1027  C     0.59809   0.65191   0.25000   0.00000  Uiso   1.00
C1028  C     0.84809   0.59810   0.75000   0.00000  Uiso   1.00
C1029  C     0.65191   0.90190   0.25000   0.00000  Uiso   1.00
C1030  C     0.50000   0.75001   0.47964   0.00000  Uiso   1.00
C1031  C     0.71680   0.50065   0.91882   0.00000  Uiso   1.00
C1032  C     0.50000   0.74999   0.52036   0.00000  Uiso   1.00
C1033  C     0.75001   0.50000   0.47964   0.00000  Uiso   1.00
C1034  C     0.74999   0.50000   0.52036   0.00000  Uiso   1.00
C1035  C     0.75000   0.50001   0.97964   0.00000  Uiso   1.00
C1036  C     0.75000   0.99999   0.02036   0.00000  Uiso   1.00
C1037  C     0.50001   0.75000   0.97964   0.00000  Uiso   1.00
C1038  C     0.99999   0.75000   0.02036   0.00000  Uiso   1.00
C1039  C     0.78320   0.99935   0.08118   0.00000  Uiso   1.00
C1040  C     0.99944   0.78319   0.91882   0.00000  Uiso   1.00
C1041  C     0.50056   0.71681   0.08118   0.00000  Uiso   1.00
C1042  C     0.50000   0.75003   0.39848   0.00000  Uiso   1.00
C1043  C     0.50000   0.74997   0.60152   0.00000  Uiso   1.00
C1044  C     0.75003   0.50000   0.39848   0.00000  Uiso   1.00
C1045  C     0.53320   0.74934   0.58118   0.00000  Uiso   1.00
C1046  C     0.74997   0.50000   0.60152   0.00000  Uiso   1.00
C1047  C     0.75000   0.50003   0.89848   0.00000  Uiso   1.00
C1048  C     0.75000   0.99997   0.10152   0.00000  Uiso   1.00
C1049  C     0.50003   0.75000   0.89848   0.00000  Uiso   1.00
C1050  C     0.99997   0.75000   0.10152   0.00000  Uiso   1.00
C1051  C     0.56650   0.74874   0.47975   0.00000  Uiso   1.00
C1052  C     0.93350   0.75126   0.52025   0.00000  Uiso   1.00
C1053  C     0.75123   0.93350   0.47976   0.00000  Uiso   1.00
C1054  C     0.74877   0.56650   0.52024   0.00000  Uiso   1.00
C1055  C     0.93350   0.75128   0.47976   0.00000  Uiso   1.00
C1056  C     0.74944   0.53319   0.41882   0.00000  Uiso   1.00
C1057  C     0.56650   0.74872   0.52024   0.00000  Uiso   1.00
C1058  C     0.74880   0.56650   0.47975   0.00000  Uiso   1.00
C1059  C     0.75120   0.93350   0.52025   0.00000  Uiso   1.00
C1060  C     0.68350   0.50126   0.97976   0.00000  Uiso   1.00
C1061  C     0.81650   0.99874   0.02024   0.00000  Uiso   1.00
C1062  C     0.99880   0.81650   0.97975   0.00000  Uiso   1.00
C1063  C     0.50120   0.68350   0.02025   0.00000  Uiso   1.00
C1064  C     0.81650   0.99876   0.97975   0.00000  Uiso   1.00
C1065  C     0.68350   0.50123   0.02025   0.00000  Uiso   1.00
C1066  C     0.50122   0.68350   0.97976   0.00000  Uiso   1.00
C1067  C     0.75056   0.96681   0.58118   0.00000  Uiso   1.00
C1068  C     0.99878   0.81650   0.02024   0.00000  Uiso   1.00
C1069  C     0.75001   0.50000   0.35600   0.00000  Uiso   1.00
C1070  C     0.74999   0.50000   0.64400   0.00000  Uiso   1.00
C1071  C     0.50000   0.75001   0.35600   0.00000  Uiso   1.00
C1072  C     0.50000   0.74999   0.64400   0.00000  Uiso   1.00
C1073  C     0.50001   0.75000   0.85600   0.00000  Uiso   1.00
C1074  C     0.99999   0.75000   0.14400   0.00000  Uiso   1.00
C1075  C     0.75000   0.50001   0.85600   0.00000  Uiso   1.00
C1076  C     0.75000   0.99999   0.14400   0.00000  Uiso   1.00
C1077  C     0.67999   0.57001   0.25000   0.00000  Uiso   1.00
C1078  C     0.53319   0.74941   0.41882   0.00000  Uiso   1.00
C1079  C     0.82001   0.92999   0.75000   0.00000  Uiso   1.00
C1080  C     0.92999   0.68000   0.25000   0.00000  Uiso   1.00
C1081  C     0.57001   0.82000   0.75000   0.00000  Uiso   1.00
C1082  C     0.82001   0.92999   0.25000   0.00000  Uiso   1.00
C1083  C     0.67999   0.57001   0.75000   0.00000  Uiso   1.00
C1084  C     0.57000   0.82001   0.25000   0.00000  Uiso   1.00
C1085  C     0.93000   0.67999   0.75000   0.00000  Uiso   1.00
C1086  C     0.67999   0.93000   0.75000   0.00000  Uiso   1.00
C1087  C     0.82001   0.57000   0.25000   0.00000  Uiso   1.00
C1088  C     0.92999   0.82001   0.75000   0.00000  Uiso   1.00
C1089  C     0.96681   0.75059   0.58118   0.00000  Uiso   1.00
C1090  C     0.57001   0.67999   0.25000   0.00000  Uiso   1.00
C1091  C     0.82000   0.57001   0.75000   0.00000  Uiso   1.00
C1092  C     0.68000   0.92999   0.25000   0.00000  Uiso   1.00
C1093  C     0.57001   0.67999   0.75000   0.00000  Uiso   1.00
C1094  C     0.92999   0.82001   0.25000   0.00000  Uiso   1.00
C1095  C     0.61493   0.91217   0.24875   0.00000  Uiso   1.00
C1096  C     0.88508   0.58783   0.75125   0.00000  Uiso   1.00
C1097  C     0.58783   0.61491   0.24878   0.00000  Uiso   1.00
C1098  C     0.91217   0.88509   0.75122   0.00000  Uiso   1.00
C1099  C     0.88509   0.58784   0.24874   0.00000  Uiso   1.00
C1100  C     0.75063   0.96680   0.41882   0.00000  Uiso   1.00
C1101  C     0.61491   0.91216   0.75125   0.00000  Uiso   1.00
C1102  C     0.88923   0.86215   0.21447   0.00000  Uiso   1.00
C1103  C     0.61077   0.63785   0.78553   0.00000  Uiso   1.00
C1104  C     0.63785   0.61077   0.78553   0.00000  Uiso   1.00
C1105  C     0.86215   0.88923   0.21447   0.00000  Uiso   1.00
C1106  C     0.58783   0.88507   0.75125   0.00000  Uiso   1.00
C1107  C     0.91217   0.61493   0.24875   0.00000  Uiso   1.00
C1108  C     0.88509   0.91217   0.75122   0.00000  Uiso   1.00
C1109  C     0.61491   0.58783   0.24878   0.00000  Uiso   1.00
C1110  C     0.91216   0.61491   0.75126   0.00000  Uiso   1.00
C1111  C     0.74937   0.53320   0.58118   0.00000  Uiso   1.00
C1112  C     0.58784   0.88509   0.24874   0.00000  Uiso   1.00
C1113  C     0.86493   0.66217   0.74875   0.00000  Uiso   1.00
C1114  C     0.63508   0.83783   0.25125   0.00000  Uiso   1.00
C1115  C     0.83783   0.86491   0.74878   0.00000  Uiso   1.00
C1116  C     0.66217   0.63509   0.25122   0.00000  Uiso   1.00
C1117  C     0.63509   0.83784   0.74875   0.00000  Uiso   1.00
C1118  C     0.86491   0.66216   0.25126   0.00000  Uiso   1.00
C1119  C     0.63923   0.61215   0.71447   0.00000  Uiso   1.00
C1120  C     0.86077   0.88785   0.28553   0.00000  Uiso   1.00
C1121  C     0.88785   0.86077   0.28553   0.00000  Uiso   1.00
C1122  C     0.78319   0.99942   0.91882   0.00000  Uiso   1.00
C1123  C     0.61215   0.63923   0.71447   0.00000  Uiso   1.00
C1124  C     0.83783   0.63507   0.25125   0.00000  Uiso   1.00
C1125  C     0.66217   0.86492   0.74875   0.00000  Uiso   1.00
C1126  C     0.63509   0.66217   0.25122   0.00000  Uiso   1.00
C1127  C     0.86491   0.83783   0.74878   0.00000  Uiso   1.00
C1128  C     0.66216   0.86491   0.25126   0.00000  Uiso   1.00
C1129  C     0.83784   0.63509   0.74875   0.00000  Uiso   1.00
C1130  C     0.53343   0.74939   0.45929   0.00000  Uiso   1.00
C1131  C     0.96658   0.75061   0.54071   0.00000  Uiso   1.00
C1132  C     0.75063   0.96657   0.45930   0.00000  Uiso   1.00
H1133  H     0.59234   0.74826   0.46445   0.00000  Uiso   1.00
H1134  H     0.84234   0.99825   0.03555   0.00000  Uiso   1.00
H1135  H     0.99834   0.84234   0.96445   0.00000  Uiso   1.00
H1136  H     0.50166   0.65766   0.03555   0.00000  Uiso   1.00
H1137  H     0.84234   0.99829   0.96445   0.00000  Uiso   1.00
H1138  H     0.65766   0.50171   0.03555   0.00000  Uiso   1.00
H1139  H     0.50170   0.65766   0.96445   0.00000  Uiso   1.00
H1140  H     0.99830   0.84234   0.03555   0.00000  Uiso   1.00
H1141  H     0.94111   0.75117   0.40320   0.00000  Uiso   1.00
H1142  H     0.55889   0.74883   0.59680   0.00000  Uiso   1.00
H1143  H     0.74896   0.55889   0.40320   0.00000  Uiso   1.00
H1144  H     0.90766   0.75174   0.53555   0.00000  Uiso   1.00
H1145  H     0.75104   0.94111   0.59680   0.00000  Uiso   1.00
H1146  H     0.55889   0.74892   0.40320   0.00000  Uiso   1.00
H1147  H     0.94111   0.75108   0.59680   0.00000  Uiso   1.00
H1148  H     0.75112   0.94111   0.40320   0.00000  Uiso   1.00
H1149  H     0.74888   0.55889   0.59680   0.00000  Uiso   1.00
H1150  H     0.80889   0.99894   0.90320   0.00000  Uiso   1.00
H1151  H     0.69111   0.50106   0.09680   0.00000  Uiso   1.00
H1152  H     0.50112   0.69111   0.90320   0.00000  Uiso   1.00
H1153  H     0.99888   0.80889   0.09680   0.00000  Uiso   1.00
H1154  H     0.69111   0.50115   0.90320   0.00000  Uiso   1.00
H1155  H     0.75171   0.90766   0.46445   0.00000  Uiso   1.00
H1156  H     0.80889   0.99885   0.09680   0.00000  Uiso   1.00
H1157  H     0.99897   0.80889   0.90320   0.00000  Uiso   1.00
H1158  H     0.50103   0.69111   0.09680   0.00000  Uiso   1.00
H1159  H     0.58940   0.95578   0.27316   0.00000  Uiso   1.00
H1160  H     0.58979   0.95570   0.22379   0.00000  Uiso   1.00
H1161  H     0.91061   0.54422   0.72684   0.00000  Uiso   1.00
H1162  H     0.91021   0.54430   0.77621   0.00000  Uiso   1.00
H1163  H     0.54425   0.58939   0.27323   0.00000  Uiso   1.00
H1164  H     0.54431   0.58975   0.22386   0.00000  Uiso   1.00
H1165  H     0.95575   0.91061   0.72677   0.00000  Uiso   1.00
H1166  H     0.74829   0.59234   0.53555   0.00000  Uiso   1.00
H1167  H     0.95569   0.91025   0.77614   0.00000  Uiso   1.00
H1168  H     0.91066   0.54427   0.27314   0.00000  Uiso   1.00
H1169  H     0.91027   0.54437   0.22377   0.00000  Uiso   1.00
H1170  H     0.58934   0.95573   0.72686   0.00000  Uiso   1.00
H1171  H     0.58973   0.95563   0.77623   0.00000  Uiso   1.00
H1172  H     0.88180   0.83670   0.16264   0.00000  Uiso   1.00
H1173  H     0.91479   0.86938   0.16270   0.00000  Uiso   1.00
H1174  H     0.61820   0.66330   0.83736   0.00000  Uiso   1.00
H1175  H     0.58521   0.63062   0.83730   0.00000  Uiso   1.00
H1176  H     0.66330   0.61820   0.83736   0.00000  Uiso   1.00
H1177  H     0.90766   0.75178   0.46445   0.00000  Uiso   1.00
H1178  H     0.63062   0.58521   0.83730   0.00000  Uiso   1.00
H1179  H     0.83670   0.88180   0.16264   0.00000  Uiso   1.00
H1180  H     0.86938   0.91479   0.16270   0.00000  Uiso   1.00
H1181  H     0.54422   0.91060   0.72684   0.00000  Uiso   1.00
H1182  H     0.54430   0.91021   0.77621   0.00000  Uiso   1.00
H1183  H     0.95578   0.58939   0.27316   0.00000  Uiso   1.00
H1184  H     0.95570   0.58979   0.22379   0.00000  Uiso   1.00
H1185  H     0.91061   0.95575   0.72677   0.00000  Uiso   1.00
H1186  H     0.91025   0.95569   0.77614   0.00000  Uiso   1.00
H1187  H     0.58939   0.54425   0.27323   0.00000  Uiso   1.00
H1188  H     0.59234   0.74822   0.53555   0.00000  Uiso   1.00
H1189  H     0.58975   0.54431   0.22386   0.00000  Uiso   1.00
H1190  H     0.95573   0.58934   0.72686   0.00000  Uiso   1.00
H1191  H     0.95563   0.58973   0.77623   0.00000  Uiso   1.00
H1192  H     0.54427   0.91066   0.27314   0.00000  Uiso   1.00
H1193  H     0.54437   0.91027   0.22377   0.00000  Uiso   1.00
H1194  H     0.83940   0.70578   0.77316   0.00000  Uiso   1.00
H1195  H     0.83979   0.70570   0.72379   0.00000  Uiso   1.00
H1196  H     0.66060   0.79422   0.22684   0.00000  Uiso   1.00
H1197  H     0.66021   0.79430   0.27621   0.00000  Uiso   1.00
H1198  H     0.79425   0.83939   0.77323   0.00000  Uiso   1.00
H1199  H     0.74833   0.59234   0.46445   0.00000  Uiso   1.00
H1200  H     0.79431   0.83975   0.72386   0.00000  Uiso   1.00
H1201  H     0.70575   0.66061   0.22677   0.00000  Uiso   1.00
H1202  H     0.70569   0.66025   0.27614   0.00000  Uiso   1.00
H1203  H     0.66066   0.79427   0.77314   0.00000  Uiso   1.00
H1204  H     0.66027   0.79437   0.72377   0.00000  Uiso   1.00
H1205  H     0.83934   0.70573   0.22686   0.00000  Uiso   1.00
H1206  H     0.83973   0.70563   0.27623   0.00000  Uiso   1.00
H1207  H     0.63180   0.58670   0.66264   0.00000  Uiso   1.00
H1208  H     0.66479   0.61938   0.66270   0.00000  Uiso   1.00
H1209  H     0.86820   0.91330   0.33736   0.00000  Uiso   1.00
H1210  H     0.75167   0.90766   0.53555   0.00000  Uiso   1.00
H1211  H     0.83521   0.88062   0.33730   0.00000  Uiso   1.00
H1212  H     0.91330   0.86820   0.33736   0.00000  Uiso   1.00
H1213  H     0.88062   0.83521   0.33730   0.00000  Uiso   1.00
H1214  H     0.58670   0.63180   0.66264   0.00000  Uiso   1.00
H1215  H     0.61938   0.66479   0.66270   0.00000  Uiso   1.00
H1216  H     0.79422   0.66061   0.22684   0.00000  Uiso   1.00
H1217  H     0.79430   0.66021   0.27621   0.00000  Uiso   1.00
H1218  H     0.70578   0.83939   0.77316   0.00000  Uiso   1.00
H1219  H     0.70570   0.83979   0.72379   0.00000  Uiso   1.00
H1220  H     0.66061   0.70575   0.22677   0.00000  Uiso   1.00
H1221  H     0.65766   0.50175   0.96445   0.00000  Uiso   1.00
H1222  H     0.66025   0.70569   0.27614   0.00000  Uiso   1.00
H1223  H     0.83939   0.79425   0.77323   0.00000  Uiso   1.00
H1224  H     0.83975   0.79431   0.72386   0.00000  Uiso   1.00
H1225  H     0.70573   0.83934   0.22686   0.00000  Uiso   1.00
H1226  H     0.70563   0.83973   0.27623   0.00000  Uiso   1.00
H1227  H     0.79427   0.66066   0.77314   0.00000  Uiso   1.00
H1228  H     0.79437   0.66027   0.72377   0.00000  Uiso   1.00
N1229  N     0.60521   0.95017   0.24862   0.00000  Uiso   1.00
N1230  N     0.84796   0.90330   0.17859   0.00000  Uiso   1.00
N1231  N     0.54983   0.89479   0.75137   0.00000  Uiso   1.00
N1232  N     0.95017   0.60521   0.24862   0.00000  Uiso   1.00
N1233  N     0.89481   0.95017   0.75132   0.00000  Uiso   1.00
N1234  N     0.60519   0.54983   0.24868   0.00000  Uiso   1.00
N1235  N     0.95015   0.60517   0.75139   0.00000  Uiso   1.00
N1236  N     0.54986   0.89483   0.24861   0.00000  Uiso   1.00
N1237  N     0.85521   0.70017   0.74862   0.00000  Uiso   1.00
N1238  N     0.64479   0.79983   0.25138   0.00000  Uiso   1.00
N1239  N     0.79983   0.85519   0.74868   0.00000  Uiso   1.00
N1240  N     0.89479   0.54983   0.75138   0.00000  Uiso   1.00
N1241  N     0.70017   0.64481   0.25132   0.00000  Uiso   1.00
N1242  N     0.64483   0.79985   0.74861   0.00000  Uiso   1.00
N1243  N     0.85517   0.70015   0.25139   0.00000  Uiso   1.00
N1244  N     0.65330   0.59796   0.67859   0.00000  Uiso   1.00
N1245  N     0.84670   0.90204   0.32141   0.00000  Uiso   1.00
N1246  N     0.90204   0.84670   0.32141   0.00000  Uiso   1.00
N1247  N     0.59796   0.65330   0.67859   0.00000  Uiso   1.00
N1248  N     0.79983   0.64479   0.25138   0.00000  Uiso   1.00
N1249  N     0.70017   0.85521   0.74863   0.00000  Uiso   1.00
N1250  N     0.64481   0.70017   0.25132   0.00000  Uiso   1.00
N1251  N     0.54983   0.60519   0.24868   0.00000  Uiso   1.00
N1252  N     0.85519   0.79983   0.74868   0.00000  Uiso   1.00
N1253  N     0.70015   0.85517   0.25139   0.00000  Uiso   1.00
N1254  N     0.79986   0.64483   0.74861   0.00000  Uiso   1.00
N1255  N     0.95017   0.89481   0.75132   0.00000  Uiso   1.00
N1256  N     0.89483   0.54986   0.24861   0.00000  Uiso   1.00
N1257  N     0.60517   0.95014   0.75139   0.00000  Uiso   1.00
N1258  N     0.90330   0.84796   0.17859   0.00000  Uiso   1.00
N1259  N     0.59670   0.65204   0.82141   0.00000  Uiso   1.00
N1260  N     0.65204   0.59670   0.82141   0.00000  Uiso   1.00
O1261  O     0.75000   0.50000   0.25000   0.00000  Uiso   1.00
O1262  O     0.75000   0.96963   0.66245   0.00000  Uiso   1.00
O1263  O     0.96964   0.75000   0.33755   0.00000  Uiso   1.00
O1264  O     0.53037   0.75000   0.66245   0.00000  Uiso   1.00
O1265  O     0.50000   0.71963   0.83755   0.00000  Uiso   1.00
O1266  O     0.50000   0.78036   0.16245   0.00000  Uiso   1.00
O1267  O     0.78037   0.50000   0.83755   0.00000  Uiso   1.00
O1268  O     0.71964   0.50000   0.16245   0.00000  Uiso   1.00
O1269  O     0.50000   0.78036   0.83755   0.00000  Uiso   1.00
O1270  O     0.50000   0.71963   0.16245   0.00000  Uiso   1.00
O1271  O     0.71964   0.50000   0.83755   0.00000  Uiso   1.00
O1272  O     0.75000   0.50000   0.75000   0.00000  Uiso   1.00
O1273  O     0.78037   0.50000   0.16245   0.00000  Uiso   1.00
O1274  O     0.70725   0.57308   0.27302   0.00000  Uiso   1.00
O1275  O     0.79276   0.92692   0.72698   0.00000  Uiso   1.00
O1276  O     0.92693   0.70725   0.27302   0.00000  Uiso   1.00
O1277  O     0.57308   0.79275   0.72698   0.00000  Uiso   1.00
O1278  O     0.79276   0.92692   0.27302   0.00000  Uiso   1.00
O1279  O     0.70725   0.57308   0.72698   0.00000  Uiso   1.00
O1280  O     0.57308   0.79275   0.27302   0.00000  Uiso   1.00
O1281  O     0.92693   0.70725   0.72698   0.00000  Uiso   1.00
O1282  O     0.70725   0.92692   0.72698   0.00000  Uiso   1.00
O1283  O     0.50000   0.75000   0.25000   0.00000  Uiso   1.00
O1284  O     0.79276   0.57308   0.27302   0.00000  Uiso   1.00
O1285  O     0.92693   0.79275   0.72698   0.00000  Uiso   1.00
O1286  O     0.57308   0.70724   0.27302   0.00000  Uiso   1.00
O1287  O     0.79276   0.57308   0.72698   0.00000  Uiso   1.00
O1288  O     0.70725   0.92692   0.27302   0.00000  Uiso   1.00
O1289  O     0.57308   0.70724   0.72698   0.00000  Uiso   1.00
O1290  O     0.92693   0.79275   0.27302   0.00000  Uiso   1.00
O1291  O     0.95725   0.82307   0.77302   0.00000  Uiso   1.00
O1292  O     0.54276   0.67692   0.22698   0.00000  Uiso   1.00
O1293  O     0.67693   0.95724   0.77302   0.00000  Uiso   1.00
O1294  O     0.50000   0.75000   0.75000   0.00000  Uiso   1.00
O1295  O     0.82308   0.54276   0.22698   0.00000  Uiso   1.00
O1296  O     0.54276   0.67692   0.77302   0.00000  Uiso   1.00
O1297  O     0.95725   0.82307   0.22698   0.00000  Uiso   1.00
O1298  O     0.82308   0.54276   0.77302   0.00000  Uiso   1.00
O1299  O     0.67693   0.95724   0.22698   0.00000  Uiso   1.00
O1300  O     0.95725   0.67693   0.22698   0.00000  Uiso   1.00
O1301  O     0.54276   0.82307   0.77302   0.00000  Uiso   1.00
O1302  O     0.67693   0.54276   0.22698   0.00000  Uiso   1.00
O1303  O     0.82308   0.95724   0.77302   0.00000  Uiso   1.00
O1304  O     0.54276   0.82307   0.22698   0.00000  Uiso   1.00
O1305  O     0.75000   0.96963   0.33755   0.00000  Uiso   1.00
O1306  O     0.95725   0.67693   0.77302   0.00000  Uiso   1.00
O1307  O     0.82308   0.95724   0.22698   0.00000  Uiso   1.00
O1308  O     0.67693   0.54276   0.77302   0.00000  Uiso   1.00
O1309  O     0.75000   0.53037   0.66245   0.00000  Uiso   1.00
O1310  O     0.53037   0.75000   0.33755   0.00000  Uiso   1.00
O1311  O     0.96964   0.75000   0.66245   0.00000  Uiso   1.00
O1312  O     0.75000   0.53037   0.33755   0.00000  Uiso   1.00
Zn1313 Zn    0.70660   0.50000   0.21735   0.00000  Uiso   1.00
Zn1314 Zn    0.54341   0.75000   0.28265   0.00000  Uiso   1.00
Zn1315 Zn    0.75000   0.95659   0.71735   0.00000  Uiso   1.00
Zn1316 Zn    0.75000   0.54341   0.28265   0.00000  Uiso   1.00
Zn1317 Zn    0.54341   0.75000   0.71735   0.00000  Uiso   1.00
Zn1318 Zn    0.95660   0.75000   0.28265   0.00000  Uiso   1.00
Zn1319 Zn    0.75000   0.54341   0.71735   0.00000  Uiso   1.00
Zn1320 Zn    0.75000   0.95659   0.28265   0.00000  Uiso   1.00
Zn1321 Zn    0.79341   0.50000   0.78265   0.00000  Uiso   1.00
Zn1322 Zn    0.50000   0.70659   0.21735   0.00000  Uiso   1.00
Zn1323 Zn    0.50000   0.79340   0.78265   0.00000  Uiso   1.00
Zn1324 Zn    0.79341   0.50000   0.21735   0.00000  Uiso   1.00
Zn1325 Zn    0.70660   0.50000   0.78265   0.00000  Uiso   1.00
Zn1326 Zn    0.50000   0.79340   0.21735   0.00000  Uiso   1.00
Zn1327 Zn    0.50000   0.70659   0.78265   0.00000  Uiso   1.00
Zn1328 Zn    0.95660   0.75000   0.71735   0.00000  Uiso   1.00
loop_
_geom_bond_atom_site_label_1
_geom_bond_atom_site_label_2
_geom_bond_distance
_geom_bond_site_symmetry_2
_ccdc_geom_bond_type
C1     C378    1.404   .     A
C1     H145    1.084   .     S
C1     C4      1.394   .     A
C2     C14     1.394   .     A
C2     H155    1.084   .     S
C2     C716    1.404   1_545 S
C3     C115    1.394   .     A
C3     C58     1.402   .     A
C3     C38     1.411   .     A
C4     C366    1.411   .     A
C4     C59     1.402   .     A
C5     C36     1.411   .     A
C5     C49     1.394   .     A
C5     C61     1.402   .     A
C6     C62     1.402   .     A
C6     C60     1.394   .     A
C6     C37     1.411   .     S
C7     C63     1.402   .     A
C7     C71     1.394   .     A
C7     C702    1.411   .     S
C8     C35     1.394   .     A
C8     C64     1.402   .     A
C8     C39     1.411   .     A
C9     C65     1.402   .     A
C9     C43     1.394   .     A
C9     C40     1.411   .     A
C10    C66     1.402   .     A
C10    C44     1.394   .     A
C10    C373    1.411   .     S
C11    C67     1.402   .     A
C11    C45     1.394   .     A
C11    C374    1.411   1_455 S
C12    C126    1.394   .     A
C12    C68     1.402   .     A
C12    C703    1.411   .     S
C13    H156    1.084   .     S
C13    C53     1.404   .     A
C13    C15     1.394   .     A
C14    C69     1.402   .     A
C14    C704    1.411   1_545 S
C15    C70     1.402   .     A
C15    C41     1.411   .     A
C16    C72     1.402   .     A
C16    C24     1.394   .     A
C16    C42     1.411   .     A
C17    C118    1.407   .     A
C17    C88     1.455   .     S
C17    C116    1.407   .     A
C18    C89     1.455   .     S
C18    C117    1.407   .     A
C18    C114    1.407   .     A
C19    C113    1.407   .     A
C19    C120    1.407   .     A
C19    C81     1.455   .     S
C20    C112    1.407   .     A
C20    C119    1.407   .     A
C20    C83     1.455   .     S
C21    C122    1.407   .     A
C21    C111    1.407   .     A
C21    C84     1.455   .     S
C22    C85     1.455   .     S
C22    C110    1.407   .     A
C22    C121    1.407   .     A
C23    C86     1.455   .     S
C23    C109    1.407   .     A
C23    C124    1.407   .     A
C24    C54     1.404   .     A
C24    H157    1.084   .     S
C25    C123    1.407   .     A
C25    C87     1.455   .     S
C25    C108    1.407   .     A
C26    C127    1.407   .     A
C26    C97     1.455   .     S
C26    C107    1.407   .     A
C27    C106    1.407   .     A
C27    C125    1.407   .     A
C27    C98     1.455   .     S
C28    C105    1.407   .     A
C28    C90     1.455   .     S
C28    C129    1.407   .     A
C29    C91     1.455   .     S
C29    C103    1.407   .     A
C29    C128    1.407   .     A
C30    C131    1.407   .     A
C30    C102    1.407   .     A
C30    C92     1.455   .     S
C31    C101    1.407   .     A
C31    C130    1.407   .     A
C31    C94     1.455   .     S
C32    C133    1.407   .     A
C32    C100    1.407   .     A
C32    C95     1.455   .     S
C33    C99     1.407   .     A
C33    C132    1.407   .     A
C33    C96     1.455   .     S
C34    C336    1.411   1_455 A
C34    C36     1.403   .     S
C34    C134    1.411   .     S
C35    C51     1.404   .     A
C35    H158    1.084   .     S
C36    C467    1.411   1_455 S
C37    C800    1.411   1_545 A
C37    C38     1.403   .     S
C38    C671    1.411   1_545 S
C39    C676    1.411   1_545 S
C39    C704    1.403   1_546 S
C40    C678    1.411   .     S
C40    C703    1.403   1_554 S
C41    C342    1.411   1_455 S
C41    C374    1.403   1_456 S
C42    C343    1.411   .     S
C42    C373    1.403   1_554 S
C43    C52     1.404   .     A
C43    H160    1.084   .     S
C44    H161    1.084   .     S
C44    C385    1.404   .     S
C45    H162    1.084   .     S
C45    C386    1.404   1_455 S
C46    C333    1.404   1_455 A
C46    C75     1.463   .     S
C46    C82     1.404   .     S
C47    C76     1.463   .     S
C47    C49     1.404   .     A
C47    C425    1.404   1_455 S
C48    C73     1.463   .     S
C48    C768    1.404   1_545 A
C48    C60     1.404   .     S
C49    H146    1.084   .     S
C50    C74     1.463   .     S
C50    C115    1.404   .     A
C50    C735    1.404   1_545 S
C51    C79     1.463   .     S
C51    C790    1.404   1_545 S
C52    C80     1.463   .     S
C52    C666    1.404   .     S
C53    C77     1.463   .     S
C53    C376    1.404   1_455 S
C54    C78     1.463   .     S
C54    C377    1.404   .     S
C55    H137    1.084   .     S
C55    C134    1.402   .     A
C55    C61     1.395   .     A
C56    C59     1.395   .     A
C56    H148    1.084   .     S
C56    C135    1.402   .     A
C57    H159    1.084   .     S
C57    C63     1.395   .     A
C57    C136    1.402   .     A
C58    C62     1.395   .     A
C58    H170    1.084   .     S
C59    H181    1.084   .     S
C60    H147    1.084   .     S
C61    H192    1.084   .     S
C62    H203    1.084   .     S
C63    H214    1.084   .     S
C64    H225    1.084   .     S
C64    C69     1.395   1_556 S
C65    H138    1.084   .     S
C65    C68     1.395   1_554 S
C66    H139    1.084   .     S
C66    C72     1.395   1_556 S
C67    H140    1.084   .     S
C67    C70     1.395   1_554 S
C68    H141    1.084   .     S
C68    C65     1.395   1_556 S
C69    H142    1.084   .     S
C69    C64     1.395   1_554 S
C70    H143    1.084   .     S
C70    C67     1.395   1_556 S
C71    H149    1.084   .     S
C71    C714    1.404   .     S
C72    H144    1.084   .     S
C72    C66     1.395   1_554 S
C73    O973    1.281   1_545 A
C73    O316    1.281   .     S
C74    O313    1.281   .     A
C74    O930    1.281   1_545 S
C75    O599    1.281   1_455 A
C75    O314    1.281   .     S
C76    O268    1.281   .     A
C76    O647    1.281   1_455 S
C77    O273    1.281   .     A
C77    O269    1.281   .     A
C78    O602    1.281   .     S
C78    O606    1.281   .     S
C79    O271    1.281   .     A
C79    O275    1.281   .     A
C80    O936    1.281   .     S
C80    O941    1.281   .     S
C81    O278    1.280   .     A
C81    O306    1.280   .     A
C82    C134    1.394   .     A
C82    H150    1.084   .     S
C83    O279    1.280   .     A
C83    O307    1.280   .     A
C84    O304    1.280   .     A
C84    O280    1.280   .     A
C85    O281    1.280   .     A
C85    O305    1.280   .     A
C86    O311    1.280   .     A
C86    O282    1.280   .     A
C87    O312    1.280   .     A
C87    O283    1.280   .     A
C88    O284    1.280   .     A
C88    O308    1.280   .     A
C89    O285    1.280   .     A
C89    O310    1.280   .     A
C90    O286    1.280   .     A
C90    O297    1.280   .     A
C91    O288    1.280   .     A
C91    O299    1.280   .     A
C92    O295    1.280   .     A
C92    O289    1.280   .     A
C93    C135    1.394   .     A
C93    H151    1.084   .     S
C93    C379    1.404   .     S
C94    O290    1.280   .     A
C94    O296    1.280   .     A
C95    O291    1.280   .     A
C95    O302    1.280   .     A
C96    O303    1.280   .     A
C96    O292    1.280   .     A
C97    O300    1.280   .     A
C97    O293    1.280   .     A
C98    O301    1.280   .     A
C98    O294    1.280   .     A
C99    C116    1.403   .     A
C99    N233    1.437   .     S
C100   N244    1.437   .     S
C100   C114    1.403   .     A
C101   C113    1.403   .     A
C101   N255    1.437   .     S
C102   C112    1.403   .     A
C102   N259    1.437   .     S
C103   N260    1.437   .     S
C103   C111    1.403   .     A
C104   H152    1.084   .     S
C104   C136    1.394   .     A
C104   C712    1.404   .     A
C105   C110    1.403   .     A
C105   N261    1.437   .     S
C106   N262    1.437   .     S
C106   C109    1.403   .     A
C107   C108    1.403   .     A
C107   N263    1.437   .     S
C108   N264    1.437   .     S
C109   N234    1.437   .     S
C110   N235    1.437   .     S
C111   N236    1.437   .     S
C112   N237    1.437   .     S
C113   N238    1.437   .     S
C114   N239    1.437   .     S
C115   H153    1.084   .     S
C116   N240    1.437   .     S
C117   C133    1.403   .     A
C117   N241    1.437   .     S
C118   C132    1.403   .     A
C118   N242    1.437   .     S
C119   C131    1.403   .     A
C119   N243    1.437   .     S
C120   C130    1.403   .     A
C120   N245    1.437   .     S
C121   N246    1.437   .     S
C121   C129    1.403   .     A
C122   N247    1.437   .     S
C122   C128    1.403   .     A
C123   C127    1.403   .     A
C123   N248    1.437   .     S
C124   N249    1.437   .     S
C124   C125    1.403   .     A
C125   N250    1.437   .     S
C126   H154    1.084   .     S
C126   C715    1.404   .     S
C127   N251    1.437   .     S
C128   N252    1.437   .     S
C129   N253    1.437   .     S
C130   N254    1.437   .     S
C131   N256    1.437   .     S
C132   N257    1.437   .     S
C133   N258    1.437   .     S
C135   C368    1.411   .     S
C136   C701    1.411   .     A
H163   N233    1.045   .     S
H164   N233    1.045   .     S
H165   N244    1.045   .     S
H166   N244    1.045   .     S
H167   N255    1.045   .     S
H168   N255    1.045   .     S
H169   N259    1.045   .     S
H171   N259    1.045   .     S
H172   N260    1.045   .     S
H173   N260    1.045   .     S
H174   N261    1.045   .     S
H175   N261    1.045   .     S
H176   N262    1.045   .     S
H177   N262    1.045   .     S
H178   N263    1.045   .     S
H179   N263    1.045   .     S
H180   N264    1.045   .     S
H182   N264    1.045   .     S
H183   N234    1.045   .     S
H184   N234    1.045   .     S
H185   N235    1.045   .     S
H186   N235    1.045   .     S
H187   N236    1.045   .     S
H188   N236    1.045   .     S
H189   N237    1.045   .     S
H190   N237    1.045   .     S
H191   N238    1.045   .     S
H193   N238    1.045   .     S
H194   N239    1.045   .     S
H195   N239    1.045   .     S
H196   N240    1.045   .     S
H197   N240    1.045   .     S
H198   N241    1.045   .     S
H199   N241    1.045   .     S
H200   N242    1.045   .     S
H201   N242    1.045   .     S
H202   N243    1.045   .     S
H204   N243    1.045   .     S
H205   N245    1.045   .     S
H206   N245    1.045   .     S
H207   N246    1.045   .     S
H208   N246    1.045   .     S
H209   N247    1.045   .     S
H210   N247    1.045   .     S
H211   N248    1.045   .     S
H212   N248    1.045   .     S
H213   N249    1.045   .     S
H215   N249    1.045   .     S
H216   N250    1.045   .     S
H217   N250    1.045   .     S
H218   N251    1.045   .     S
H219   N251    1.045   .     S
H220   N252    1.045   .     S
H221   N252    1.045   .     S
H222   N253    1.045   .     S
H223   N253    1.045   .     S
H224   N254    1.045   .     S
H226   N254    1.045   .     S
H227   N256    1.045   .     S
H228   N256    1.045   .     S
H229   N257    1.045   .     S
H230   N257    1.045   .     S
H231   N258    1.045   .     S
H232   N258    1.045   .     S
O265   Zn320   1.948   .     S
O265   Zn317   1.948   .     S
O265   Zn328   1.948   .     S
O265   Zn988   1.948   1_545 S
O266   Zn319   1.951   .     S
O266   C738    1.281   .     S
O267   C407    1.281   .     A
O267   Zn322   1.951   .     S
O268   Zn321   1.951   .     S
O269   Zn331   1.951   .     S
O270   Zn330   1.951   .     S
O270   C410    1.281   1_455 S
O271   Zn325   1.951   .     S
O272   Zn317   1.951   .     S
O272   C744    1.281   1_545 S
O273   Zn327   1.951   .     S
O274   Zn326   1.951   .     S
O274   C410    1.281   1_455 S
O275   Zn329   1.951   .     S
O276   Zn323   1.948   .     S
O276   Zn325   1.948   .     S
O276   Zn329   1.948   .     S
O276   Zn983   1.948   1_545 S
O277   Zn328   1.951   .     S
O277   C744    1.281   1_545 S
O278   Zn320   1.935   .     S
O279   Zn319   1.935   .     S
O280   Zn322   1.935   .     S
O281   Zn321   1.935   .     S
O282   Zn324   1.935   .     S
O283   Zn323   1.935   .     S
O284   Zn318   1.935   .     S
O285   Zn332   1.935   .     S
O286   Zn319   1.935   .     S
O287   Zn326   1.948   .     S
O287   Zn318   1.948   .     S
O287   Zn330   1.948   .     S
O287   Zn654   1.948   1_455 S
O288   Zn320   1.935   .     S
O289   Zn332   1.935   .     S
O290   Zn318   1.935   .     S
O291   Zn323   1.935   .     S
O292   Zn324   1.935   .     S
O293   Zn321   1.935   .     S
O294   Zn322   1.935   .     S
O295   Zn659   1.935   .     S
O296   Zn326   1.935   .     S
O297   Zn993   1.935   .     S
O298   Zn321   1.948   .     S
O298   Zn327   1.948   .     S
O298   Zn331   1.948   .     S
O298   Zn664   1.948   1_455 S
O299   Zn328   1.935   .     S
O300   Zn331   1.935   .     S
O301   Zn662   1.935   .     S
O302   Zn325   1.935   .     S
O303   Zn981   1.935   .     S
O304   Zn658   1.935   .     S
O305   Zn327   1.935   .     S
O306   Zn317   1.935   .     S
O307   Zn989   1.935   .     S
O308   Zn330   1.935   .     S
O309   Zn324   1.951   .     S
O309   C737    1.281   .     A
O310   Zn663   1.935   .     S
O311   Zn992   1.935   .     S
O312   Zn329   1.935   .     S
O313   Zn323   1.951   .     S
O314   Zn318   1.951   .     S
O315   Zn332   1.951   .     S
O315   C408    1.281   .     S
O316   Zn320   1.951   .     S
Zn317  O967    1.935   1_545 S
Zn319  O940    1.948   .     S
Zn322  O619    1.948   .     S
Zn324  O929    1.948   .     S
Zn325  O971    1.935   1_545 S
Zn326  O636    1.935   1_455 S
Zn327  O627    1.935   1_455 S
Zn328  O975    1.935   1_545 S
Zn329  O961    1.935   1_545 S
Zn330  O633    1.935   1_455 S
Zn331  O642    1.935   1_455 S
Zn332  O630    1.948   .     S
C333   C46     1.404   1_655 A
C333   H477    1.084   .     S
C333   C336    1.394   .     A
C334   C346    1.394   .     A
C334   H487    1.084   .     S
C334   C1048   1.404   1_545 S
C335   C447    1.394   .     A
C335   C390    1.402   .     A
C335   C370    1.411   .     A
C336   C34     1.411   1_655 A
C336   C391    1.402   .     A
C337   C368    1.411   .     A
C337   C381    1.394   .     A
C337   C393    1.402   .     A
C338   C394    1.402   .     A
C338   C392    1.394   .     A
C338   C369    1.411   .     S
C339   C395    1.402   .     A
C339   C403    1.394   .     A
C339   C1034   1.411   .     S
C340   C367    1.394   .     A
C340   C396    1.402   .     A
C340   C371    1.411   .     A
C341   C397    1.402   .     A
C341   C375    1.394   .     A
C341   C372    1.411   .     A
C342   C398    1.402   .     A
C342   C376    1.394   .     A
C342   C41     1.411   1_655 S
C343   C399    1.402   .     A
C343   C377    1.394   .     A
C344   C458    1.394   .     A
C344   C400    1.402   .     A
C344   C1035   1.411   .     S
C345   H488    1.084   .     S
C345   C385    1.404   .     A
C345   C347    1.394   .     A
C346   C401    1.402   .     A
C346   C1036   1.411   1_545 S
C347   C402    1.402   .     A
C347   C373    1.411   .     A
C348   C404    1.402   .     A
C348   C356    1.394   .     A
C348   C374    1.411   .     A
C349   C450    1.407   .     A
C349   C420    1.455   .     S
C349   C448    1.407   .     A
C350   C421    1.455   .     S
C350   C449    1.407   .     A
C350   C446    1.407   .     A
C351   C445    1.407   .     A
C351   C452    1.407   .     A
C351   C413    1.455   .     S
C352   C444    1.407   .     A
C352   C451    1.407   .     A
C352   C415    1.455   .     S
C353   C454    1.407   .     A
C353   C443    1.407   .     A
C353   C416    1.455   .     S
C354   C417    1.455   .     S
C354   C442    1.407   .     A
C354   C453    1.407   .     A
C355   C418    1.455   .     S
C355   C441    1.407   .     A
C355   C456    1.407   .     A
C356   C386    1.404   .     A
C356   H489    1.084   .     S
C357   C455    1.407   .     A
C357   C419    1.455   .     S
C357   C440    1.407   .     A
C358   C459    1.407   .     A
C358   C429    1.455   .     S
C358   C439    1.407   .     A
C359   C438    1.407   .     A
C359   C457    1.407   .     A
C359   C430    1.455   .     S
C360   C437    1.407   .     A
C360   C422    1.455   .     S
C360   C461    1.407   .     A
C361   C423    1.455   .     S
C361   C435    1.407   .     A
C361   C460    1.407   .     A
C362   C463    1.407   .     A
C362   C434    1.407   .     A
C362   C424    1.455   .     S
C363   C433    1.407   .     A
C363   C462    1.407   .     A
C363   C426    1.455   .     S
C364   C465    1.407   .     A
C364   C432    1.407   .     A
C364   C427    1.455   .     S
C365   C431    1.407   .     A
C365   C464    1.407   .     A
C365   C428    1.455   .     S
C366   C368    1.403   .     S
C366   C466    1.411   .     S
C367   C383    1.404   .     A
C367   H490    1.084   .     S
C369   C1132   1.411   1_545 A
C369   C370    1.403   .     S
C370   C1003   1.411   1_545 S
C371   C1008   1.411   1_545 S
C371   C1036   1.403   1_546 S
C372   C1010   1.411   .     S
C372   C1035   1.403   1_554 S
C373   C42     1.403   1_556 S
C374   C11     1.411   1_655 S
C374   C41     1.403   1_654 S
C375   C384    1.404   .     A
C375   H492    1.084   .     S
C376   H493    1.084   .     S
C376   C53     1.404   1_655 S
C377   H494    1.084   .     S
C378   C407    1.463   .     S
C378   C414    1.404   .     S
C379   C408    1.463   .     S
C379   C381    1.404   .     A
C380   C405    1.463   .     S
C380   C1100   1.404   1_545 A
C380   C392    1.404   .     S
C381   H478    1.084   .     S
C382   C406    1.463   .     S
C382   C447    1.404   .     A
C382   C1067   1.404   1_545 S
C383   C411    1.463   .     S
C383   C1122   1.404   1_545 S
C384   C412    1.463   .     S
C384   C998    1.404   .     S
C385   C409    1.463   .     S
C386   C410    1.463   .     S
C386   C45     1.404   1_655 S
C387   H469    1.084   .     S
C387   C466    1.402   .     A
C387   C393    1.395   .     A
C388   C391    1.395   .     A
C388   H480    1.084   .     S
C388   C467    1.402   .     A
C389   H491    1.084   .     S
C389   C395    1.395   .     A
C389   C468    1.402   .     A
C390   C394    1.395   .     A
C390   H502    1.084   .     S
C391   H513    1.084   .     S
C392   H479    1.084   .     S
C393   H524    1.084   .     S
C394   H535    1.084   .     S
C395   H546    1.084   .     S
C396   H557    1.084   .     S
C396   C401    1.395   1_556 S
C397   H470    1.084   .     S
C397   C400    1.395   1_554 S
C398   H471    1.084   .     S
C398   C404    1.395   1_556 S
C399   H472    1.084   .     S
C399   C402    1.395   1_554 S
C400   H473    1.084   .     S
C400   C397    1.395   1_556 S
C401   H474    1.084   .     S
C401   C396    1.395   1_554 S
C402   H475    1.084   .     S
C402   C399    1.395   1_556 S
C403   H481    1.084   .     S
C403   C1046   1.404   .     S
C404   H476    1.084   .     S
C404   C398    1.395   1_554 S
C405   O1305   1.281   1_545 A
C405   O648    1.281   .     S
C406   O645    1.281   .     A
C406   O1262   1.281   1_545 S
C407   O646    1.281   .     S
C408   O600    1.281   .     A
C409   O605    1.281   .     A
C409   O601    1.281   .     A
C410   O270    1.281   1_655 S
C410   O274    1.281   1_655 S
C411   O603    1.281   .     A
C411   O607    1.281   .     A
C412   O1268   1.281   .     S
C412   O1273   1.281   .     S
C413   O610    1.280   .     A
C413   O638    1.280   .     A
C414   C466    1.394   .     A
C414   H482    1.084   .     S
C415   O611    1.280   .     A
C415   O639    1.280   .     A
C416   O636    1.280   .     A
C416   O612    1.280   .     A
C417   O613    1.280   .     A
C417   O637    1.280   .     A
C418   O643    1.280   .     A
C418   O614    1.280   .     A
C419   O644    1.280   .     A
C419   O615    1.280   .     A
C420   O616    1.280   .     A
C420   O640    1.280   .     A
C421   O617    1.280   .     A
C421   O642    1.280   .     A
C422   O618    1.280   .     A
C422   O629    1.280   .     A
C423   O620    1.280   .     A
C423   O631    1.280   .     A
C424   O627    1.280   .     A
C424   O621    1.280   .     A
C425   C467    1.394   .     A
C425   H483    1.084   .     S
C425   C47     1.404   1_655 S
C426   O622    1.280   .     A
C426   O628    1.280   .     A
C427   O623    1.280   .     A
C427   O634    1.280   .     A
C428   O635    1.280   .     A
C428   O624    1.280   .     A
C429   O632    1.280   .     A
C429   O625    1.280   .     A
C430   O633    1.280   .     A
C430   O626    1.280   .     A
C431   C448    1.403   .     A
C431   N565    1.437   .     S
C432   N576    1.437   .     S
C432   C446    1.403   .     A
C433   C445    1.403   .     A
C433   N587    1.437   .     S
C434   C444    1.403   .     A
C434   N591    1.437   .     S
C435   N592    1.437   .     S
C435   C443    1.403   .     A
C436   H484    1.084   .     S
C436   C468    1.394   .     A
C436   C1044   1.404   .     A
C437   C442    1.403   .     A
C437   N593    1.437   .     S
C438   N594    1.437   .     S
C438   C441    1.403   .     A
C439   C440    1.403   .     A
C439   N595    1.437   .     S
C440   N596    1.437   .     S
C441   N566    1.437   .     S
C442   N567    1.437   .     S
C443   N568    1.437   .     S
C444   N569    1.437   .     S
C445   N570    1.437   .     S
C446   N571    1.437   .     S
C447   H485    1.084   .     S
C448   N572    1.437   .     S
C449   C465    1.403   .     A
C449   N573    1.437   .     S
C450   C464    1.403   .     A
C450   N574    1.437   .     S
C451   C463    1.403   .     A
C451   N575    1.437   .     S
C452   C462    1.403   .     A
C452   N577    1.437   .     S
C453   N578    1.437   .     S
C453   C461    1.403   .     A
C454   N579    1.437   .     S
C454   C460    1.403   .     A
C455   C459    1.403   .     A
C455   N580    1.437   .     S
C456   N581    1.437   .     S
C456   C457    1.403   .     A
C457   N582    1.437   .     S
C458   H486    1.084   .     S
C458   C1047   1.404   .     S
C459   N583    1.437   .     S
C460   N584    1.437   .     S
C461   N585    1.437   .     S
C462   N586    1.437   .     S
C463   N588    1.437   .     S
C464   N589    1.437   .     S
C465   N590    1.437   .     S
C467   C36     1.411   1_655 S
C468   C1033   1.411   .     A
H495   N565    1.045   .     S
H496   N565    1.045   .     S
H497   N576    1.045   .     S
H498   N576    1.045   .     S
H499   N587    1.045   .     S
H500   N587    1.045   .     S
H501   N591    1.045   .     S
H503   N591    1.045   .     S
H504   N592    1.045   .     S
H505   N592    1.045   .     S
H506   N593    1.045   .     S
H507   N593    1.045   .     S
H508   N594    1.045   .     S
H509   N594    1.045   .     S
H510   N595    1.045   .     S
H511   N595    1.045   .     S
H512   N596    1.045   .     S
H514   N596    1.045   .     S
H515   N566    1.045   .     S
H516   N566    1.045   .     S
H517   N567    1.045   .     S
H518   N567    1.045   .     S
H519   N568    1.045   .     S
H520   N568    1.045   .     S
H521   N569    1.045   .     S
H522   N569    1.045   .     S
H523   N570    1.045   .     S
H525   N570    1.045   .     S
H526   N571    1.045   .     S
H527   N571    1.045   .     S
H528   N572    1.045   .     S
H529   N572    1.045   .     S
H530   N573    1.045   .     S
H531   N573    1.045   .     S
H532   N574    1.045   .     S
H533   N574    1.045   .     S
H534   N575    1.045   .     S
H536   N575    1.045   .     S
H537   N577    1.045   .     S
H538   N577    1.045   .     S
H539   N578    1.045   .     S
H540   N578    1.045   .     S
H541   N579    1.045   .     S
H542   N579    1.045   .     S
H543   N580    1.045   .     S
H544   N580    1.045   .     S
H545   N581    1.045   .     S
H547   N581    1.045   .     S
H548   N582    1.045   .     S
H549   N582    1.045   .     S
H550   N583    1.045   .     S
H551   N583    1.045   .     S
H552   N584    1.045   .     S
H553   N584    1.045   .     S
H554   N585    1.045   .     S
H555   N585    1.045   .     S
H556   N586    1.045   .     S
H558   N586    1.045   .     S
H559   N588    1.045   .     S
H560   N588    1.045   .     S
H561   N589    1.045   .     S
H562   N589    1.045   .     S
H563   N590    1.045   .     S
H564   N590    1.045   .     S
O597   Zn652   1.948   .     S
O597   Zn649   1.948   .     S
O597   Zn660   1.948   .     S
O597   Zn1320  1.948   1_545 S
O598   Zn651   1.951   .     S
O598   C1070   1.281   .     S
O599   C75     1.281   1_655 A
O599   Zn654   1.951   .     S
O600   Zn653   1.951   .     S
O601   Zn663   1.951   .     S
O602   Zn662   1.951   .     S
O603   Zn657   1.951   .     S
O604   Zn649   1.951   .     S
O604   C1076   1.281   1_545 S
O605   Zn659   1.951   .     S
O606   Zn658   1.951   .     S
O607   Zn661   1.951   .     S
O608   Zn655   1.948   .     S
O608   Zn657   1.948   .     S
O608   Zn661   1.948   .     S
O608   Zn1315  1.948   1_545 S
O609   Zn660   1.951   .     S
O609   C1076   1.281   1_545 S
O610   Zn652   1.935   .     S
O611   Zn651   1.935   .     S
O612   Zn654   1.935   .     S
O613   Zn653   1.935   .     S
O614   Zn656   1.935   .     S
O615   Zn655   1.935   .     S
O616   Zn650   1.935   .     S
O617   Zn664   1.935   .     S
O618   Zn651   1.935   .     S
O619   Zn658   1.948   .     S
O619   Zn650   1.948   .     S
O619   Zn662   1.948   .     S
O620   Zn652   1.935   .     S
O621   Zn664   1.935   .     S
O622   Zn650   1.935   .     S
O623   Zn655   1.935   .     S
O624   Zn656   1.935   .     S
O625   Zn653   1.935   .     S
O626   Zn654   1.935   .     S
O627   Zn327   1.935   1_655 S
O628   Zn658   1.935   .     S
O629   Zn1325  1.935   .     S
O630   Zn653   1.948   .     S
O630   Zn659   1.948   .     S
O630   Zn663   1.948   .     S
O631   Zn660   1.935   .     S
O632   Zn663   1.935   .     S
O633   Zn330   1.935   1_655 S
O634   Zn657   1.935   .     S
O635   Zn1313  1.935   .     S
O636   Zn326   1.935   1_655 S
O637   Zn659   1.935   .     S
O638   Zn649   1.935   .     S
O639   Zn1321  1.935   .     S
O640   Zn662   1.935   .     S
O641   Zn656   1.951   .     S
O641   C1069   1.281   .     A
O642   Zn331   1.935   1_655 S
O643   Zn1324  1.935   .     S
O644   Zn661   1.935   .     S
O645   Zn655   1.951   .     S
O646   Zn650   1.951   .     S
O647   Zn664   1.951   .     S
O647   C76     1.281   1_655 S
O648   Zn652   1.951   .     S
Zn649  O1299   1.935   1_545 S
Zn651  O1272   1.948   .     S
Zn654  O287    1.948   1_655 S
Zn656  O1261   1.948   .     S
Zn657  O1303   1.935   1_545 S
Zn660  O1307   1.935   1_545 S
Zn661  O1293   1.935   1_545 S
Zn664  O298    1.948   1_655 S
C665   C1042   1.404   .     A
C665   H809    1.084   .     S
C665   C668    1.394   .     A
C666   C678    1.394   .     A
C666   H819    1.084   .     S
C667   C779    1.394   .     A
C667   C722    1.402   .     A
C667   C702    1.411   .     A
C668   C1030   1.411   .     A
C668   C723    1.402   .     A
C669   C700    1.411   .     A
C669   C713    1.394   .     A
C669   C725    1.402   .     A
C670   C726    1.402   .     A
C670   C724    1.394   .     A
C670   C701    1.411   .     S
C671   C727    1.402   .     A
C671   C735    1.394   .     A
C671   C38     1.411   1_565 S
C672   C699    1.394   .     A
C672   C728    1.402   .     A
C672   C703    1.411   .     A
C673   C729    1.402   .     A
C673   C707    1.394   .     A
C673   C704    1.411   .     A
C674   C730    1.402   .     A
C674   C708    1.394   .     A
C674   C1037   1.411   .     S
C675   C731    1.402   .     A
C675   C709    1.394   .     A
C675   C1038   1.411   1_455 S
C676   C790    1.394   .     A
C676   C732    1.402   .     A
C676   C39     1.411   1_565 S
C677   H820    1.084   .     S
C677   C717    1.404   .     A
C677   C679    1.394   .     A
C678   C733    1.402   .     A
C679   C734    1.402   .     A
C679   C705    1.411   .     A
C680   C736    1.402   .     A
C680   C688    1.394   .     A
C680   C706    1.411   .     A
C681   C782    1.407   .     A
C681   C752    1.455   .     S
C681   C780    1.407   .     A
C682   C753    1.455   .     S
C682   C781    1.407   .     A
C682   C778    1.407   .     A
C683   C777    1.407   .     A
C683   C784    1.407   .     A
C683   C745    1.455   .     S
C684   C776    1.407   .     A
C684   C783    1.407   .     A
C684   C747    1.455   .     S
C685   C786    1.407   .     A
C685   C775    1.407   .     A
C685   C748    1.455   .     S
C686   C749    1.455   .     S
C686   C774    1.407   .     A
C686   C785    1.407   .     A
C687   C750    1.455   .     S
C687   C773    1.407   .     A
C687   C788    1.407   .     A
C688   C718    1.404   .     A
C688   H821    1.084   .     S
C689   C787    1.407   .     A
C689   C751    1.455   .     S
C689   C772    1.407   .     A
C690   C791    1.407   .     A
C690   C761    1.455   .     S
C690   C771    1.407   .     A
C691   C770    1.407   .     A
C691   C789    1.407   .     A
C691   C762    1.455   .     S
C692   C769    1.407   .     A
C692   C754    1.455   .     S
C692   C793    1.407   .     A
C693   C755    1.455   .     S
C693   C767    1.407   .     A
C693   C792    1.407   .     A
C694   C795    1.407   .     A
C694   C766    1.407   .     A
C694   C756    1.455   .     S
C695   C765    1.407   .     A
C695   C794    1.407   .     A
C695   C758    1.455   .     S
C696   C797    1.407   .     A
C696   C764    1.407   .     A
C696   C759    1.455   .     S
C697   C763    1.407   .     A
C697   C796    1.407   .     A
C697   C760    1.455   .     S
C698   C1000   1.411   1_455 A
C698   C700    1.403   .     S
C698   C798    1.411   .     S
C699   C715    1.404   .     A
C699   H822    1.084   .     S
C700   C1131   1.411   1_455 S
C701   C702    1.403   .     S
C703   C40     1.403   1_556 S
C704   C14     1.411   1_565 S
C704   C39     1.403   1_564 S
C705   C1006   1.411   1_455 S
C705   C1038   1.403   1_456 S
C706   C1007   1.411   .     S
C706   C1037   1.403   1_554 S
C707   C716    1.404   .     A
C707   H824    1.084   .     S
C708   H825    1.084   .     S
C708   C1049   1.404   .     S
C709   H826    1.084   .     S
C709   C1050   1.404   1_455 S
C710   C997    1.404   1_455 A
C710   C739    1.463   .     S
C710   C746    1.404   .     S
C711   C740    1.463   .     S
C711   C713    1.404   .     A
C711   C1089   1.404   1_455 S
C712   C737    1.463   .     S
C712   C724    1.404   .     S
C713   H810    1.084   .     S
C714   C738    1.463   .     S
C714   C779    1.404   .     A
C715   C743    1.463   .     S
C716   C744    1.463   .     S
C716   C2      1.404   1_565 S
C717   C741    1.463   .     S
C717   C1040   1.404   1_455 S
C718   C742    1.463   .     S
C718   C1041   1.404   .     S
C719   H801    1.084   .     S
C719   C798    1.402   .     A
C719   C725    1.395   .     A
C720   C723    1.395   .     A
C720   H812    1.084   .     S
C720   C799    1.402   .     A
C721   H823    1.084   .     S
C721   C727    1.395   .     A
C721   C800    1.402   .     A
C722   C726    1.395   .     A
C722   H834    1.084   .     S
C723   H845    1.084   .     S
C724   H811    1.084   .     S
C725   H856    1.084   .     S
C726   H867    1.084   .     S
C727   H878    1.084   .     S
C728   H889    1.084   .     S
C728   C733    1.395   1_556 S
C729   H802    1.084   .     S
C729   C732    1.395   1_554 S
C730   H803    1.084   .     S
C730   C736    1.395   1_556 S
C731   H804    1.084   .     S
C731   C734    1.395   1_554 S
C732   H805    1.084   .     S
C732   C729    1.395   1_556 S
C733   H806    1.084   .     S
C733   C728    1.395   1_554 S
C734   H807    1.084   .     S
C734   C731    1.395   1_556 S
C735   H813    1.084   .     S
C735   C50     1.404   1_565 S
C736   H808    1.084   .     S
C736   C730    1.395   1_554 S
C737   O980    1.281   .     S
C738   O977    1.281   .     A
C739   O1263   1.281   1_455 A
C739   O978    1.281   .     S
C740   O932    1.281   .     A
C740   O1311   1.281   1_455 S
C741   O937    1.281   .     A
C741   O933    1.281   .     A
C742   O1266   1.281   .     S
C742   O1270   1.281   .     S
C743   O935    1.281   .     A
C743   O939    1.281   .     A
C744   O272    1.281   1_565 S
C744   O277    1.281   1_565 S
C745   O942    1.280   .     A
C745   O970    1.280   .     A
C746   C798    1.394   .     A
C746   H814    1.084   .     S
C747   O943    1.280   .     A
C747   O971    1.280   .     A
C748   O968    1.280   .     A
C748   O944    1.280   .     A
C749   O945    1.280   .     A
C749   O969    1.280   .     A
C750   O975    1.280   .     A
C750   O946    1.280   .     A
C751   O976    1.280   .     A
C751   O947    1.280   .     A
C752   O948    1.280   .     A
C752   O972    1.280   .     A
C753   O949    1.280   .     A
C753   O974    1.280   .     A
C754   O950    1.280   .     A
C754   O961    1.280   .     A
C755   O952    1.280   .     A
C755   O963    1.280   .     A
C756   O959    1.280   .     A
C756   O953    1.280   .     A
C757   C799    1.394   .     A
C757   H815    1.084   .     S
C757   C1043   1.404   .     S
C758   O954    1.280   .     A
C758   O960    1.280   .     A
C759   O955    1.280   .     A
C759   O966    1.280   .     A
C760   O967    1.280   .     A
C760   O956    1.280   .     A
C761   O964    1.280   .     A
C761   O957    1.280   .     A
C762   O965    1.280   .     A
C762   O958    1.280   .     A
C763   C780    1.403   .     A
C763   N897    1.437   .     S
C764   N908    1.437   .     S
C764   C778    1.403   .     A
C765   C777    1.403   .     A
C765   N919    1.437   .     S
C766   C776    1.403   .     A
C766   N923    1.437   .     S
C767   N924    1.437   .     S
C767   C775    1.403   .     A
C768   H816    1.084   .     S
C768   C800    1.394   .     A
C768   C48     1.404   1_565 A
C769   C774    1.403   .     A
C769   N925    1.437   .     S
C770   N926    1.437   .     S
C770   C773    1.403   .     A
C771   C772    1.403   .     A
C771   N927    1.437   .     S
C772   N928    1.437   .     S
C773   N898    1.437   .     S
C774   N899    1.437   .     S
C775   N900    1.437   .     S
C776   N901    1.437   .     S
C777   N902    1.437   .     S
C778   N903    1.437   .     S
C779   H817    1.084   .     S
C780   N904    1.437   .     S
C781   C797    1.403   .     A
C781   N905    1.437   .     S
C782   C796    1.403   .     A
C782   N906    1.437   .     S
C783   C795    1.403   .     A
C783   N907    1.437   .     S
C784   C794    1.403   .     A
C784   N909    1.437   .     S
C785   N910    1.437   .     S
C785   C793    1.403   .     A
C786   N911    1.437   .     S
C786   C792    1.403   .     A
C787   C791    1.403   .     A
C787   N912    1.437   .     S
C788   N913    1.437   .     S
C788   C789    1.403   .     A
C789   N914    1.437   .     S
C790   H818    1.084   .     S
C790   C51     1.404   1_565 S
C791   N915    1.437   .     S
C792   N916    1.437   .     S
C793   N917    1.437   .     S
C794   N918    1.437   .     S
C795   N920    1.437   .     S
C796   N921    1.437   .     S
C797   N922    1.437   .     S
C799   C1032   1.411   .     S
C800   C37     1.411   1_565 A
H827   N897    1.045   .     S
H828   N897    1.045   .     S
H829   N908    1.045   .     S
H830   N908    1.045   .     S
H831   N919    1.045   .     S
H832   N919    1.045   .     S
H833   N923    1.045   .     S
H835   N923    1.045   .     S
H836   N924    1.045   .     S
H837   N924    1.045   .     S
H838   N925    1.045   .     S
H839   N925    1.045   .     S
H840   N926    1.045   .     S
H841   N926    1.045   .     S
H842   N927    1.045   .     S
H843   N927    1.045   .     S
H844   N928    1.045   .     S
H846   N928    1.045   .     S
H847   N898    1.045   .     S
H848   N898    1.045   .     S
H849   N899    1.045   .     S
H850   N899    1.045   .     S
H851   N900    1.045   .     S
H852   N900    1.045   .     S
H853   N901    1.045   .     S
H854   N901    1.045   .     S
H855   N902    1.045   .     S
H857   N902    1.045   .     S
H858   N903    1.045   .     S
H859   N903    1.045   .     S
H860   N904    1.045   .     S
H861   N904    1.045   .     S
H862   N905    1.045   .     S
H863   N905    1.045   .     S
H864   N906    1.045   .     S
H865   N906    1.045   .     S
H866   N907    1.045   .     S
H868   N907    1.045   .     S
H869   N909    1.045   .     S
H870   N909    1.045   .     S
H871   N910    1.045   .     S
H872   N910    1.045   .     S
H873   N911    1.045   .     S
H874   N911    1.045   .     S
H875   N912    1.045   .     S
H876   N912    1.045   .     S
H877   N913    1.045   .     S
H879   N913    1.045   .     S
H880   N914    1.045   .     S
H881   N914    1.045   .     S
H882   N915    1.045   .     S
H883   N915    1.045   .     S
H884   N916    1.045   .     S
H885   N916    1.045   .     S
H886   N917    1.045   .     S
H887   N917    1.045   .     S
H888   N918    1.045   .     S
H890   N918    1.045   .     S
H891   N920    1.045   .     S
H892   N920    1.045   .     S
H893   N921    1.045   .     S
H894   N921    1.045   .     S
H895   N922    1.045   .     S
H896   N922    1.045   .     S
O929   Zn984   1.948   .     S
O929   Zn981   1.948   .     S
O929   Zn992   1.948   .     S
O930   Zn983   1.951   .     S
O930   C74     1.281   1_565 S
O931   C1071   1.281   .     A
O931   Zn986   1.951   .     S
O932   Zn985   1.951   .     S
O933   Zn995   1.951   .     S
O934   Zn994   1.951   .     S
O934   C1074   1.281   1_455 S
O935   Zn989   1.951   .     S
O936   Zn981   1.951   .     S
O937   Zn991   1.951   .     S
O938   Zn990   1.951   .     S
O938   C1074   1.281   1_455 S
O939   Zn993   1.951   .     S
O940   Zn987   1.948   .     S
O940   Zn989   1.948   .     S
O940   Zn993   1.948   .     S
O941   Zn992   1.951   .     S
O942   Zn984   1.935   .     S
O943   Zn983   1.935   .     S
O944   Zn986   1.935   .     S
O945   Zn985   1.935   .     S
O946   Zn988   1.935   .     S
O947   Zn987   1.935   .     S
O948   Zn982   1.935   .     S
O949   Zn996   1.935   .     S
O950   Zn983   1.935   .     S
O951   Zn990   1.948   .     S
O951   Zn982   1.948   .     S
O951   Zn994   1.948   .     S
O951   Zn1318  1.948   1_455 S
O952   Zn984   1.935   .     S
O953   Zn996   1.935   .     S
O954   Zn982   1.935   .     S
O955   Zn987   1.935   .     S
O956   Zn988   1.935   .     S
O957   Zn985   1.935   .     S
O958   Zn986   1.935   .     S
O959   Zn1323  1.935   .     S
O960   Zn990   1.935   .     S
O961   Zn329   1.935   1_565 S
O962   Zn985   1.948   .     S
O962   Zn991   1.948   .     S
O962   Zn995   1.948   .     S
O962   Zn1328  1.948   1_455 S
O963   Zn992   1.935   .     S
O964   Zn995   1.935   .     S
O965   Zn1326  1.935   .     S
O966   Zn989   1.935   .     S
O967   Zn317   1.935   1_565 S
O968   Zn1322  1.935   .     S
O969   Zn991   1.935   .     S
O970   Zn981   1.935   .     S
O971   Zn325   1.935   1_565 S
O972   Zn994   1.935   .     S
O973   Zn988   1.951   .     S
O973   C73     1.281   1_565 A
O974   Zn1327  1.935   .     S
O975   Zn328   1.935   1_565 S
O976   Zn993   1.935   .     S
O977   Zn987   1.951   .     S
O978   Zn982   1.951   .     S
O979   Zn996   1.951   .     S
O979   C1072   1.281   .     S
O980   Zn984   1.951   .     S
Zn983  O276    1.948   1_565 S
Zn986  O1283   1.948   .     S
Zn988  O265    1.948   1_565 S
Zn990  O1300   1.935   1_455 S
Zn991  O1291   1.935   1_455 S
Zn994  O1297   1.935   1_455 S
Zn995  O1306   1.935   1_455 S
Zn996  O1294   1.948   .     S
C997   C710    1.404   1_655 A
C997   H1141   1.084   .     S
C997   C1000   1.394   .     A
C998   C1010   1.394   .     A
C998   H1151   1.084   .     S
C999   C1111   1.394   .     A
C999   C1054   1.402   .     A
C999   C1034   1.411   .     A
C1000  C698    1.411   1_655 A
C1000  C1055   1.402   .     A
C1001  C1032   1.411   .     A
C1001  C1045   1.394   .     A
C1001  C1057   1.402   .     A
C1002  C1058   1.402   .     A
C1002  C1056   1.394   .     A
C1002  C1033   1.411   .     S
C1003  C1059   1.402   .     A
C1003  C1067   1.394   .     A
C1003  C370    1.411   1_565 S
C1004  C1031   1.394   .     A
C1004  C1060   1.402   .     A
C1004  C1035   1.411   .     A
C1005  C1061   1.402   .     A
C1005  C1039   1.394   .     A
C1005  C1036   1.411   .     A
C1006  C1062   1.402   .     A
C1006  C1040   1.394   .     A
C1006  C705    1.411   1_655 S
C1007  C1063   1.402   .     A
C1007  C1041   1.394   .     A
C1008  C1122   1.394   .     A
C1008  C1064   1.402   .     A
C1008  C371    1.411   1_565 S
C1009  H1152   1.084   .     S
C1009  C1049   1.404   .     A
C1009  C1011   1.394   .     A
C1010  C1065   1.402   .     A
C1011  C1066   1.402   .     A
C1011  C1037   1.411   .     A
C1012  C1068   1.402   .     A
C1012  C1020   1.394   .     A
C1012  C1038   1.411   .     A
C1013  C1114   1.407   .     A
C1013  C1084   1.455   .     S
C1013  C1112   1.407   .     A
C1014  C1085   1.455   .     S
C1014  C1113   1.407   .     A
C1014  C1110   1.407   .     A
C1015  C1109   1.407   .     A
C1015  C1116   1.407   .     A
C1015  C1077   1.455   .     S
C1016  C1108   1.407   .     A
C1016  C1115   1.407   .     A
C1016  C1079   1.455   .     S
C1017  C1118   1.407   .     A
C1017  C1107   1.407   .     A
C1017  C1080   1.455   .     S
C1018  C1081   1.455   .     S
C1018  C1106   1.407   .     A
C1018  C1117   1.407   .     A
C1019  C1082   1.455   .     S
C1019  C1105   1.407   .     A
C1019  C1120   1.407   .     A
C1020  C1050   1.404   .     A
C1020  H1153   1.084   .     S
C1021  C1119   1.407   .     A
C1021  C1083   1.455   .     S
C1021  C1104   1.407   .     A
C1022  C1123   1.407   .     A
C1022  C1093   1.455   .     S
C1022  C1103   1.407   .     A
C1023  C1102   1.407   .     A
C1023  C1121   1.407   .     A
C1023  C1094   1.455   .     S
C1024  C1101   1.407   .     A
C1024  C1086   1.455   .     S
C1024  C1125   1.407   .     A
C1025  C1087   1.455   .     S
C1025  C1099   1.407   .     A
C1025  C1124   1.407   .     A
C1026  C1127   1.407   .     A
C1026  C1098   1.407   .     A
C1026  C1088   1.455   .     S
C1027  C1097   1.407   .     A
C1027  C1126   1.407   .     A
C1027  C1090   1.455   .     S
C1028  C1129   1.407   .     A
C1028  C1096   1.407   .     A
C1028  C1091   1.455   .     S
C1029  C1095   1.407   .     A
C1029  C1128   1.407   .     A
C1029  C1092   1.455   .     S
C1030  C1032   1.403   .     S
C1030  C1130   1.411   .     S
C1031  C1047   1.404   .     A
C1031  H1154   1.084   .     S
C1033  C1034   1.403   .     S
C1035  C372    1.403   1_556 S
C1036  C346    1.411   1_565 S
C1036  C371    1.403   1_564 S
C1037  C706    1.403   1_556 S
C1038  C675    1.411   1_655 S
C1038  C705    1.403   1_654 S
C1039  C1048   1.404   .     A
C1039  H1156   1.084   .     S
C1040  H1157   1.084   .     S
C1040  C717    1.404   1_655 S
C1041  H1158   1.084   .     S
C1042  C1071   1.463   .     S
C1042  C1078   1.404   .     S
C1043  C1072   1.463   .     S
C1043  C1045   1.404   .     A
C1044  C1069   1.463   .     S
C1044  C1056   1.404   .     S
C1045  H1142   1.084   .     S
C1046  C1070   1.463   .     S
C1046  C1111   1.404   .     A
C1047  C1075   1.463   .     S
C1048  C1076   1.463   .     S
C1048  C334    1.404   1_565 S
C1049  C1073   1.463   .     S
C1050  C1074   1.463   .     S
C1050  C709    1.404   1_655 S
C1051  H1133   1.084   .     S
C1051  C1130   1.402   .     A
C1051  C1057   1.395   .     A
C1052  C1055   1.395   .     A
C1052  H1144   1.084   .     S
C1052  C1131   1.402   .     A
C1053  H1155   1.084   .     S
C1053  C1059   1.395   .     A
C1053  C1132   1.402   .     A
C1054  C1058   1.395   .     A
C1054  H1166   1.084   .     S
C1055  H1177   1.084   .     S
C1056  H1143   1.084   .     S
C1057  H1188   1.084   .     S
C1058  H1199   1.084   .     S
C1059  H1210   1.084   .     S
C1060  H1221   1.084   .     S
C1060  C1065   1.395   1_556 S
C1061  H1134   1.084   .     S
C1061  C1064   1.395   1_554 S
C1062  H1135   1.084   .     S
C1062  C1068   1.395   1_556 S
C1063  H1136   1.084   .     S
C1063  C1066   1.395   1_554 S
C1064  H1137   1.084   .     S
C1064  C1061   1.395   1_556 S
C1065  H1138   1.084   .     S
C1065  C1060   1.395   1_554 S
C1066  H1139   1.084   .     S
C1066  C1063   1.395   1_556 S
C1067  H1145   1.084   .     S
C1067  C382    1.404   1_565 S
C1068  H1140   1.084   .     S
C1068  C1062   1.395   1_554 S
C1069  O1312   1.281   .     S
C1070  O1309   1.281   .     A
C1071  O1310   1.281   .     S
C1072  O1264   1.281   .     A
C1073  O1269   1.281   .     A
C1073  O1265   1.281   .     A
C1074  O934    1.281   1_655 S
C1074  O938    1.281   1_655 S
C1075  O1267   1.281   .     A
C1075  O1271   1.281   .     A
C1076  O604    1.281   1_565 S
C1076  O609    1.281   1_565 S
C1077  O1274   1.280   .     A
C1077  O1302   1.280   .     A
C1078  C1130   1.394   .     A
C1078  H1146   1.084   .     S
C1079  O1275   1.280   .     A
C1079  O1303   1.280   .     A
C1080  O1300   1.280   .     A
C1080  O1276   1.280   .     A
C1081  O1277   1.280   .     A
C1081  O1301   1.280   .     A
C1082  O1307   1.280   .     A
C1082  O1278   1.280   .     A
C1083  O1308   1.280   .     A
C1083  O1279   1.280   .     A
C1084  O1280   1.280   .     A
C1084  O1304   1.280   .     A
C1085  O1281   1.280   .     A
C1085  O1306   1.280   .     A
C1086  O1282   1.280   .     A
C1086  O1293   1.280   .     A
C1087  O1284   1.280   .     A
C1087  O1295   1.280   .     A
C1088  O1291   1.280   .     A
C1088  O1285   1.280   .     A
C1089  C1131   1.394   .     A
C1089  H1147   1.084   .     S
C1089  C711    1.404   1_655 S
C1090  O1286   1.280   .     A
C1090  O1292   1.280   .     A
C1091  O1287   1.280   .     A
C1091  O1298   1.280   .     A
C1092  O1299   1.280   .     A
C1092  O1288   1.280   .     A
C1093  O1296   1.280   .     A
C1093  O1289   1.280   .     A
C1094  O1297   1.280   .     A
C1094  O1290   1.280   .     A
C1095  C1112   1.403   .     A
C1095  N1229   1.437   .     S
C1096  N1240   1.437   .     S
C1096  C1110   1.403   .     A
C1097  C1109   1.403   .     A
C1097  N1251   1.437   .     S
C1098  C1108   1.403   .     A
C1098  N1255   1.437   .     S
C1099  N1256   1.437   .     S
C1099  C1107   1.403   .     A
C1100  H1148   1.084   .     S
C1100  C1132   1.394   .     A
C1100  C380    1.404   1_565 A
C1101  C1106   1.403   .     A
C1101  N1257   1.437   .     S
C1102  N1258   1.437   .     S
C1102  C1105   1.403   .     A
C1103  C1104   1.403   .     A
C1103  N1259   1.437   .     S
C1104  N1260   1.437   .     S
C1105  N1230   1.437   .     S
C1106  N1231   1.437   .     S
C1107  N1232   1.437   .     S
C1108  N1233   1.437   .     S
C1109  N1234   1.437   .     S
C1110  N1235   1.437   .     S
C1111  H1149   1.084   .     S
C1112  N1236   1.437   .     S
C1113  C1129   1.403   .     A
C1113  N1237   1.437   .     S
C1114  C1128   1.403   .     A
C1114  N1238   1.437   .     S
C1115  C1127   1.403   .     A
C1115  N1239   1.437   .     S
C1116  C1126   1.403   .     A
C1116  N1241   1.437   .     S
C1117  N1242   1.437   .     S
C1117  C1125   1.403   .     A
C1118  N1243   1.437   .     S
C1118  C1124   1.403   .     A
C1119  C1123   1.403   .     A
C1119  N1244   1.437   .     S
C1120  N1245   1.437   .     S
C1120  C1121   1.403   .     A
C1121  N1246   1.437   .     S
C1122  H1150   1.084   .     S
C1122  C383    1.404   1_565 S
C1123  N1247   1.437   .     S
C1124  N1248   1.437   .     S
C1125  N1249   1.437   .     S
C1126  N1250   1.437   .     S
C1127  N1252   1.437   .     S
C1128  N1253   1.437   .     S
C1129  N1254   1.437   .     S
C1131  C700    1.411   1_655 S
C1132  C369    1.411   1_565 A
H1159  N1229   1.045   .     S
H1160  N1229   1.045   .     S
H1161  N1240   1.045   .     S
H1162  N1240   1.045   .     S
H1163  N1251   1.045   .     S
H1164  N1251   1.045   .     S
H1165  N1255   1.045   .     S
H1167  N1255   1.045   .     S
H1168  N1256   1.045   .     S
H1169  N1256   1.045   .     S
H1170  N1257   1.045   .     S
H1171  N1257   1.045   .     S
H1172  N1258   1.045   .     S
H1173  N1258   1.045   .     S
H1174  N1259   1.045   .     S
H1175  N1259   1.045   .     S
H1176  N1260   1.045   .     S
H1178  N1260   1.045   .     S
H1179  N1230   1.045   .     S
H1180  N1230   1.045   .     S
H1181  N1231   1.045   .     S
H1182  N1231   1.045   .     S
H1183  N1232   1.045   .     S
H1184  N1232   1.045   .     S
H1185  N1233   1.045   .     S
H1186  N1233   1.045   .     S
H1187  N1234   1.045   .     S
H1189  N1234   1.045   .     S
H1190  N1235   1.045   .     S
H1191  N1235   1.045   .     S
H1192  N1236   1.045   .     S
H1193  N1236   1.045   .     S
H1194  N1237   1.045   .     S
H1195  N1237   1.045   .     S
H1196  N1238   1.045   .     S
H1197  N1238   1.045   .     S
H1198  N1239   1.045   .     S
H1200  N1239   1.045   .     S
H1201  N1241   1.045   .     S
H1202  N1241   1.045   .     S
H1203  N1242   1.045   .     S
H1204  N1242   1.045   .     S
H1205  N1243   1.045   .     S
H1206  N1243   1.045   .     S
H1207  N1244   1.045   .     S
H1208  N1244   1.045   .     S
H1209  N1245   1.045   .     S
H1211  N1245   1.045   .     S
H1212  N1246   1.045   .     S
H1213  N1246   1.045   .     S
H1214  N1247   1.045   .     S
H1215  N1247   1.045   .     S
H1216  N1248   1.045   .     S
H1217  N1248   1.045   .     S
H1218  N1249   1.045   .     S
H1219  N1249   1.045   .     S
H1220  N1250   1.045   .     S
H1222  N1250   1.045   .     S
H1223  N1252   1.045   .     S
H1224  N1252   1.045   .     S
H1225  N1253   1.045   .     S
H1226  N1253   1.045   .     S
H1227  N1254   1.045   .     S
H1228  N1254   1.045   .     S
O1261  Zn1316  1.948   .     S
O1261  Zn1313  1.948   .     S
O1261  Zn1324  1.948   .     S
O1262  Zn1315  1.951   .     S
O1262  C406    1.281   1_565 S
O1263  C739    1.281   1_655 A
O1263  Zn1318  1.951   .     S
O1264  Zn1317  1.951   .     S
O1265  Zn1327  1.951   .     S
O1266  Zn1326  1.951   .     S
O1267  Zn1321  1.951   .     S
O1268  Zn1313  1.951   .     S
O1269  Zn1323  1.951   .     S
O1270  Zn1322  1.951   .     S
O1271  Zn1325  1.951   .     S
O1272  Zn1319  1.948   .     S
O1272  Zn1321  1.948   .     S
O1272  Zn1325  1.948   .     S
O1273  Zn1324  1.951   .     S
O1274  Zn1316  1.935   .     S
O1275  Zn1315  1.935   .     S
O1276  Zn1318  1.935   .     S
O1277  Zn1317  1.935   .     S
O1278  Zn1320  1.935   .     S
O1279  Zn1319  1.935   .     S
O1280  Zn1314  1.935   .     S
O1281  Zn1328  1.935   .     S
O1282  Zn1315  1.935   .     S
O1283  Zn1322  1.948   .     S
O1283  Zn1314  1.948   .     S
O1283  Zn1326  1.948   .     S
O1284  Zn1316  1.935   .     S
O1285  Zn1328  1.935   .     S
O1286  Zn1314  1.935   .     S
O1287  Zn1319  1.935   .     S
O1288  Zn1320  1.935   .     S
O1289  Zn1317  1.935   .     S
O1290  Zn1318  1.935   .     S
O1291  Zn991   1.935   1_655 S
O1292  Zn1322  1.935   .     S
O1293  Zn661   1.935   1_565 S
O1294  Zn1317  1.948   .     S
O1294  Zn1323  1.948   .     S
O1294  Zn1327  1.948   .     S
O1295  Zn1324  1.935   .     S
O1296  Zn1327  1.935   .     S
O1297  Zn994   1.935   1_655 S
O1298  Zn1321  1.935   .     S
O1299  Zn649   1.935   1_565 S
O1300  Zn990   1.935   1_655 S
O1301  Zn1323  1.935   .     S
O1302  Zn1313  1.935   .     S
O1303  Zn657   1.935   1_565 S
O1304  Zn1326  1.935   .     S
O1305  Zn1320  1.951   .     S
O1305  C405    1.281   1_565 A
O1306  Zn995   1.935   1_655 S
O1307  Zn660   1.935   1_565 S
O1308  Zn1325  1.935   .     S
O1309  Zn1319  1.951   .     S
O1310  Zn1314  1.951   .     S
O1311  Zn1328  1.951   .     S
O1311  C740    1.281   1_655 S
O1312  Zn1316  1.951   .     S
Zn1315 O608    1.948   1_565 S
Zn1318 O951    1.948   1_655 S
Zn1320 O597    1.948   1_565 S
Zn1328 O962    1.948   1_655 S
