data_str_m3_o1_o10_pcu_sym.61
_audit_creation_date              2020-01-03
_audit_creation_method            'Materials Studio'
_symmetry_space_group_name_H-M    'P1'
_symmetry_Int_Tables_number       1
_symmetry_cell_setting            triclinic
loop_
_symmetry_equiv_pos_as_xyz
  x,y,z
_cell_length_a                    25.6850
_cell_length_b                    31.7802
_cell_length_c                    29.7891
_cell_angle_alpha                 88.7004
_cell_angle_beta                  97.9582
_cell_angle_gamma                 91.1680
loop_
_atom_site_label
_atom_site_type_symbol
_atom_site_fract_x
_atom_site_fract_y
_atom_site_fract_z
_atom_site_U_iso_or_equiv
_atom_site_adp_type
_atom_site_occupancy
C1     C     0.16639   0.08679   0.16698   0.00000  Uiso   1.00
C2     C     0.20221   0.02147   0.19862   0.00000  Uiso   1.00
C3     C     0.16727   0.29070   0.16596   0.00000  Uiso   1.00
C4     C     0.16606   0.04264   0.16737   0.00000  Uiso   1.00
C5     C     0.18795   0.19994   0.02491   0.00000  Uiso   1.00
C6     C     0.14539   0.13339   0.30843   0.00000  Uiso   1.00
C7     C     0.18769   0.19963   0.31060   0.00000  Uiso   1.00
C8     C     0.14563   0.13371   0.02274   0.00000  Uiso   1.00
C9     C     0.21237   0.23704   0.04855   0.00000  Uiso   1.00
C10    C     0.26378   0.23516   0.07143   0.00000  Uiso   1.00
C11    C     0.28862   0.27121   0.09098   0.00000  Uiso   1.00
C12    C     0.16695   0.24654   0.16635   0.00000  Uiso   1.00
C13    C     0.26298   0.30975   0.08617   0.00000  Uiso   1.00
C14    C     0.21267   0.31230   0.06151   0.00000  Uiso   1.00
C15    C     0.18730   0.27607   0.04284   0.00000  Uiso   1.00
C16    C     0.12108   0.09624   0.28481   0.00000  Uiso   1.00
C17    C     0.06973   0.09804   0.26181   0.00000  Uiso   1.00
C18    C     0.04500   0.06195   0.24229   0.00000  Uiso   1.00
C19    C     0.07071   0.02344   0.24723   0.00000  Uiso   1.00
C20    C     0.12095   0.02097   0.27200   0.00000  Uiso   1.00
C21    C     0.14620   0.05724   0.29065   0.00000  Uiso   1.00
C22    C     0.06721   0.16598   0.15496   0.00000  Uiso   1.00
C23    C     0.26612   0.16735   0.17838   0.00000  Uiso   1.00
C24    C     0.01230   0.16279   0.14910   0.00000  Uiso   1.00
C25    C     0.32104   0.17052   0.18424   0.00000  Uiso   1.00
C26    C     0.13067   0.02169   0.13530   0.00000  Uiso   1.00
C27    C     0.20266   0.31165   0.19803   0.00000  Uiso   1.00
C28    C     0.13113   0.31187   0.13471   0.00000  Uiso   1.00
H29    H     0.32566   0.15286   0.11640   0.00000  Uiso   1.00
H30    H     0.32811   0.26940   0.10910   0.00000  Uiso   1.00
H31    H     0.28233   0.00439   0.10100   0.00000  Uiso   1.00
H32    H     0.19321   0.00896   0.05707   0.00000  Uiso   1.00
H33    H     0.14838   0.27845   0.02369   0.00000  Uiso   1.00
H34    H     0.04848   0.12709   0.26013   0.00000  Uiso   1.00
H35    H     0.00557   0.06369   0.22408   0.00000  Uiso   1.00
H36    H     0.05144   0.32876   0.23242   0.00000  Uiso   1.00
H37    H     0.14046   0.32434   0.27655   0.00000  Uiso   1.00
H38    H     0.18508   0.05493   0.30988   0.00000  Uiso   1.00
H39    H     0.00768   0.18045   0.21694   0.00000  Uiso   1.00
H40    H     0.10286   0.03870   0.11117   0.00000  Uiso   1.00
H41    H     0.23048   0.29463   0.22217   0.00000  Uiso   1.00
H42    H     0.10352   0.29505   0.11034   0.00000  Uiso   1.00
H43    H     0.22982   0.03829   0.22299   0.00000  Uiso   1.00
H44    H     0.20479   0.22584   0.29354   0.00000  Uiso   1.00
H45    H     0.12854   0.10749   0.03980   0.00000  Uiso   1.00
H46    H     0.28498   0.20608   0.07301   0.00000  Uiso   1.00
N47    N     0.16665   0.16666   0.28573   0.00000  Uiso   1.00
N48    N     0.16668   0.16668   0.04760   0.00000  Uiso   1.00
O49    O     0.16666   0.10558   0.20487   0.00000  Uiso   1.00
O50    O     0.16667   0.22775   0.12846   0.00000  Uiso   1.00
O51    O     0.16666   0.10559   0.12843   0.00000  Uiso   1.00
O52    O     0.16667   0.22774   0.20490   0.00000  Uiso   1.00
O53    O     0.09058   0.16666   0.19595   0.00000  Uiso   1.00
O54    O     0.24275   0.16667   0.13739   0.00000  Uiso   1.00
O55    O     0.09058   0.16667   0.11950   0.00000  Uiso   1.00
O56    O     0.24275   0.16666   0.21383   0.00000  Uiso   1.00
Zn57   Zn    0.16667   0.16666   0.21771   0.00000  Uiso   1.00
Zn58   Zn    0.16667   0.16667   0.11563   0.00000  Uiso   1.00
C59    C     0.49972   0.08679   0.16698   0.00000  Uiso   1.00
C60    C     0.53554   0.02147   0.19862   0.00000  Uiso   1.00
C61    C     0.50060   0.29070   0.16596   0.00000  Uiso   1.00
C62    C     0.49940   0.04264   0.16737   0.00000  Uiso   1.00
C63    C     0.52128   0.19994   0.02491   0.00000  Uiso   1.00
C64    C     0.47873   0.13339   0.30843   0.00000  Uiso   1.00
C65    C     0.52103   0.19963   0.31060   0.00000  Uiso   1.00
C66    C     0.47896   0.13371   0.02274   0.00000  Uiso   1.00
C67    C     0.54570   0.23704   0.04855   0.00000  Uiso   1.00
C68    C     0.59711   0.23516   0.07143   0.00000  Uiso   1.00
C69    C     0.62196   0.27121   0.09098   0.00000  Uiso   1.00
C70    C     0.50028   0.24654   0.16635   0.00000  Uiso   1.00
C71    C     0.59631   0.30975   0.08617   0.00000  Uiso   1.00
C72    C     0.54600   0.31230   0.06151   0.00000  Uiso   1.00
C73    C     0.52064   0.27607   0.04284   0.00000  Uiso   1.00
C74    C     0.45441   0.09624   0.28481   0.00000  Uiso   1.00
C75    C     0.40306   0.09804   0.26181   0.00000  Uiso   1.00
C76    C     0.37834   0.06195   0.24229   0.00000  Uiso   1.00
C77    C     0.40404   0.02344   0.24723   0.00000  Uiso   1.00
C78    C     0.45428   0.02097   0.27200   0.00000  Uiso   1.00
C79    C     0.47954   0.05724   0.29065   0.00000  Uiso   1.00
C80    C     0.40054   0.16598   0.15496   0.00000  Uiso   1.00
C81    C     0.59946   0.16735   0.17838   0.00000  Uiso   1.00
C82    C     0.34563   0.16279   0.14910   0.00000  Uiso   1.00
C83    C     0.65437   0.17052   0.18424   0.00000  Uiso   1.00
C84    C     0.46401   0.02169   0.13530   0.00000  Uiso   1.00
C85    C     0.53600   0.31165   0.19803   0.00000  Uiso   1.00
C86    C     0.46446   0.31187   0.13471   0.00000  Uiso   1.00
H87    H     0.65899   0.15286   0.11640   0.00000  Uiso   1.00
H88    H     0.66144   0.26940   0.10910   0.00000  Uiso   1.00
H89    H     0.61567   0.00439   0.10100   0.00000  Uiso   1.00
H90    H     0.52654   0.00896   0.05707   0.00000  Uiso   1.00
H91    H     0.48171   0.27845   0.02369   0.00000  Uiso   1.00
H92    H     0.38181   0.12709   0.26013   0.00000  Uiso   1.00
H93    H     0.33890   0.06369   0.22408   0.00000  Uiso   1.00
H94    H     0.38477   0.32876   0.23242   0.00000  Uiso   1.00
H95    H     0.47379   0.32434   0.27655   0.00000  Uiso   1.00
H96    H     0.51841   0.05493   0.30988   0.00000  Uiso   1.00
H97    H     0.34101   0.18045   0.21694   0.00000  Uiso   1.00
H98    H     0.43619   0.03870   0.11117   0.00000  Uiso   1.00
H99    H     0.56381   0.29463   0.22217   0.00000  Uiso   1.00
H100   H     0.43685   0.29505   0.11034   0.00000  Uiso   1.00
H101   H     0.56316   0.03829   0.22299   0.00000  Uiso   1.00
H102   H     0.53813   0.22584   0.29354   0.00000  Uiso   1.00
H103   H     0.46187   0.10749   0.03980   0.00000  Uiso   1.00
H104   H     0.61831   0.20608   0.07301   0.00000  Uiso   1.00
N105   N     0.49999   0.16666   0.28573   0.00000  Uiso   1.00
N106   N     0.50001   0.16668   0.04760   0.00000  Uiso   1.00
O107   O     0.50000   0.10558   0.20487   0.00000  Uiso   1.00
O108   O     0.50000   0.22775   0.12846   0.00000  Uiso   1.00
O109   O     0.50000   0.10559   0.12843   0.00000  Uiso   1.00
O110   O     0.50000   0.22774   0.20490   0.00000  Uiso   1.00
O111   O     0.42392   0.16666   0.19595   0.00000  Uiso   1.00
O112   O     0.57608   0.16667   0.13739   0.00000  Uiso   1.00
O113   O     0.42392   0.16667   0.11950   0.00000  Uiso   1.00
O114   O     0.57608   0.16666   0.21383   0.00000  Uiso   1.00
Zn115  Zn    0.50000   0.16666   0.21771   0.00000  Uiso   1.00
Zn116  Zn    0.50000   0.16667   0.11563   0.00000  Uiso   1.00
C117   C     0.83305   0.08679   0.16698   0.00000  Uiso   1.00
C118   C     0.86887   0.02147   0.19862   0.00000  Uiso   1.00
C119   C     0.83394   0.29070   0.16596   0.00000  Uiso   1.00
C120   C     0.83273   0.04264   0.16737   0.00000  Uiso   1.00
C121   C     0.85461   0.19994   0.02491   0.00000  Uiso   1.00
C122   C     0.81206   0.13339   0.30843   0.00000  Uiso   1.00
C123   C     0.85436   0.19963   0.31060   0.00000  Uiso   1.00
C124   C     0.81230   0.13371   0.02274   0.00000  Uiso   1.00
C125   C     0.87904   0.23704   0.04855   0.00000  Uiso   1.00
C126   C     0.93045   0.23516   0.07143   0.00000  Uiso   1.00
C127   C     0.95529   0.27121   0.09098   0.00000  Uiso   1.00
C128   C     0.83361   0.24654   0.16635   0.00000  Uiso   1.00
C129   C     0.92964   0.30975   0.08617   0.00000  Uiso   1.00
C130   C     0.87934   0.31230   0.06151   0.00000  Uiso   1.00
C131   C     0.85397   0.27607   0.04284   0.00000  Uiso   1.00
C132   C     0.78775   0.09624   0.28481   0.00000  Uiso   1.00
C133   C     0.73639   0.09804   0.26181   0.00000  Uiso   1.00
C134   C     0.71167   0.06195   0.24229   0.00000  Uiso   1.00
C135   C     0.73737   0.02344   0.24723   0.00000  Uiso   1.00
C136   C     0.78762   0.02097   0.27200   0.00000  Uiso   1.00
C137   C     0.81287   0.05724   0.29065   0.00000  Uiso   1.00
C138   C     0.73388   0.16598   0.15496   0.00000  Uiso   1.00
C139   C     0.93279   0.16735   0.17838   0.00000  Uiso   1.00
C140   C     0.67896   0.16279   0.14910   0.00000  Uiso   1.00
C141   C     0.98771   0.17052   0.18424   0.00000  Uiso   1.00
C142   C     0.79734   0.02169   0.13530   0.00000  Uiso   1.00
C143   C     0.86933   0.31165   0.19803   0.00000  Uiso   1.00
C144   C     0.79780   0.31187   0.13471   0.00000  Uiso   1.00
H145   H     0.99232   0.15286   0.11640   0.00000  Uiso   1.00
H146   H     0.99478   0.26940   0.10910   0.00000  Uiso   1.00
H147   H     0.94900   0.00439   0.10100   0.00000  Uiso   1.00
H148   H     0.85987   0.00896   0.05707   0.00000  Uiso   1.00
H149   H     0.81504   0.27845   0.02369   0.00000  Uiso   1.00
H150   H     0.71515   0.12709   0.26013   0.00000  Uiso   1.00
H151   H     0.67223   0.06369   0.22408   0.00000  Uiso   1.00
H152   H     0.71811   0.32876   0.23242   0.00000  Uiso   1.00
H153   H     0.80712   0.32434   0.27655   0.00000  Uiso   1.00
H154   H     0.85175   0.05493   0.30988   0.00000  Uiso   1.00
H155   H     0.67435   0.18045   0.21694   0.00000  Uiso   1.00
H156   H     0.76952   0.03870   0.11117   0.00000  Uiso   1.00
H157   H     0.89715   0.29463   0.22217   0.00000  Uiso   1.00
H158   H     0.77018   0.29505   0.11034   0.00000  Uiso   1.00
H159   H     0.89649   0.03829   0.22299   0.00000  Uiso   1.00
H160   H     0.87146   0.22584   0.29354   0.00000  Uiso   1.00
H161   H     0.79520   0.10749   0.03980   0.00000  Uiso   1.00
H162   H     0.95164   0.20608   0.07301   0.00000  Uiso   1.00
N163   N     0.83332   0.16666   0.28573   0.00000  Uiso   1.00
N164   N     0.83335   0.16668   0.04760   0.00000  Uiso   1.00
O165   O     0.83333   0.10558   0.20487   0.00000  Uiso   1.00
O166   O     0.83334   0.22775   0.12846   0.00000  Uiso   1.00
O167   O     0.83333   0.10559   0.12843   0.00000  Uiso   1.00
O168   O     0.83334   0.22774   0.20490   0.00000  Uiso   1.00
O169   O     0.75725   0.16666   0.19595   0.00000  Uiso   1.00
O170   O     0.90942   0.16667   0.13739   0.00000  Uiso   1.00
O171   O     0.75725   0.16667   0.11950   0.00000  Uiso   1.00
O172   O     0.90942   0.16666   0.21383   0.00000  Uiso   1.00
Zn173  Zn    0.83333   0.16666   0.21771   0.00000  Uiso   1.00
Zn174  Zn    0.83333   0.16667   0.11563   0.00000  Uiso   1.00
C175   C     0.16639   0.42012   0.16698   0.00000  Uiso   1.00
C176   C     0.20221   0.35480   0.19862   0.00000  Uiso   1.00
C177   C     0.16727   0.62403   0.16596   0.00000  Uiso   1.00
C178   C     0.16606   0.37597   0.16737   0.00000  Uiso   1.00
C179   C     0.18795   0.53327   0.02491   0.00000  Uiso   1.00
C180   C     0.14539   0.46673   0.30843   0.00000  Uiso   1.00
C181   C     0.18769   0.53297   0.31060   0.00000  Uiso   1.00
C182   C     0.14563   0.46704   0.02274   0.00000  Uiso   1.00
C183   C     0.21237   0.57037   0.04855   0.00000  Uiso   1.00
C184   C     0.26378   0.56849   0.07143   0.00000  Uiso   1.00
C185   C     0.28862   0.60454   0.09098   0.00000  Uiso   1.00
C186   C     0.16695   0.57988   0.16635   0.00000  Uiso   1.00
C187   C     0.26298   0.64308   0.08617   0.00000  Uiso   1.00
C188   C     0.21267   0.64563   0.06151   0.00000  Uiso   1.00
C189   C     0.18730   0.60941   0.04284   0.00000  Uiso   1.00
C190   C     0.12108   0.42958   0.28481   0.00000  Uiso   1.00
C191   C     0.06973   0.43137   0.26181   0.00000  Uiso   1.00
C192   C     0.04500   0.39528   0.24229   0.00000  Uiso   1.00
C193   C     0.07071   0.35677   0.24723   0.00000  Uiso   1.00
C194   C     0.12095   0.35431   0.27200   0.00000  Uiso   1.00
C195   C     0.14620   0.39058   0.29065   0.00000  Uiso   1.00
C196   C     0.06721   0.49931   0.15496   0.00000  Uiso   1.00
C197   C     0.26612   0.50068   0.17838   0.00000  Uiso   1.00
C198   C     0.01230   0.49612   0.14910   0.00000  Uiso   1.00
C199   C     0.32104   0.50386   0.18424   0.00000  Uiso   1.00
C200   C     0.13067   0.35502   0.13530   0.00000  Uiso   1.00
C201   C     0.20266   0.64498   0.19803   0.00000  Uiso   1.00
C202   C     0.13113   0.64520   0.13471   0.00000  Uiso   1.00
H203   H     0.32566   0.48619   0.11640   0.00000  Uiso   1.00
H204   H     0.32811   0.60274   0.10910   0.00000  Uiso   1.00
H205   H     0.28233   0.33772   0.10100   0.00000  Uiso   1.00
H206   H     0.19321   0.34230   0.05707   0.00000  Uiso   1.00
H207   H     0.14838   0.61179   0.02369   0.00000  Uiso   1.00
H208   H     0.04848   0.46042   0.26013   0.00000  Uiso   1.00
H209   H     0.00557   0.39702   0.22408   0.00000  Uiso   1.00
H210   H     0.05144   0.66209   0.23242   0.00000  Uiso   1.00
H211   H     0.14046   0.65767   0.27655   0.00000  Uiso   1.00
H212   H     0.18508   0.38826   0.30988   0.00000  Uiso   1.00
H213   H     0.00768   0.51378   0.21694   0.00000  Uiso   1.00
H214   H     0.10286   0.37204   0.11117   0.00000  Uiso   1.00
H215   H     0.23048   0.62797   0.22217   0.00000  Uiso   1.00
H216   H     0.10352   0.62838   0.11034   0.00000  Uiso   1.00
H217   H     0.22982   0.37162   0.22299   0.00000  Uiso   1.00
H218   H     0.20479   0.55918   0.29354   0.00000  Uiso   1.00
H219   H     0.12854   0.44083   0.03980   0.00000  Uiso   1.00
H220   H     0.28498   0.53941   0.07301   0.00000  Uiso   1.00
N221   N     0.16665   0.49999   0.28573   0.00000  Uiso   1.00
N222   N     0.16668   0.50001   0.04760   0.00000  Uiso   1.00
O223   O     0.16666   0.43892   0.20487   0.00000  Uiso   1.00
O224   O     0.16667   0.56108   0.12846   0.00000  Uiso   1.00
O225   O     0.16666   0.43893   0.12843   0.00000  Uiso   1.00
O226   O     0.16667   0.56107   0.20490   0.00000  Uiso   1.00
O227   O     0.09058   0.50000   0.19595   0.00000  Uiso   1.00
O228   O     0.24275   0.50000   0.13739   0.00000  Uiso   1.00
O229   O     0.09058   0.50000   0.11950   0.00000  Uiso   1.00
O230   O     0.24275   0.50000   0.21383   0.00000  Uiso   1.00
Zn231  Zn    0.16667   0.49999   0.21771   0.00000  Uiso   1.00
Zn232  Zn    0.16667   0.50001   0.11563   0.00000  Uiso   1.00
C233   C     0.49972   0.42012   0.16698   0.00000  Uiso   1.00
C234   C     0.53554   0.35480   0.19862   0.00000  Uiso   1.00
C235   C     0.50060   0.62403   0.16596   0.00000  Uiso   1.00
C236   C     0.49940   0.37597   0.16737   0.00000  Uiso   1.00
C237   C     0.52128   0.53327   0.02491   0.00000  Uiso   1.00
C238   C     0.47873   0.46673   0.30843   0.00000  Uiso   1.00
C239   C     0.52103   0.53297   0.31060   0.00000  Uiso   1.00
C240   C     0.47896   0.46704   0.02274   0.00000  Uiso   1.00
C241   C     0.54570   0.57037   0.04855   0.00000  Uiso   1.00
C242   C     0.59711   0.56849   0.07143   0.00000  Uiso   1.00
C243   C     0.62196   0.60454   0.09098   0.00000  Uiso   1.00
C244   C     0.50028   0.57988   0.16635   0.00000  Uiso   1.00
C245   C     0.59631   0.64308   0.08617   0.00000  Uiso   1.00
C246   C     0.54600   0.64563   0.06151   0.00000  Uiso   1.00
C247   C     0.52064   0.60941   0.04284   0.00000  Uiso   1.00
C248   C     0.45441   0.42958   0.28481   0.00000  Uiso   1.00
C249   C     0.40306   0.43137   0.26181   0.00000  Uiso   1.00
C250   C     0.37834   0.39528   0.24229   0.00000  Uiso   1.00
C251   C     0.40404   0.35677   0.24723   0.00000  Uiso   1.00
C252   C     0.45428   0.35431   0.27200   0.00000  Uiso   1.00
C253   C     0.47954   0.39058   0.29065   0.00000  Uiso   1.00
C254   C     0.40054   0.49931   0.15496   0.00000  Uiso   1.00
C255   C     0.59946   0.50068   0.17838   0.00000  Uiso   1.00
C256   C     0.34563   0.49612   0.14910   0.00000  Uiso   1.00
C257   C     0.65437   0.50386   0.18424   0.00000  Uiso   1.00
C258   C     0.46401   0.35502   0.13530   0.00000  Uiso   1.00
C259   C     0.53600   0.64498   0.19803   0.00000  Uiso   1.00
C260   C     0.46446   0.64520   0.13471   0.00000  Uiso   1.00
H261   H     0.65899   0.48619   0.11640   0.00000  Uiso   1.00
H262   H     0.66144   0.60274   0.10910   0.00000  Uiso   1.00
H263   H     0.61567   0.33772   0.10100   0.00000  Uiso   1.00
H264   H     0.52654   0.34230   0.05707   0.00000  Uiso   1.00
H265   H     0.48171   0.61179   0.02369   0.00000  Uiso   1.00
H266   H     0.38181   0.46042   0.26013   0.00000  Uiso   1.00
H267   H     0.33890   0.39702   0.22408   0.00000  Uiso   1.00
H268   H     0.38477   0.66209   0.23242   0.00000  Uiso   1.00
H269   H     0.47379   0.65767   0.27655   0.00000  Uiso   1.00
H270   H     0.51841   0.38826   0.30988   0.00000  Uiso   1.00
H271   H     0.34101   0.51378   0.21694   0.00000  Uiso   1.00
H272   H     0.43619   0.37204   0.11117   0.00000  Uiso   1.00
H273   H     0.56381   0.62797   0.22217   0.00000  Uiso   1.00
H274   H     0.43685   0.62838   0.11034   0.00000  Uiso   1.00
H275   H     0.56316   0.37162   0.22299   0.00000  Uiso   1.00
H276   H     0.53813   0.55918   0.29354   0.00000  Uiso   1.00
H277   H     0.46187   0.44083   0.03980   0.00000  Uiso   1.00
H278   H     0.61831   0.53941   0.07301   0.00000  Uiso   1.00
N279   N     0.49999   0.49999   0.28573   0.00000  Uiso   1.00
N280   N     0.50001   0.50001   0.04760   0.00000  Uiso   1.00
O281   O     0.50000   0.43892   0.20487   0.00000  Uiso   1.00
O282   O     0.50000   0.56108   0.12846   0.00000  Uiso   1.00
O283   O     0.50000   0.43893   0.12843   0.00000  Uiso   1.00
O284   O     0.50000   0.56107   0.20490   0.00000  Uiso   1.00
O285   O     0.42392   0.50000   0.19595   0.00000  Uiso   1.00
O286   O     0.57608   0.50000   0.13739   0.00000  Uiso   1.00
O287   O     0.42392   0.50000   0.11950   0.00000  Uiso   1.00
O288   O     0.57608   0.50000   0.21383   0.00000  Uiso   1.00
Zn289  Zn    0.50000   0.49999   0.21771   0.00000  Uiso   1.00
Zn290  Zn    0.50000   0.50001   0.11563   0.00000  Uiso   1.00
C291   C     0.83305   0.42012   0.16698   0.00000  Uiso   1.00
C292   C     0.86887   0.35480   0.19862   0.00000  Uiso   1.00
C293   C     0.83394   0.62403   0.16596   0.00000  Uiso   1.00
C294   C     0.83273   0.37597   0.16737   0.00000  Uiso   1.00
C295   C     0.85461   0.53327   0.02491   0.00000  Uiso   1.00
C296   C     0.81206   0.46673   0.30843   0.00000  Uiso   1.00
C297   C     0.85436   0.53297   0.31060   0.00000  Uiso   1.00
C298   C     0.81230   0.46704   0.02274   0.00000  Uiso   1.00
C299   C     0.87904   0.57037   0.04855   0.00000  Uiso   1.00
C300   C     0.93045   0.56849   0.07143   0.00000  Uiso   1.00
C301   C     0.95529   0.60454   0.09098   0.00000  Uiso   1.00
C302   C     0.83361   0.57988   0.16635   0.00000  Uiso   1.00
C303   C     0.92964   0.64308   0.08617   0.00000  Uiso   1.00
C304   C     0.87934   0.64563   0.06151   0.00000  Uiso   1.00
C305   C     0.85397   0.60941   0.04284   0.00000  Uiso   1.00
C306   C     0.78775   0.42958   0.28481   0.00000  Uiso   1.00
C307   C     0.73639   0.43137   0.26181   0.00000  Uiso   1.00
C308   C     0.71167   0.39528   0.24229   0.00000  Uiso   1.00
C309   C     0.73737   0.35677   0.24723   0.00000  Uiso   1.00
C310   C     0.78762   0.35431   0.27200   0.00000  Uiso   1.00
C311   C     0.81287   0.39058   0.29065   0.00000  Uiso   1.00
C312   C     0.73388   0.49931   0.15496   0.00000  Uiso   1.00
C313   C     0.93279   0.50068   0.17838   0.00000  Uiso   1.00
C314   C     0.67896   0.49612   0.14910   0.00000  Uiso   1.00
C315   C     0.98771   0.50386   0.18424   0.00000  Uiso   1.00
C316   C     0.79734   0.35502   0.13530   0.00000  Uiso   1.00
C317   C     0.86933   0.64498   0.19803   0.00000  Uiso   1.00
C318   C     0.79780   0.64520   0.13471   0.00000  Uiso   1.00
H319   H     0.99232   0.48619   0.11640   0.00000  Uiso   1.00
H320   H     0.99478   0.60274   0.10910   0.00000  Uiso   1.00
H321   H     0.94900   0.33772   0.10100   0.00000  Uiso   1.00
H322   H     0.85987   0.34230   0.05707   0.00000  Uiso   1.00
H323   H     0.81504   0.61179   0.02369   0.00000  Uiso   1.00
H324   H     0.71515   0.46042   0.26013   0.00000  Uiso   1.00
H325   H     0.67223   0.39702   0.22408   0.00000  Uiso   1.00
H326   H     0.71811   0.66209   0.23242   0.00000  Uiso   1.00
H327   H     0.80712   0.65767   0.27655   0.00000  Uiso   1.00
H328   H     0.85175   0.38826   0.30988   0.00000  Uiso   1.00
H329   H     0.67435   0.51378   0.21694   0.00000  Uiso   1.00
H330   H     0.76952   0.37204   0.11117   0.00000  Uiso   1.00
H331   H     0.89715   0.62797   0.22217   0.00000  Uiso   1.00
H332   H     0.77018   0.62838   0.11034   0.00000  Uiso   1.00
H333   H     0.89649   0.37162   0.22299   0.00000  Uiso   1.00
H334   H     0.87146   0.55918   0.29354   0.00000  Uiso   1.00
H335   H     0.79520   0.44083   0.03980   0.00000  Uiso   1.00
H336   H     0.95164   0.53941   0.07301   0.00000  Uiso   1.00
N337   N     0.83332   0.49999   0.28573   0.00000  Uiso   1.00
N338   N     0.83335   0.50001   0.04760   0.00000  Uiso   1.00
O339   O     0.83333   0.43892   0.20487   0.00000  Uiso   1.00
O340   O     0.83334   0.56108   0.12846   0.00000  Uiso   1.00
O341   O     0.83333   0.43893   0.12843   0.00000  Uiso   1.00
O342   O     0.83334   0.56107   0.20490   0.00000  Uiso   1.00
O343   O     0.75725   0.50000   0.19595   0.00000  Uiso   1.00
O344   O     0.90942   0.50000   0.13739   0.00000  Uiso   1.00
O345   O     0.75725   0.50000   0.11950   0.00000  Uiso   1.00
O346   O     0.90942   0.50000   0.21383   0.00000  Uiso   1.00
Zn347  Zn    0.83333   0.49999   0.21771   0.00000  Uiso   1.00
Zn348  Zn    0.83333   0.50001   0.11563   0.00000  Uiso   1.00
C349   C     0.16639   0.75346   0.16698   0.00000  Uiso   1.00
C350   C     0.20221   0.68813   0.19862   0.00000  Uiso   1.00
C351   C     0.16727   0.95736   0.16596   0.00000  Uiso   1.00
C352   C     0.16606   0.70930   0.16737   0.00000  Uiso   1.00
C353   C     0.18795   0.86660   0.02491   0.00000  Uiso   1.00
C354   C     0.14539   0.80006   0.30843   0.00000  Uiso   1.00
C355   C     0.18769   0.86630   0.31060   0.00000  Uiso   1.00
C356   C     0.14563   0.80037   0.02274   0.00000  Uiso   1.00
C357   C     0.21237   0.90370   0.04855   0.00000  Uiso   1.00
C358   C     0.26378   0.90183   0.07143   0.00000  Uiso   1.00
C359   C     0.28862   0.93787   0.09098   0.00000  Uiso   1.00
C360   C     0.16695   0.91321   0.16635   0.00000  Uiso   1.00
C361   C     0.26298   0.97642   0.08617   0.00000  Uiso   1.00
C362   C     0.21267   0.97896   0.06151   0.00000  Uiso   1.00
C363   C     0.18730   0.94274   0.04284   0.00000  Uiso   1.00
C364   C     0.12108   0.76291   0.28481   0.00000  Uiso   1.00
C365   C     0.06973   0.76471   0.26181   0.00000  Uiso   1.00
C366   C     0.04500   0.72861   0.24229   0.00000  Uiso   1.00
C367   C     0.07071   0.69010   0.24723   0.00000  Uiso   1.00
C368   C     0.12095   0.68764   0.27200   0.00000  Uiso   1.00
C369   C     0.14620   0.72391   0.29065   0.00000  Uiso   1.00
C370   C     0.06721   0.83265   0.15496   0.00000  Uiso   1.00
C371   C     0.26612   0.83401   0.17838   0.00000  Uiso   1.00
C372   C     0.01230   0.82946   0.14910   0.00000  Uiso   1.00
C373   C     0.32104   0.83719   0.18424   0.00000  Uiso   1.00
C374   C     0.13067   0.68835   0.13530   0.00000  Uiso   1.00
C375   C     0.20266   0.97831   0.19803   0.00000  Uiso   1.00
C376   C     0.13113   0.97853   0.13471   0.00000  Uiso   1.00
H377   H     0.32566   0.81953   0.11640   0.00000  Uiso   1.00
H378   H     0.32811   0.93607   0.10910   0.00000  Uiso   1.00
H379   H     0.28233   0.67106   0.10100   0.00000  Uiso   1.00
H380   H     0.19321   0.67563   0.05707   0.00000  Uiso   1.00
H381   H     0.14838   0.94512   0.02369   0.00000  Uiso   1.00
H382   H     0.04848   0.79376   0.26013   0.00000  Uiso   1.00
H383   H     0.00557   0.73035   0.22408   0.00000  Uiso   1.00
H384   H     0.05144   0.99543   0.23242   0.00000  Uiso   1.00
H385   H     0.14046   0.99100   0.27655   0.00000  Uiso   1.00
H386   H     0.18508   0.72159   0.30988   0.00000  Uiso   1.00
H387   H     0.00768   0.84711   0.21694   0.00000  Uiso   1.00
H388   H     0.10286   0.70537   0.11117   0.00000  Uiso   1.00
H389   H     0.23048   0.96130   0.22217   0.00000  Uiso   1.00
H390   H     0.10352   0.96172   0.11034   0.00000  Uiso   1.00
H391   H     0.22982   0.70495   0.22299   0.00000  Uiso   1.00
H392   H     0.20479   0.89251   0.29354   0.00000  Uiso   1.00
H393   H     0.12854   0.77416   0.03980   0.00000  Uiso   1.00
H394   H     0.28498   0.87275   0.07301   0.00000  Uiso   1.00
N395   N     0.16665   0.83332   0.28573   0.00000  Uiso   1.00
N396   N     0.16668   0.83334   0.04760   0.00000  Uiso   1.00
O397   O     0.16666   0.77225   0.20487   0.00000  Uiso   1.00
O398   O     0.16667   0.89442   0.12846   0.00000  Uiso   1.00
O399   O     0.16666   0.77226   0.12843   0.00000  Uiso   1.00
O400   O     0.16667   0.89441   0.20490   0.00000  Uiso   1.00
O401   O     0.09058   0.83333   0.19595   0.00000  Uiso   1.00
O402   O     0.24275   0.83334   0.13739   0.00000  Uiso   1.00
O403   O     0.09058   0.83334   0.11950   0.00000  Uiso   1.00
O404   O     0.24275   0.83333   0.21383   0.00000  Uiso   1.00
Zn405  Zn    0.16667   0.83333   0.21771   0.00000  Uiso   1.00
Zn406  Zn    0.16667   0.83334   0.11563   0.00000  Uiso   1.00
C407   C     0.49972   0.75346   0.16698   0.00000  Uiso   1.00
C408   C     0.53554   0.68813   0.19862   0.00000  Uiso   1.00
C409   C     0.50060   0.95736   0.16596   0.00000  Uiso   1.00
C410   C     0.49940   0.70930   0.16737   0.00000  Uiso   1.00
C411   C     0.52128   0.86660   0.02491   0.00000  Uiso   1.00
C412   C     0.47873   0.80006   0.30843   0.00000  Uiso   1.00
C413   C     0.52103   0.86630   0.31060   0.00000  Uiso   1.00
C414   C     0.47896   0.80037   0.02274   0.00000  Uiso   1.00
C415   C     0.54570   0.90370   0.04855   0.00000  Uiso   1.00
C416   C     0.59711   0.90183   0.07143   0.00000  Uiso   1.00
C417   C     0.62196   0.93787   0.09098   0.00000  Uiso   1.00
C418   C     0.50028   0.91321   0.16635   0.00000  Uiso   1.00
C419   C     0.59631   0.97642   0.08617   0.00000  Uiso   1.00
C420   C     0.54600   0.97896   0.06151   0.00000  Uiso   1.00
C421   C     0.52064   0.94274   0.04284   0.00000  Uiso   1.00
C422   C     0.45441   0.76291   0.28481   0.00000  Uiso   1.00
C423   C     0.40306   0.76471   0.26181   0.00000  Uiso   1.00
C424   C     0.37834   0.72861   0.24229   0.00000  Uiso   1.00
C425   C     0.40404   0.69010   0.24723   0.00000  Uiso   1.00
C426   C     0.45428   0.68764   0.27200   0.00000  Uiso   1.00
C427   C     0.47954   0.72391   0.29065   0.00000  Uiso   1.00
C428   C     0.40054   0.83265   0.15496   0.00000  Uiso   1.00
C429   C     0.59946   0.83401   0.17838   0.00000  Uiso   1.00
C430   C     0.34563   0.82946   0.14910   0.00000  Uiso   1.00
C431   C     0.65437   0.83719   0.18424   0.00000  Uiso   1.00
C432   C     0.46401   0.68835   0.13530   0.00000  Uiso   1.00
C433   C     0.53600   0.97831   0.19803   0.00000  Uiso   1.00
C434   C     0.46446   0.97853   0.13471   0.00000  Uiso   1.00
H435   H     0.65899   0.81953   0.11640   0.00000  Uiso   1.00
H436   H     0.66144   0.93607   0.10910   0.00000  Uiso   1.00
H437   H     0.61567   0.67106   0.10100   0.00000  Uiso   1.00
H438   H     0.52654   0.67563   0.05707   0.00000  Uiso   1.00
H439   H     0.48171   0.94512   0.02369   0.00000  Uiso   1.00
H440   H     0.38181   0.79376   0.26013   0.00000  Uiso   1.00
H441   H     0.33890   0.73035   0.22408   0.00000  Uiso   1.00
H442   H     0.38477   0.99543   0.23242   0.00000  Uiso   1.00
H443   H     0.47379   0.99100   0.27655   0.00000  Uiso   1.00
H444   H     0.51841   0.72159   0.30988   0.00000  Uiso   1.00
H445   H     0.34101   0.84711   0.21694   0.00000  Uiso   1.00
H446   H     0.43619   0.70537   0.11117   0.00000  Uiso   1.00
H447   H     0.56381   0.96130   0.22217   0.00000  Uiso   1.00
H448   H     0.43685   0.96172   0.11034   0.00000  Uiso   1.00
H449   H     0.56316   0.70495   0.22299   0.00000  Uiso   1.00
H450   H     0.53813   0.89251   0.29354   0.00000  Uiso   1.00
H451   H     0.46187   0.77416   0.03980   0.00000  Uiso   1.00
H452   H     0.61831   0.87275   0.07301   0.00000  Uiso   1.00
N453   N     0.49999   0.83332   0.28573   0.00000  Uiso   1.00
N454   N     0.50001   0.83334   0.04760   0.00000  Uiso   1.00
O455   O     0.50000   0.77225   0.20487   0.00000  Uiso   1.00
O456   O     0.50000   0.89442   0.12846   0.00000  Uiso   1.00
O457   O     0.50000   0.77226   0.12843   0.00000  Uiso   1.00
O458   O     0.50000   0.89441   0.20490   0.00000  Uiso   1.00
O459   O     0.42392   0.83333   0.19595   0.00000  Uiso   1.00
O460   O     0.57608   0.83334   0.13739   0.00000  Uiso   1.00
O461   O     0.42392   0.83334   0.11950   0.00000  Uiso   1.00
O462   O     0.57608   0.83333   0.21383   0.00000  Uiso   1.00
Zn463  Zn    0.50000   0.83333   0.21771   0.00000  Uiso   1.00
Zn464  Zn    0.50000   0.83334   0.11563   0.00000  Uiso   1.00
C465   C     0.83305   0.75346   0.16698   0.00000  Uiso   1.00
C466   C     0.86887   0.68813   0.19862   0.00000  Uiso   1.00
C467   C     0.83394   0.95736   0.16596   0.00000  Uiso   1.00
C468   C     0.83273   0.70930   0.16737   0.00000  Uiso   1.00
C469   C     0.85461   0.86660   0.02491   0.00000  Uiso   1.00
C470   C     0.81206   0.80006   0.30843   0.00000  Uiso   1.00
C471   C     0.85436   0.86630   0.31060   0.00000  Uiso   1.00
C472   C     0.81230   0.80037   0.02274   0.00000  Uiso   1.00
C473   C     0.87904   0.90370   0.04855   0.00000  Uiso   1.00
C474   C     0.93045   0.90183   0.07143   0.00000  Uiso   1.00
C475   C     0.95529   0.93787   0.09098   0.00000  Uiso   1.00
C476   C     0.83361   0.91321   0.16635   0.00000  Uiso   1.00
C477   C     0.92964   0.97642   0.08617   0.00000  Uiso   1.00
C478   C     0.87934   0.97896   0.06151   0.00000  Uiso   1.00
C479   C     0.85397   0.94274   0.04284   0.00000  Uiso   1.00
C480   C     0.78775   0.76291   0.28481   0.00000  Uiso   1.00
C481   C     0.73639   0.76471   0.26181   0.00000  Uiso   1.00
C482   C     0.71167   0.72861   0.24229   0.00000  Uiso   1.00
C483   C     0.73737   0.69010   0.24723   0.00000  Uiso   1.00
C484   C     0.78762   0.68764   0.27200   0.00000  Uiso   1.00
C485   C     0.81287   0.72391   0.29065   0.00000  Uiso   1.00
C486   C     0.73388   0.83265   0.15496   0.00000  Uiso   1.00
C487   C     0.93279   0.83401   0.17838   0.00000  Uiso   1.00
C488   C     0.67896   0.82946   0.14910   0.00000  Uiso   1.00
C489   C     0.98771   0.83719   0.18424   0.00000  Uiso   1.00
C490   C     0.79734   0.68835   0.13530   0.00000  Uiso   1.00
C491   C     0.86933   0.97831   0.19803   0.00000  Uiso   1.00
C492   C     0.79780   0.97853   0.13471   0.00000  Uiso   1.00
H493   H     0.99232   0.81953   0.11640   0.00000  Uiso   1.00
H494   H     0.99478   0.93607   0.10910   0.00000  Uiso   1.00
H495   H     0.94900   0.67106   0.10100   0.00000  Uiso   1.00
H496   H     0.85987   0.67563   0.05707   0.00000  Uiso   1.00
H497   H     0.81504   0.94512   0.02369   0.00000  Uiso   1.00
H498   H     0.71515   0.79376   0.26013   0.00000  Uiso   1.00
H499   H     0.67223   0.73035   0.22408   0.00000  Uiso   1.00
H500   H     0.71811   0.99543   0.23242   0.00000  Uiso   1.00
H501   H     0.80712   0.99100   0.27655   0.00000  Uiso   1.00
H502   H     0.85175   0.72159   0.30988   0.00000  Uiso   1.00
H503   H     0.67435   0.84711   0.21694   0.00000  Uiso   1.00
H504   H     0.76952   0.70537   0.11117   0.00000  Uiso   1.00
H505   H     0.89715   0.96130   0.22217   0.00000  Uiso   1.00
H506   H     0.77018   0.96172   0.11034   0.00000  Uiso   1.00
H507   H     0.89649   0.70495   0.22299   0.00000  Uiso   1.00
H508   H     0.87146   0.89251   0.29354   0.00000  Uiso   1.00
H509   H     0.79520   0.77416   0.03980   0.00000  Uiso   1.00
H510   H     0.95164   0.87275   0.07301   0.00000  Uiso   1.00
N511   N     0.83332   0.83332   0.28573   0.00000  Uiso   1.00
N512   N     0.83335   0.83334   0.04760   0.00000  Uiso   1.00
O513   O     0.83333   0.77225   0.20487   0.00000  Uiso   1.00
O514   O     0.83334   0.89442   0.12846   0.00000  Uiso   1.00
O515   O     0.83333   0.77226   0.12843   0.00000  Uiso   1.00
O516   O     0.83334   0.89441   0.20490   0.00000  Uiso   1.00
O517   O     0.75725   0.83333   0.19595   0.00000  Uiso   1.00
O518   O     0.90942   0.83334   0.13739   0.00000  Uiso   1.00
O519   O     0.75725   0.83334   0.11950   0.00000  Uiso   1.00
O520   O     0.90942   0.83333   0.21383   0.00000  Uiso   1.00
Zn521  Zn    0.83333   0.83333   0.21771   0.00000  Uiso   1.00
Zn522  Zn    0.83333   0.83334   0.11563   0.00000  Uiso   1.00
C523   C     0.16639   0.08679   0.50032   0.00000  Uiso   1.00
C524   C     0.20221   0.02147   0.53195   0.00000  Uiso   1.00
C525   C     0.16727   0.29070   0.49929   0.00000  Uiso   1.00
C526   C     0.16606   0.04264   0.50070   0.00000  Uiso   1.00
C527   C     0.18795   0.19994   0.35824   0.00000  Uiso   1.00
C528   C     0.14539   0.13339   0.64176   0.00000  Uiso   1.00
C529   C     0.18769   0.19963   0.64393   0.00000  Uiso   1.00
C530   C     0.14563   0.13371   0.35607   0.00000  Uiso   1.00
C531   C     0.21237   0.23704   0.38188   0.00000  Uiso   1.00
C532   C     0.26378   0.23516   0.40477   0.00000  Uiso   1.00
C533   C     0.28862   0.27121   0.42431   0.00000  Uiso   1.00
C534   C     0.16695   0.24654   0.49968   0.00000  Uiso   1.00
C535   C     0.26298   0.30975   0.41951   0.00000  Uiso   1.00
C536   C     0.21267   0.31230   0.39485   0.00000  Uiso   1.00
C537   C     0.18730   0.27607   0.37617   0.00000  Uiso   1.00
C538   C     0.12108   0.09624   0.61815   0.00000  Uiso   1.00
C539   C     0.06973   0.09804   0.59515   0.00000  Uiso   1.00
C540   C     0.04500   0.06195   0.57562   0.00000  Uiso   1.00
C541   C     0.07071   0.02344   0.58057   0.00000  Uiso   1.00
C542   C     0.12095   0.02097   0.60534   0.00000  Uiso   1.00
C543   C     0.14620   0.05724   0.62399   0.00000  Uiso   1.00
C544   C     0.06721   0.16598   0.48829   0.00000  Uiso   1.00
C545   C     0.26612   0.16735   0.51171   0.00000  Uiso   1.00
C546   C     0.01230   0.16279   0.48243   0.00000  Uiso   1.00
C547   C     0.32104   0.17052   0.51757   0.00000  Uiso   1.00
C548   C     0.13067   0.02169   0.46863   0.00000  Uiso   1.00
C549   C     0.20266   0.31165   0.53137   0.00000  Uiso   1.00
C550   C     0.13113   0.31187   0.46805   0.00000  Uiso   1.00
H551   H     0.32566   0.15286   0.44973   0.00000  Uiso   1.00
H552   H     0.32811   0.26940   0.44243   0.00000  Uiso   1.00
H553   H     0.28233   0.00439   0.43434   0.00000  Uiso   1.00
H554   H     0.19321   0.00896   0.39041   0.00000  Uiso   1.00
H555   H     0.14838   0.27845   0.35703   0.00000  Uiso   1.00
H556   H     0.04848   0.12709   0.59346   0.00000  Uiso   1.00
H557   H     0.00557   0.06369   0.55741   0.00000  Uiso   1.00
H558   H     0.05144   0.32876   0.56575   0.00000  Uiso   1.00
H559   H     0.14046   0.32434   0.60988   0.00000  Uiso   1.00
H560   H     0.18508   0.05493   0.64322   0.00000  Uiso   1.00
H561   H     0.00768   0.18045   0.55028   0.00000  Uiso   1.00
H562   H     0.10286   0.03870   0.44450   0.00000  Uiso   1.00
H563   H     0.23048   0.29463   0.55550   0.00000  Uiso   1.00
H564   H     0.10352   0.29505   0.44367   0.00000  Uiso   1.00
H565   H     0.22982   0.03829   0.55632   0.00000  Uiso   1.00
H566   H     0.20479   0.22584   0.62687   0.00000  Uiso   1.00
H567   H     0.12854   0.10749   0.37313   0.00000  Uiso   1.00
H568   H     0.28498   0.20608   0.40634   0.00000  Uiso   1.00
N569   N     0.16665   0.16666   0.61907   0.00000  Uiso   1.00
N570   N     0.16668   0.16668   0.38093   0.00000  Uiso   1.00
O571   O     0.16666   0.10558   0.53821   0.00000  Uiso   1.00
O572   O     0.16667   0.22775   0.46179   0.00000  Uiso   1.00
O573   O     0.16666   0.10559   0.46176   0.00000  Uiso   1.00
O574   O     0.16667   0.22774   0.53824   0.00000  Uiso   1.00
O575   O     0.09058   0.16666   0.52928   0.00000  Uiso   1.00
O576   O     0.24275   0.16667   0.47072   0.00000  Uiso   1.00
O577   O     0.09058   0.16667   0.45284   0.00000  Uiso   1.00
O578   O     0.24275   0.16666   0.54716   0.00000  Uiso   1.00
Zn579  Zn    0.16667   0.16666   0.55104   0.00000  Uiso   1.00
Zn580  Zn    0.16667   0.16667   0.44896   0.00000  Uiso   1.00
C581   C     0.49972   0.08679   0.50032   0.00000  Uiso   1.00
C582   C     0.53554   0.02147   0.53195   0.00000  Uiso   1.00
C583   C     0.50060   0.29070   0.49929   0.00000  Uiso   1.00
C584   C     0.49940   0.04264   0.50070   0.00000  Uiso   1.00
C585   C     0.52128   0.19994   0.35824   0.00000  Uiso   1.00
C586   C     0.47873   0.13339   0.64176   0.00000  Uiso   1.00
C587   C     0.52103   0.19963   0.64393   0.00000  Uiso   1.00
C588   C     0.47896   0.13371   0.35607   0.00000  Uiso   1.00
C589   C     0.54570   0.23704   0.38188   0.00000  Uiso   1.00
C590   C     0.59711   0.23516   0.40477   0.00000  Uiso   1.00
C591   C     0.62196   0.27121   0.42431   0.00000  Uiso   1.00
C592   C     0.50028   0.24654   0.49968   0.00000  Uiso   1.00
C593   C     0.59631   0.30975   0.41951   0.00000  Uiso   1.00
C594   C     0.54600   0.31230   0.39485   0.00000  Uiso   1.00
C595   C     0.52064   0.27607   0.37617   0.00000  Uiso   1.00
C596   C     0.45441   0.09624   0.61815   0.00000  Uiso   1.00
C597   C     0.40306   0.09804   0.59515   0.00000  Uiso   1.00
C598   C     0.37834   0.06195   0.57562   0.00000  Uiso   1.00
C599   C     0.40404   0.02344   0.58057   0.00000  Uiso   1.00
C600   C     0.45428   0.02097   0.60534   0.00000  Uiso   1.00
C601   C     0.47954   0.05724   0.62399   0.00000  Uiso   1.00
C602   C     0.40054   0.16598   0.48829   0.00000  Uiso   1.00
C603   C     0.59946   0.16735   0.51171   0.00000  Uiso   1.00
C604   C     0.34563   0.16279   0.48243   0.00000  Uiso   1.00
C605   C     0.65437   0.17052   0.51757   0.00000  Uiso   1.00
C606   C     0.46401   0.02169   0.46863   0.00000  Uiso   1.00
C607   C     0.53600   0.31165   0.53137   0.00000  Uiso   1.00
C608   C     0.46446   0.31187   0.46805   0.00000  Uiso   1.00
H609   H     0.65899   0.15286   0.44973   0.00000  Uiso   1.00
H610   H     0.66144   0.26940   0.44243   0.00000  Uiso   1.00
H611   H     0.61567   0.00439   0.43434   0.00000  Uiso   1.00
H612   H     0.52654   0.00896   0.39041   0.00000  Uiso   1.00
H613   H     0.48171   0.27845   0.35703   0.00000  Uiso   1.00
H614   H     0.38181   0.12709   0.59346   0.00000  Uiso   1.00
H615   H     0.33890   0.06369   0.55741   0.00000  Uiso   1.00
H616   H     0.38477   0.32876   0.56575   0.00000  Uiso   1.00
H617   H     0.47379   0.32434   0.60988   0.00000  Uiso   1.00
H618   H     0.51841   0.05493   0.64322   0.00000  Uiso   1.00
H619   H     0.34101   0.18045   0.55028   0.00000  Uiso   1.00
H620   H     0.43619   0.03870   0.44450   0.00000  Uiso   1.00
H621   H     0.56381   0.29463   0.55550   0.00000  Uiso   1.00
H622   H     0.43685   0.29505   0.44367   0.00000  Uiso   1.00
H623   H     0.56316   0.03829   0.55632   0.00000  Uiso   1.00
H624   H     0.53813   0.22584   0.62687   0.00000  Uiso   1.00
H625   H     0.46187   0.10749   0.37313   0.00000  Uiso   1.00
H626   H     0.61831   0.20608   0.40634   0.00000  Uiso   1.00
N627   N     0.49999   0.16666   0.61907   0.00000  Uiso   1.00
N628   N     0.50001   0.16668   0.38093   0.00000  Uiso   1.00
O629   O     0.50000   0.10558   0.53821   0.00000  Uiso   1.00
O630   O     0.50000   0.22775   0.46179   0.00000  Uiso   1.00
O631   O     0.50000   0.10559   0.46176   0.00000  Uiso   1.00
O632   O     0.50000   0.22774   0.53824   0.00000  Uiso   1.00
O633   O     0.42392   0.16666   0.52928   0.00000  Uiso   1.00
O634   O     0.57608   0.16667   0.47072   0.00000  Uiso   1.00
O635   O     0.42392   0.16667   0.45284   0.00000  Uiso   1.00
O636   O     0.57608   0.16666   0.54716   0.00000  Uiso   1.00
Zn637  Zn    0.50000   0.16666   0.55104   0.00000  Uiso   1.00
Zn638  Zn    0.50000   0.16667   0.44896   0.00000  Uiso   1.00
C639   C     0.83305   0.08679   0.50032   0.00000  Uiso   1.00
C640   C     0.86887   0.02147   0.53195   0.00000  Uiso   1.00
C641   C     0.83394   0.29070   0.49929   0.00000  Uiso   1.00
C642   C     0.83273   0.04264   0.50070   0.00000  Uiso   1.00
C643   C     0.85461   0.19994   0.35824   0.00000  Uiso   1.00
C644   C     0.81206   0.13339   0.64176   0.00000  Uiso   1.00
C645   C     0.85436   0.19963   0.64393   0.00000  Uiso   1.00
C646   C     0.81230   0.13371   0.35607   0.00000  Uiso   1.00
C647   C     0.87904   0.23704   0.38188   0.00000  Uiso   1.00
C648   C     0.93045   0.23516   0.40477   0.00000  Uiso   1.00
C649   C     0.95529   0.27121   0.42431   0.00000  Uiso   1.00
C650   C     0.83361   0.24654   0.49968   0.00000  Uiso   1.00
C651   C     0.92964   0.30975   0.41951   0.00000  Uiso   1.00
C652   C     0.87934   0.31230   0.39485   0.00000  Uiso   1.00
C653   C     0.85397   0.27607   0.37617   0.00000  Uiso   1.00
C654   C     0.78775   0.09624   0.61815   0.00000  Uiso   1.00
C655   C     0.73639   0.09804   0.59515   0.00000  Uiso   1.00
C656   C     0.71167   0.06195   0.57562   0.00000  Uiso   1.00
C657   C     0.73737   0.02344   0.58057   0.00000  Uiso   1.00
C658   C     0.78762   0.02097   0.60534   0.00000  Uiso   1.00
C659   C     0.81287   0.05724   0.62399   0.00000  Uiso   1.00
C660   C     0.73388   0.16598   0.48829   0.00000  Uiso   1.00
C661   C     0.93279   0.16735   0.51171   0.00000  Uiso   1.00
C662   C     0.67896   0.16279   0.48243   0.00000  Uiso   1.00
C663   C     0.98771   0.17052   0.51757   0.00000  Uiso   1.00
C664   C     0.79734   0.02169   0.46863   0.00000  Uiso   1.00
C665   C     0.86933   0.31165   0.53137   0.00000  Uiso   1.00
C666   C     0.79780   0.31187   0.46805   0.00000  Uiso   1.00
H667   H     0.99232   0.15286   0.44973   0.00000  Uiso   1.00
H668   H     0.99478   0.26940   0.44243   0.00000  Uiso   1.00
H669   H     0.94900   0.00439   0.43434   0.00000  Uiso   1.00
H670   H     0.85987   0.00896   0.39041   0.00000  Uiso   1.00
H671   H     0.81504   0.27845   0.35703   0.00000  Uiso   1.00
H672   H     0.71515   0.12709   0.59346   0.00000  Uiso   1.00
H673   H     0.67223   0.06369   0.55741   0.00000  Uiso   1.00
H674   H     0.71811   0.32876   0.56575   0.00000  Uiso   1.00
H675   H     0.80712   0.32434   0.60988   0.00000  Uiso   1.00
H676   H     0.85175   0.05493   0.64322   0.00000  Uiso   1.00
H677   H     0.67435   0.18045   0.55028   0.00000  Uiso   1.00
H678   H     0.76952   0.03870   0.44450   0.00000  Uiso   1.00
H679   H     0.89715   0.29463   0.55550   0.00000  Uiso   1.00
H680   H     0.77018   0.29505   0.44367   0.00000  Uiso   1.00
H681   H     0.89649   0.03829   0.55632   0.00000  Uiso   1.00
H682   H     0.87146   0.22584   0.62687   0.00000  Uiso   1.00
H683   H     0.79520   0.10749   0.37313   0.00000  Uiso   1.00
H684   H     0.95164   0.20608   0.40634   0.00000  Uiso   1.00
N685   N     0.83332   0.16666   0.61907   0.00000  Uiso   1.00
N686   N     0.83335   0.16668   0.38093   0.00000  Uiso   1.00
O687   O     0.83333   0.10558   0.53821   0.00000  Uiso   1.00
O688   O     0.83334   0.22775   0.46179   0.00000  Uiso   1.00
O689   O     0.83333   0.10559   0.46176   0.00000  Uiso   1.00
O690   O     0.83334   0.22774   0.53824   0.00000  Uiso   1.00
O691   O     0.75725   0.16666   0.52928   0.00000  Uiso   1.00
O692   O     0.90942   0.16667   0.47072   0.00000  Uiso   1.00
O693   O     0.75725   0.16667   0.45284   0.00000  Uiso   1.00
O694   O     0.90942   0.16666   0.54716   0.00000  Uiso   1.00
Zn695  Zn    0.83333   0.16666   0.55104   0.00000  Uiso   1.00
Zn696  Zn    0.83333   0.16667   0.44896   0.00000  Uiso   1.00
C697   C     0.16639   0.42012   0.50032   0.00000  Uiso   1.00
C698   C     0.20221   0.35480   0.53195   0.00000  Uiso   1.00
C699   C     0.16727   0.62403   0.49929   0.00000  Uiso   1.00
C700   C     0.16606   0.37597   0.50070   0.00000  Uiso   1.00
C701   C     0.18795   0.53327   0.35824   0.00000  Uiso   1.00
C702   C     0.14539   0.46673   0.64176   0.00000  Uiso   1.00
C703   C     0.18769   0.53297   0.64393   0.00000  Uiso   1.00
C704   C     0.14563   0.46704   0.35607   0.00000  Uiso   1.00
C705   C     0.21237   0.57037   0.38188   0.00000  Uiso   1.00
C706   C     0.26378   0.56849   0.40477   0.00000  Uiso   1.00
C707   C     0.28862   0.60454   0.42431   0.00000  Uiso   1.00
C708   C     0.16695   0.57988   0.49968   0.00000  Uiso   1.00
C709   C     0.26298   0.64308   0.41951   0.00000  Uiso   1.00
C710   C     0.21267   0.64563   0.39485   0.00000  Uiso   1.00
C711   C     0.18730   0.60941   0.37617   0.00000  Uiso   1.00
C712   C     0.12108   0.42958   0.61815   0.00000  Uiso   1.00
C713   C     0.06973   0.43137   0.59515   0.00000  Uiso   1.00
C714   C     0.04500   0.39528   0.57562   0.00000  Uiso   1.00
C715   C     0.07071   0.35677   0.58057   0.00000  Uiso   1.00
C716   C     0.12095   0.35431   0.60534   0.00000  Uiso   1.00
C717   C     0.14620   0.39058   0.62399   0.00000  Uiso   1.00
C718   C     0.06721   0.49931   0.48829   0.00000  Uiso   1.00
C719   C     0.26612   0.50068   0.51171   0.00000  Uiso   1.00
C720   C     0.01230   0.49612   0.48243   0.00000  Uiso   1.00
C721   C     0.32104   0.50386   0.51757   0.00000  Uiso   1.00
C722   C     0.13067   0.35502   0.46863   0.00000  Uiso   1.00
C723   C     0.20266   0.64498   0.53137   0.00000  Uiso   1.00
C724   C     0.13113   0.64520   0.46805   0.00000  Uiso   1.00
H725   H     0.32566   0.48619   0.44973   0.00000  Uiso   1.00
H726   H     0.32811   0.60274   0.44243   0.00000  Uiso   1.00
H727   H     0.28233   0.33772   0.43434   0.00000  Uiso   1.00
H728   H     0.19321   0.34230   0.39041   0.00000  Uiso   1.00
H729   H     0.14838   0.61179   0.35703   0.00000  Uiso   1.00
H730   H     0.04848   0.46042   0.59346   0.00000  Uiso   1.00
H731   H     0.00557   0.39702   0.55741   0.00000  Uiso   1.00
H732   H     0.05144   0.66209   0.56575   0.00000  Uiso   1.00
H733   H     0.14046   0.65767   0.60988   0.00000  Uiso   1.00
H734   H     0.18508   0.38826   0.64322   0.00000  Uiso   1.00
H735   H     0.00768   0.51378   0.55028   0.00000  Uiso   1.00
H736   H     0.10286   0.37204   0.44450   0.00000  Uiso   1.00
H737   H     0.23048   0.62797   0.55550   0.00000  Uiso   1.00
H738   H     0.10352   0.62838   0.44367   0.00000  Uiso   1.00
H739   H     0.22982   0.37162   0.55632   0.00000  Uiso   1.00
H740   H     0.20479   0.55918   0.62687   0.00000  Uiso   1.00
H741   H     0.12854   0.44083   0.37313   0.00000  Uiso   1.00
H742   H     0.28498   0.53941   0.40634   0.00000  Uiso   1.00
N743   N     0.16665   0.49999   0.61907   0.00000  Uiso   1.00
N744   N     0.16668   0.50001   0.38093   0.00000  Uiso   1.00
O745   O     0.16666   0.43892   0.53821   0.00000  Uiso   1.00
O746   O     0.16667   0.56108   0.46179   0.00000  Uiso   1.00
O747   O     0.16666   0.43893   0.46176   0.00000  Uiso   1.00
O748   O     0.16667   0.56107   0.53824   0.00000  Uiso   1.00
O749   O     0.09058   0.50000   0.52928   0.00000  Uiso   1.00
O750   O     0.24275   0.50000   0.47072   0.00000  Uiso   1.00
O751   O     0.09058   0.50000   0.45284   0.00000  Uiso   1.00
O752   O     0.24275   0.50000   0.54716   0.00000  Uiso   1.00
Zn753  Zn    0.16667   0.49999   0.55104   0.00000  Uiso   1.00
Zn754  Zn    0.16667   0.50001   0.44896   0.00000  Uiso   1.00
C755   C     0.49972   0.42012   0.50032   0.00000  Uiso   1.00
C756   C     0.53554   0.35480   0.53195   0.00000  Uiso   1.00
C757   C     0.50060   0.62403   0.49929   0.00000  Uiso   1.00
C758   C     0.49940   0.37597   0.50070   0.00000  Uiso   1.00
C759   C     0.52128   0.53327   0.35824   0.00000  Uiso   1.00
C760   C     0.47873   0.46673   0.64176   0.00000  Uiso   1.00
C761   C     0.52103   0.53297   0.64393   0.00000  Uiso   1.00
C762   C     0.47896   0.46704   0.35607   0.00000  Uiso   1.00
C763   C     0.54570   0.57037   0.38188   0.00000  Uiso   1.00
C764   C     0.59711   0.56849   0.40477   0.00000  Uiso   1.00
C765   C     0.62196   0.60454   0.42431   0.00000  Uiso   1.00
C766   C     0.50028   0.57988   0.49968   0.00000  Uiso   1.00
C767   C     0.59631   0.64308   0.41951   0.00000  Uiso   1.00
C768   C     0.54600   0.64563   0.39485   0.00000  Uiso   1.00
C769   C     0.52064   0.60941   0.37617   0.00000  Uiso   1.00
C770   C     0.45441   0.42958   0.61815   0.00000  Uiso   1.00
C771   C     0.40306   0.43137   0.59515   0.00000  Uiso   1.00
C772   C     0.37834   0.39528   0.57562   0.00000  Uiso   1.00
C773   C     0.40404   0.35677   0.58057   0.00000  Uiso   1.00
C774   C     0.45428   0.35431   0.60534   0.00000  Uiso   1.00
C775   C     0.47954   0.39058   0.62399   0.00000  Uiso   1.00
C776   C     0.40054   0.49931   0.48829   0.00000  Uiso   1.00
C777   C     0.59946   0.50068   0.51171   0.00000  Uiso   1.00
C778   C     0.34563   0.49612   0.48243   0.00000  Uiso   1.00
C779   C     0.65437   0.50386   0.51757   0.00000  Uiso   1.00
C780   C     0.46401   0.35502   0.46863   0.00000  Uiso   1.00
C781   C     0.53600   0.64498   0.53137   0.00000  Uiso   1.00
C782   C     0.46446   0.64520   0.46805   0.00000  Uiso   1.00
H783   H     0.65899   0.48619   0.44973   0.00000  Uiso   1.00
H784   H     0.66144   0.60274   0.44243   0.00000  Uiso   1.00
H785   H     0.61567   0.33772   0.43434   0.00000  Uiso   1.00
H786   H     0.52654   0.34230   0.39041   0.00000  Uiso   1.00
H787   H     0.48171   0.61179   0.35703   0.00000  Uiso   1.00
H788   H     0.38181   0.46042   0.59346   0.00000  Uiso   1.00
H789   H     0.33890   0.39702   0.55741   0.00000  Uiso   1.00
H790   H     0.38477   0.66209   0.56575   0.00000  Uiso   1.00
H791   H     0.47379   0.65767   0.60988   0.00000  Uiso   1.00
H792   H     0.51841   0.38826   0.64322   0.00000  Uiso   1.00
H793   H     0.34101   0.51378   0.55028   0.00000  Uiso   1.00
H794   H     0.43619   0.37204   0.44450   0.00000  Uiso   1.00
H795   H     0.56381   0.62797   0.55550   0.00000  Uiso   1.00
H796   H     0.43685   0.62838   0.44367   0.00000  Uiso   1.00
H797   H     0.56316   0.37162   0.55632   0.00000  Uiso   1.00
H798   H     0.53813   0.55918   0.62687   0.00000  Uiso   1.00
H799   H     0.46187   0.44083   0.37313   0.00000  Uiso   1.00
H800   H     0.61831   0.53941   0.40634   0.00000  Uiso   1.00
N801   N     0.49999   0.49999   0.61907   0.00000  Uiso   1.00
N802   N     0.50001   0.50001   0.38093   0.00000  Uiso   1.00
O803   O     0.50000   0.43892   0.53821   0.00000  Uiso   1.00
O804   O     0.50000   0.56108   0.46179   0.00000  Uiso   1.00
O805   O     0.50000   0.43893   0.46176   0.00000  Uiso   1.00
O806   O     0.50000   0.56107   0.53824   0.00000  Uiso   1.00
O807   O     0.42392   0.50000   0.52928   0.00000  Uiso   1.00
O808   O     0.57608   0.50000   0.47072   0.00000  Uiso   1.00
O809   O     0.42392   0.50000   0.45284   0.00000  Uiso   1.00
O810   O     0.57608   0.50000   0.54716   0.00000  Uiso   1.00
Zn811  Zn    0.50000   0.49999   0.55104   0.00000  Uiso   1.00
Zn812  Zn    0.50000   0.50001   0.44896   0.00000  Uiso   1.00
C813   C     0.83305   0.42012   0.50032   0.00000  Uiso   1.00
C814   C     0.86887   0.35480   0.53195   0.00000  Uiso   1.00
C815   C     0.83394   0.62403   0.49929   0.00000  Uiso   1.00
C816   C     0.83273   0.37597   0.50070   0.00000  Uiso   1.00
C817   C     0.85461   0.53327   0.35824   0.00000  Uiso   1.00
C818   C     0.81206   0.46673   0.64176   0.00000  Uiso   1.00
C819   C     0.85436   0.53297   0.64393   0.00000  Uiso   1.00
C820   C     0.81230   0.46704   0.35607   0.00000  Uiso   1.00
C821   C     0.87904   0.57037   0.38188   0.00000  Uiso   1.00
C822   C     0.93045   0.56849   0.40477   0.00000  Uiso   1.00
C823   C     0.95529   0.60454   0.42431   0.00000  Uiso   1.00
C824   C     0.83361   0.57988   0.49968   0.00000  Uiso   1.00
C825   C     0.92964   0.64308   0.41951   0.00000  Uiso   1.00
C826   C     0.87934   0.64563   0.39485   0.00000  Uiso   1.00
C827   C     0.85397   0.60941   0.37617   0.00000  Uiso   1.00
C828   C     0.78775   0.42958   0.61815   0.00000  Uiso   1.00
C829   C     0.73639   0.43137   0.59515   0.00000  Uiso   1.00
C830   C     0.71167   0.39528   0.57562   0.00000  Uiso   1.00
C831   C     0.73737   0.35677   0.58057   0.00000  Uiso   1.00
C832   C     0.78762   0.35431   0.60534   0.00000  Uiso   1.00
C833   C     0.81287   0.39058   0.62399   0.00000  Uiso   1.00
C834   C     0.73388   0.49931   0.48829   0.00000  Uiso   1.00
C835   C     0.93279   0.50068   0.51171   0.00000  Uiso   1.00
C836   C     0.67896   0.49612   0.48243   0.00000  Uiso   1.00
C837   C     0.98771   0.50386   0.51757   0.00000  Uiso   1.00
C838   C     0.79734   0.35502   0.46863   0.00000  Uiso   1.00
C839   C     0.86933   0.64498   0.53137   0.00000  Uiso   1.00
C840   C     0.79780   0.64520   0.46805   0.00000  Uiso   1.00
H841   H     0.99232   0.48619   0.44973   0.00000  Uiso   1.00
H842   H     0.99478   0.60274   0.44243   0.00000  Uiso   1.00
H843   H     0.94900   0.33772   0.43434   0.00000  Uiso   1.00
H844   H     0.85987   0.34230   0.39041   0.00000  Uiso   1.00
H845   H     0.81504   0.61179   0.35703   0.00000  Uiso   1.00
H846   H     0.71515   0.46042   0.59346   0.00000  Uiso   1.00
H847   H     0.67223   0.39702   0.55741   0.00000  Uiso   1.00
H848   H     0.71811   0.66209   0.56575   0.00000  Uiso   1.00
H849   H     0.80712   0.65767   0.60988   0.00000  Uiso   1.00
H850   H     0.85175   0.38826   0.64322   0.00000  Uiso   1.00
H851   H     0.67435   0.51378   0.55028   0.00000  Uiso   1.00
H852   H     0.76952   0.37204   0.44450   0.00000  Uiso   1.00
H853   H     0.89715   0.62797   0.55550   0.00000  Uiso   1.00
H854   H     0.77018   0.62838   0.44367   0.00000  Uiso   1.00
H855   H     0.89649   0.37162   0.55632   0.00000  Uiso   1.00
H856   H     0.87146   0.55918   0.62687   0.00000  Uiso   1.00
H857   H     0.79520   0.44083   0.37313   0.00000  Uiso   1.00
H858   H     0.95164   0.53941   0.40634   0.00000  Uiso   1.00
N859   N     0.83332   0.49999   0.61907   0.00000  Uiso   1.00
N860   N     0.83335   0.50001   0.38093   0.00000  Uiso   1.00
O861   O     0.83333   0.43892   0.53821   0.00000  Uiso   1.00
O862   O     0.83334   0.56108   0.46179   0.00000  Uiso   1.00
O863   O     0.83333   0.43893   0.46176   0.00000  Uiso   1.00
O864   O     0.83334   0.56107   0.53824   0.00000  Uiso   1.00
O865   O     0.75725   0.50000   0.52928   0.00000  Uiso   1.00
O866   O     0.90942   0.50000   0.47072   0.00000  Uiso   1.00
O867   O     0.75725   0.50000   0.45284   0.00000  Uiso   1.00
O868   O     0.90942   0.50000   0.54716   0.00000  Uiso   1.00
Zn869  Zn    0.83333   0.49999   0.55104   0.00000  Uiso   1.00
Zn870  Zn    0.83333   0.50001   0.44896   0.00000  Uiso   1.00
C871   C     0.16639   0.75346   0.50032   0.00000  Uiso   1.00
C872   C     0.20221   0.68813   0.53195   0.00000  Uiso   1.00
C873   C     0.16727   0.95736   0.49929   0.00000  Uiso   1.00
C874   C     0.16606   0.70930   0.50070   0.00000  Uiso   1.00
C875   C     0.18795   0.86660   0.35824   0.00000  Uiso   1.00
C876   C     0.14539   0.80006   0.64176   0.00000  Uiso   1.00
C877   C     0.18769   0.86630   0.64393   0.00000  Uiso   1.00
C878   C     0.14563   0.80037   0.35607   0.00000  Uiso   1.00
C879   C     0.21237   0.90370   0.38188   0.00000  Uiso   1.00
C880   C     0.26378   0.90183   0.40477   0.00000  Uiso   1.00
C881   C     0.28862   0.93787   0.42431   0.00000  Uiso   1.00
C882   C     0.16695   0.91321   0.49968   0.00000  Uiso   1.00
C883   C     0.26298   0.97642   0.41951   0.00000  Uiso   1.00
C884   C     0.21267   0.97896   0.39485   0.00000  Uiso   1.00
C885   C     0.18730   0.94274   0.37617   0.00000  Uiso   1.00
C886   C     0.12108   0.76291   0.61815   0.00000  Uiso   1.00
C887   C     0.06973   0.76471   0.59515   0.00000  Uiso   1.00
C888   C     0.04500   0.72861   0.57562   0.00000  Uiso   1.00
C889   C     0.07071   0.69010   0.58057   0.00000  Uiso   1.00
C890   C     0.12095   0.68764   0.60534   0.00000  Uiso   1.00
C891   C     0.14620   0.72391   0.62399   0.00000  Uiso   1.00
C892   C     0.06721   0.83265   0.48829   0.00000  Uiso   1.00
C893   C     0.26612   0.83401   0.51171   0.00000  Uiso   1.00
C894   C     0.01230   0.82946   0.48243   0.00000  Uiso   1.00
C895   C     0.32104   0.83719   0.51757   0.00000  Uiso   1.00
C896   C     0.13067   0.68835   0.46863   0.00000  Uiso   1.00
C897   C     0.20266   0.97831   0.53137   0.00000  Uiso   1.00
C898   C     0.13113   0.97853   0.46805   0.00000  Uiso   1.00
H899   H     0.32566   0.81953   0.44973   0.00000  Uiso   1.00
H900   H     0.32811   0.93607   0.44243   0.00000  Uiso   1.00
H901   H     0.28233   0.67106   0.43434   0.00000  Uiso   1.00
H902   H     0.19321   0.67563   0.39041   0.00000  Uiso   1.00
H903   H     0.14838   0.94512   0.35703   0.00000  Uiso   1.00
H904   H     0.04848   0.79376   0.59346   0.00000  Uiso   1.00
H905   H     0.00557   0.73035   0.55741   0.00000  Uiso   1.00
H906   H     0.05144   0.99543   0.56575   0.00000  Uiso   1.00
H907   H     0.14046   0.99100   0.60988   0.00000  Uiso   1.00
H908   H     0.18508   0.72159   0.64322   0.00000  Uiso   1.00
H909   H     0.00768   0.84711   0.55028   0.00000  Uiso   1.00
H910   H     0.10286   0.70537   0.44450   0.00000  Uiso   1.00
H911   H     0.23048   0.96130   0.55550   0.00000  Uiso   1.00
H912   H     0.10352   0.96172   0.44367   0.00000  Uiso   1.00
H913   H     0.22982   0.70495   0.55632   0.00000  Uiso   1.00
H914   H     0.20479   0.89251   0.62687   0.00000  Uiso   1.00
H915   H     0.12854   0.77416   0.37313   0.00000  Uiso   1.00
H916   H     0.28498   0.87275   0.40634   0.00000  Uiso   1.00
N917   N     0.16665   0.83332   0.61907   0.00000  Uiso   1.00
N918   N     0.16668   0.83334   0.38093   0.00000  Uiso   1.00
O919   O     0.16666   0.77225   0.53821   0.00000  Uiso   1.00
O920   O     0.16667   0.89442   0.46179   0.00000  Uiso   1.00
O921   O     0.16666   0.77226   0.46176   0.00000  Uiso   1.00
O922   O     0.16667   0.89441   0.53824   0.00000  Uiso   1.00
O923   O     0.09058   0.83333   0.52928   0.00000  Uiso   1.00
O924   O     0.24275   0.83334   0.47072   0.00000  Uiso   1.00
O925   O     0.09058   0.83334   0.45284   0.00000  Uiso   1.00
O926   O     0.24275   0.83333   0.54716   0.00000  Uiso   1.00
Zn927  Zn    0.16667   0.83333   0.55104   0.00000  Uiso   1.00
Zn928  Zn    0.16667   0.83334   0.44896   0.00000  Uiso   1.00
C929   C     0.49972   0.75346   0.50032   0.00000  Uiso   1.00
C930   C     0.53554   0.68813   0.53195   0.00000  Uiso   1.00
C931   C     0.50060   0.95736   0.49929   0.00000  Uiso   1.00
C932   C     0.49940   0.70930   0.50070   0.00000  Uiso   1.00
C933   C     0.52128   0.86660   0.35824   0.00000  Uiso   1.00
C934   C     0.47873   0.80006   0.64176   0.00000  Uiso   1.00
C935   C     0.52103   0.86630   0.64393   0.00000  Uiso   1.00
C936   C     0.47896   0.80037   0.35607   0.00000  Uiso   1.00
C937   C     0.54570   0.90370   0.38188   0.00000  Uiso   1.00
C938   C     0.59711   0.90183   0.40477   0.00000  Uiso   1.00
C939   C     0.62196   0.93787   0.42431   0.00000  Uiso   1.00
C940   C     0.50028   0.91321   0.49968   0.00000  Uiso   1.00
C941   C     0.59631   0.97642   0.41951   0.00000  Uiso   1.00
C942   C     0.54600   0.97896   0.39485   0.00000  Uiso   1.00
C943   C     0.52064   0.94274   0.37617   0.00000  Uiso   1.00
C944   C     0.45441   0.76291   0.61815   0.00000  Uiso   1.00
C945   C     0.40306   0.76471   0.59515   0.00000  Uiso   1.00
C946   C     0.37834   0.72861   0.57562   0.00000  Uiso   1.00
C947   C     0.40404   0.69010   0.58057   0.00000  Uiso   1.00
C948   C     0.45428   0.68764   0.60534   0.00000  Uiso   1.00
C949   C     0.47954   0.72391   0.62399   0.00000  Uiso   1.00
C950   C     0.40054   0.83265   0.48829   0.00000  Uiso   1.00
C951   C     0.59946   0.83401   0.51171   0.00000  Uiso   1.00
C952   C     0.34563   0.82946   0.48243   0.00000  Uiso   1.00
C953   C     0.65437   0.83719   0.51757   0.00000  Uiso   1.00
C954   C     0.46401   0.68835   0.46863   0.00000  Uiso   1.00
C955   C     0.53600   0.97831   0.53137   0.00000  Uiso   1.00
C956   C     0.46446   0.97853   0.46805   0.00000  Uiso   1.00
H957   H     0.65899   0.81953   0.44973   0.00000  Uiso   1.00
H958   H     0.66144   0.93607   0.44243   0.00000  Uiso   1.00
H959   H     0.61567   0.67106   0.43434   0.00000  Uiso   1.00
H960   H     0.52654   0.67563   0.39041   0.00000  Uiso   1.00
H961   H     0.48171   0.94512   0.35703   0.00000  Uiso   1.00
H962   H     0.38181   0.79376   0.59346   0.00000  Uiso   1.00
H963   H     0.33890   0.73035   0.55741   0.00000  Uiso   1.00
H964   H     0.38477   0.99543   0.56575   0.00000  Uiso   1.00
H965   H     0.47379   0.99100   0.60988   0.00000  Uiso   1.00
H966   H     0.51841   0.72159   0.64322   0.00000  Uiso   1.00
H967   H     0.34101   0.84711   0.55028   0.00000  Uiso   1.00
H968   H     0.43619   0.70537   0.44450   0.00000  Uiso   1.00
H969   H     0.56381   0.96130   0.55550   0.00000  Uiso   1.00
H970   H     0.43685   0.96172   0.44367   0.00000  Uiso   1.00
H971   H     0.56316   0.70495   0.55632   0.00000  Uiso   1.00
H972   H     0.53813   0.89251   0.62687   0.00000  Uiso   1.00
H973   H     0.46187   0.77416   0.37313   0.00000  Uiso   1.00
H974   H     0.61831   0.87275   0.40634   0.00000  Uiso   1.00
N975   N     0.49999   0.83332   0.61907   0.00000  Uiso   1.00
N976   N     0.50001   0.83334   0.38093   0.00000  Uiso   1.00
O977   O     0.50000   0.77225   0.53821   0.00000  Uiso   1.00
O978   O     0.50000   0.89442   0.46179   0.00000  Uiso   1.00
O979   O     0.50000   0.77226   0.46176   0.00000  Uiso   1.00
O980   O     0.50000   0.89441   0.53824   0.00000  Uiso   1.00
O981   O     0.42392   0.83333   0.52928   0.00000  Uiso   1.00
O982   O     0.57608   0.83334   0.47072   0.00000  Uiso   1.00
O983   O     0.42392   0.83334   0.45284   0.00000  Uiso   1.00
O984   O     0.57608   0.83333   0.54716   0.00000  Uiso   1.00
Zn985  Zn    0.50000   0.83333   0.55104   0.00000  Uiso   1.00
Zn986  Zn    0.50000   0.83334   0.44896   0.00000  Uiso   1.00
C987   C     0.83305   0.75346   0.50032   0.00000  Uiso   1.00
C988   C     0.86887   0.68813   0.53195   0.00000  Uiso   1.00
C989   C     0.83394   0.95736   0.49929   0.00000  Uiso   1.00
C990   C     0.83273   0.70930   0.50070   0.00000  Uiso   1.00
C991   C     0.85461   0.86660   0.35824   0.00000  Uiso   1.00
C992   C     0.81206   0.80006   0.64176   0.00000  Uiso   1.00
C993   C     0.85436   0.86630   0.64393   0.00000  Uiso   1.00
C994   C     0.81230   0.80037   0.35607   0.00000  Uiso   1.00
C995   C     0.87904   0.90370   0.38188   0.00000  Uiso   1.00
C996   C     0.93045   0.90183   0.40477   0.00000  Uiso   1.00
C997   C     0.95529   0.93787   0.42431   0.00000  Uiso   1.00
C998   C     0.83361   0.91321   0.49968   0.00000  Uiso   1.00
C999   C     0.92964   0.97642   0.41951   0.00000  Uiso   1.00
C1000  C     0.87934   0.97896   0.39485   0.00000  Uiso   1.00
C1001  C     0.85397   0.94274   0.37617   0.00000  Uiso   1.00
C1002  C     0.78775   0.76291   0.61815   0.00000  Uiso   1.00
C1003  C     0.73639   0.76471   0.59515   0.00000  Uiso   1.00
C1004  C     0.71167   0.72861   0.57562   0.00000  Uiso   1.00
C1005  C     0.73737   0.69010   0.58057   0.00000  Uiso   1.00
C1006  C     0.78762   0.68764   0.60534   0.00000  Uiso   1.00
C1007  C     0.81287   0.72391   0.62399   0.00000  Uiso   1.00
C1008  C     0.73388   0.83265   0.48829   0.00000  Uiso   1.00
C1009  C     0.93279   0.83401   0.51171   0.00000  Uiso   1.00
C1010  C     0.67896   0.82946   0.48243   0.00000  Uiso   1.00
C1011  C     0.98771   0.83719   0.51757   0.00000  Uiso   1.00
C1012  C     0.79734   0.68835   0.46863   0.00000  Uiso   1.00
C1013  C     0.86933   0.97831   0.53137   0.00000  Uiso   1.00
C1014  C     0.79780   0.97853   0.46805   0.00000  Uiso   1.00
H1015  H     0.99232   0.81953   0.44973   0.00000  Uiso   1.00
H1016  H     0.99478   0.93607   0.44243   0.00000  Uiso   1.00
H1017  H     0.94900   0.67106   0.43434   0.00000  Uiso   1.00
H1018  H     0.85987   0.67563   0.39041   0.00000  Uiso   1.00
H1019  H     0.81504   0.94512   0.35703   0.00000  Uiso   1.00
H1020  H     0.71515   0.79376   0.59346   0.00000  Uiso   1.00
H1021  H     0.67223   0.73035   0.55741   0.00000  Uiso   1.00
H1022  H     0.71811   0.99543   0.56575   0.00000  Uiso   1.00
H1023  H     0.80712   0.99100   0.60988   0.00000  Uiso   1.00
H1024  H     0.85175   0.72159   0.64322   0.00000  Uiso   1.00
H1025  H     0.67435   0.84711   0.55028   0.00000  Uiso   1.00
H1026  H     0.76952   0.70537   0.44450   0.00000  Uiso   1.00
H1027  H     0.89715   0.96130   0.55550   0.00000  Uiso   1.00
H1028  H     0.77018   0.96172   0.44367   0.00000  Uiso   1.00
H1029  H     0.89649   0.70495   0.55632   0.00000  Uiso   1.00
H1030  H     0.87146   0.89251   0.62687   0.00000  Uiso   1.00
H1031  H     0.79520   0.77416   0.37313   0.00000  Uiso   1.00
H1032  H     0.95164   0.87275   0.40634   0.00000  Uiso   1.00
N1033  N     0.83332   0.83332   0.61907   0.00000  Uiso   1.00
N1034  N     0.83335   0.83334   0.38093   0.00000  Uiso   1.00
O1035  O     0.83333   0.77225   0.53821   0.00000  Uiso   1.00
O1036  O     0.83334   0.89442   0.46179   0.00000  Uiso   1.00
O1037  O     0.83333   0.77226   0.46176   0.00000  Uiso   1.00
O1038  O     0.83334   0.89441   0.53824   0.00000  Uiso   1.00
O1039  O     0.75725   0.83333   0.52928   0.00000  Uiso   1.00
O1040  O     0.90942   0.83334   0.47072   0.00000  Uiso   1.00
O1041  O     0.75725   0.83334   0.45284   0.00000  Uiso   1.00
O1042  O     0.90942   0.83333   0.54716   0.00000  Uiso   1.00
Zn1043 Zn    0.83333   0.83333   0.55104   0.00000  Uiso   1.00
Zn1044 Zn    0.83333   0.83334   0.44896   0.00000  Uiso   1.00
C1045  C     0.16639   0.08679   0.83365   0.00000  Uiso   1.00
C1046  C     0.20221   0.02147   0.86528   0.00000  Uiso   1.00
C1047  C     0.16727   0.29070   0.83263   0.00000  Uiso   1.00
C1048  C     0.16606   0.04264   0.83404   0.00000  Uiso   1.00
C1049  C     0.18795   0.19994   0.69157   0.00000  Uiso   1.00
C1050  C     0.14539   0.13339   0.97510   0.00000  Uiso   1.00
C1051  C     0.18769   0.19963   0.97726   0.00000  Uiso   1.00
C1052  C     0.14563   0.13371   0.68941   0.00000  Uiso   1.00
C1053  C     0.21237   0.23704   0.71522   0.00000  Uiso   1.00
C1054  C     0.26378   0.23516   0.73810   0.00000  Uiso   1.00
C1055  C     0.28862   0.27121   0.75765   0.00000  Uiso   1.00
C1056  C     0.16695   0.24654   0.83302   0.00000  Uiso   1.00
C1057  C     0.26298   0.30975   0.75284   0.00000  Uiso   1.00
C1058  C     0.21267   0.31230   0.72818   0.00000  Uiso   1.00
C1059  C     0.18730   0.27607   0.70950   0.00000  Uiso   1.00
C1060  C     0.12108   0.09624   0.95148   0.00000  Uiso   1.00
C1061  C     0.06973   0.09804   0.92848   0.00000  Uiso   1.00
C1062  C     0.04500   0.06195   0.90895   0.00000  Uiso   1.00
C1063  C     0.07071   0.02344   0.91390   0.00000  Uiso   1.00
C1064  C     0.12095   0.02097   0.93867   0.00000  Uiso   1.00
C1065  C     0.14620   0.05724   0.95732   0.00000  Uiso   1.00
C1066  C     0.06721   0.16598   0.82162   0.00000  Uiso   1.00
C1067  C     0.26612   0.16735   0.84504   0.00000  Uiso   1.00
C1068  C     0.01230   0.16279   0.81577   0.00000  Uiso   1.00
C1069  C     0.32104   0.17052   0.85090   0.00000  Uiso   1.00
C1070  C     0.13067   0.02169   0.80197   0.00000  Uiso   1.00
C1071  C     0.20266   0.31165   0.86470   0.00000  Uiso   1.00
C1072  C     0.13113   0.31187   0.80138   0.00000  Uiso   1.00
H1073  H     0.32566   0.15286   0.78306   0.00000  Uiso   1.00
H1074  H     0.32811   0.26940   0.77577   0.00000  Uiso   1.00
H1075  H     0.28233   0.00439   0.76767   0.00000  Uiso   1.00
H1076  H     0.19321   0.00896   0.72374   0.00000  Uiso   1.00
H1077  H     0.14838   0.27845   0.69036   0.00000  Uiso   1.00
H1078  H     0.04848   0.12709   0.92680   0.00000  Uiso   1.00
H1079  H     0.00557   0.06369   0.89074   0.00000  Uiso   1.00
H1080  H     0.05144   0.32876   0.89909   0.00000  Uiso   1.00
H1081  H     0.14046   0.32434   0.94321   0.00000  Uiso   1.00
H1082  H     0.18508   0.05493   0.97655   0.00000  Uiso   1.00
H1083  H     0.00768   0.18045   0.88361   0.00000  Uiso   1.00
H1084  H     0.10286   0.03870   0.77783   0.00000  Uiso   1.00
H1085  H     0.23048   0.29463   0.88883   0.00000  Uiso   1.00
H1086  H     0.10352   0.29505   0.77701   0.00000  Uiso   1.00
H1087  H     0.22982   0.03829   0.88966   0.00000  Uiso   1.00
H1088  H     0.20479   0.22584   0.96020   0.00000  Uiso   1.00
H1089  H     0.12854   0.10749   0.70647   0.00000  Uiso   1.00
H1090  H     0.28498   0.20608   0.73967   0.00000  Uiso   1.00
N1091  N     0.16665   0.16666   0.95240   0.00000  Uiso   1.00
N1092  N     0.16668   0.16668   0.71427   0.00000  Uiso   1.00
O1093  O     0.16666   0.10558   0.87154   0.00000  Uiso   1.00
O1094  O     0.16667   0.22775   0.79513   0.00000  Uiso   1.00
O1095  O     0.16666   0.10559   0.79510   0.00000  Uiso   1.00
O1096  O     0.16667   0.22774   0.87157   0.00000  Uiso   1.00
O1097  O     0.09058   0.16666   0.86261   0.00000  Uiso   1.00
O1098  O     0.24275   0.16667   0.80405   0.00000  Uiso   1.00
O1099  O     0.09058   0.16667   0.78617   0.00000  Uiso   1.00
O1100  O     0.24275   0.16666   0.88050   0.00000  Uiso   1.00
Zn1101 Zn    0.16667   0.16666   0.88437   0.00000  Uiso   1.00
Zn1102 Zn    0.16667   0.16667   0.78229   0.00000  Uiso   1.00
C1103  C     0.49972   0.08679   0.83365   0.00000  Uiso   1.00
C1104  C     0.53554   0.02147   0.86528   0.00000  Uiso   1.00
C1105  C     0.50060   0.29070   0.83263   0.00000  Uiso   1.00
C1106  C     0.49940   0.04264   0.83404   0.00000  Uiso   1.00
C1107  C     0.52128   0.19994   0.69157   0.00000  Uiso   1.00
C1108  C     0.47873   0.13339   0.97510   0.00000  Uiso   1.00
C1109  C     0.52103   0.19963   0.97726   0.00000  Uiso   1.00
C1110  C     0.47896   0.13371   0.68941   0.00000  Uiso   1.00
C1111  C     0.54570   0.23704   0.71522   0.00000  Uiso   1.00
C1112  C     0.59711   0.23516   0.73810   0.00000  Uiso   1.00
C1113  C     0.62196   0.27121   0.75765   0.00000  Uiso   1.00
C1114  C     0.50028   0.24654   0.83302   0.00000  Uiso   1.00
C1115  C     0.59631   0.30975   0.75284   0.00000  Uiso   1.00
C1116  C     0.54600   0.31230   0.72818   0.00000  Uiso   1.00
C1117  C     0.52064   0.27607   0.70950   0.00000  Uiso   1.00
C1118  C     0.45441   0.09624   0.95148   0.00000  Uiso   1.00
C1119  C     0.40306   0.09804   0.92848   0.00000  Uiso   1.00
C1120  C     0.37834   0.06195   0.90895   0.00000  Uiso   1.00
C1121  C     0.40404   0.02344   0.91390   0.00000  Uiso   1.00
C1122  C     0.45428   0.02097   0.93867   0.00000  Uiso   1.00
C1123  C     0.47954   0.05724   0.95732   0.00000  Uiso   1.00
C1124  C     0.40054   0.16598   0.82162   0.00000  Uiso   1.00
C1125  C     0.59946   0.16735   0.84504   0.00000  Uiso   1.00
C1126  C     0.34563   0.16279   0.81577   0.00000  Uiso   1.00
C1127  C     0.65437   0.17052   0.85090   0.00000  Uiso   1.00
C1128  C     0.46401   0.02169   0.80197   0.00000  Uiso   1.00
C1129  C     0.53600   0.31165   0.86470   0.00000  Uiso   1.00
C1130  C     0.46446   0.31187   0.80138   0.00000  Uiso   1.00
H1131  H     0.65899   0.15286   0.78306   0.00000  Uiso   1.00
H1132  H     0.66144   0.26940   0.77577   0.00000  Uiso   1.00
H1133  H     0.61567   0.00439   0.76767   0.00000  Uiso   1.00
H1134  H     0.52654   0.00896   0.72374   0.00000  Uiso   1.00
H1135  H     0.48171   0.27845   0.69036   0.00000  Uiso   1.00
H1136  H     0.38181   0.12709   0.92680   0.00000  Uiso   1.00
H1137  H     0.33890   0.06369   0.89074   0.00000  Uiso   1.00
H1138  H     0.38477   0.32876   0.89909   0.00000  Uiso   1.00
H1139  H     0.47379   0.32434   0.94321   0.00000  Uiso   1.00
H1140  H     0.51841   0.05493   0.97655   0.00000  Uiso   1.00
H1141  H     0.34101   0.18045   0.88361   0.00000  Uiso   1.00
H1142  H     0.43619   0.03870   0.77783   0.00000  Uiso   1.00
H1143  H     0.56381   0.29463   0.88883   0.00000  Uiso   1.00
H1144  H     0.43685   0.29505   0.77701   0.00000  Uiso   1.00
H1145  H     0.56316   0.03829   0.88966   0.00000  Uiso   1.00
H1146  H     0.53813   0.22584   0.96020   0.00000  Uiso   1.00
H1147  H     0.46187   0.10749   0.70647   0.00000  Uiso   1.00
H1148  H     0.61831   0.20608   0.73967   0.00000  Uiso   1.00
N1149  N     0.49999   0.16666   0.95240   0.00000  Uiso   1.00
N1150  N     0.50001   0.16668   0.71427   0.00000  Uiso   1.00
O1151  O     0.50000   0.10558   0.87154   0.00000  Uiso   1.00
O1152  O     0.50000   0.22775   0.79513   0.00000  Uiso   1.00
O1153  O     0.50000   0.10559   0.79510   0.00000  Uiso   1.00
O1154  O     0.50000   0.22774   0.87157   0.00000  Uiso   1.00
O1155  O     0.42392   0.16666   0.86261   0.00000  Uiso   1.00
O1156  O     0.57608   0.16667   0.80405   0.00000  Uiso   1.00
O1157  O     0.42392   0.16667   0.78617   0.00000  Uiso   1.00
O1158  O     0.57608   0.16666   0.88050   0.00000  Uiso   1.00
Zn1159 Zn    0.50000   0.16666   0.88437   0.00000  Uiso   1.00
Zn1160 Zn    0.50000   0.16667   0.78229   0.00000  Uiso   1.00
C1161  C     0.83305   0.08679   0.83365   0.00000  Uiso   1.00
C1162  C     0.86887   0.02147   0.86528   0.00000  Uiso   1.00
C1163  C     0.83394   0.29070   0.83263   0.00000  Uiso   1.00
C1164  C     0.83273   0.04264   0.83404   0.00000  Uiso   1.00
C1165  C     0.85461   0.19994   0.69157   0.00000  Uiso   1.00
C1166  C     0.81206   0.13339   0.97510   0.00000  Uiso   1.00
C1167  C     0.85436   0.19963   0.97726   0.00000  Uiso   1.00
C1168  C     0.81230   0.13371   0.68941   0.00000  Uiso   1.00
C1169  C     0.87904   0.23704   0.71522   0.00000  Uiso   1.00
C1170  C     0.93045   0.23516   0.73810   0.00000  Uiso   1.00
C1171  C     0.95529   0.27121   0.75765   0.00000  Uiso   1.00
C1172  C     0.83361   0.24654   0.83302   0.00000  Uiso   1.00
C1173  C     0.92964   0.30975   0.75284   0.00000  Uiso   1.00
C1174  C     0.87934   0.31230   0.72818   0.00000  Uiso   1.00
C1175  C     0.85397   0.27607   0.70950   0.00000  Uiso   1.00
C1176  C     0.78775   0.09624   0.95148   0.00000  Uiso   1.00
C1177  C     0.73639   0.09804   0.92848   0.00000  Uiso   1.00
C1178  C     0.71167   0.06195   0.90895   0.00000  Uiso   1.00
C1179  C     0.73737   0.02344   0.91390   0.00000  Uiso   1.00
C1180  C     0.78762   0.02097   0.93867   0.00000  Uiso   1.00
C1181  C     0.81287   0.05724   0.95732   0.00000  Uiso   1.00
C1182  C     0.73388   0.16598   0.82162   0.00000  Uiso   1.00
C1183  C     0.93279   0.16735   0.84504   0.00000  Uiso   1.00
C1184  C     0.67896   0.16279   0.81577   0.00000  Uiso   1.00
C1185  C     0.98771   0.17052   0.85090   0.00000  Uiso   1.00
C1186  C     0.79734   0.02169   0.80197   0.00000  Uiso   1.00
C1187  C     0.86933   0.31165   0.86470   0.00000  Uiso   1.00
C1188  C     0.79780   0.31187   0.80138   0.00000  Uiso   1.00
H1189  H     0.99232   0.15286   0.78306   0.00000  Uiso   1.00
H1190  H     0.99478   0.26940   0.77577   0.00000  Uiso   1.00
H1191  H     0.94900   0.00439   0.76767   0.00000  Uiso   1.00
H1192  H     0.85987   0.00896   0.72374   0.00000  Uiso   1.00
H1193  H     0.81504   0.27845   0.69036   0.00000  Uiso   1.00
H1194  H     0.71515   0.12709   0.92680   0.00000  Uiso   1.00
H1195  H     0.67223   0.06369   0.89074   0.00000  Uiso   1.00
H1196  H     0.71811   0.32876   0.89909   0.00000  Uiso   1.00
H1197  H     0.80712   0.32434   0.94321   0.00000  Uiso   1.00
H1198  H     0.85175   0.05493   0.97655   0.00000  Uiso   1.00
H1199  H     0.67435   0.18045   0.88361   0.00000  Uiso   1.00
H1200  H     0.76952   0.03870   0.77783   0.00000  Uiso   1.00
H1201  H     0.89715   0.29463   0.88883   0.00000  Uiso   1.00
H1202  H     0.77018   0.29505   0.77701   0.00000  Uiso   1.00
H1203  H     0.89649   0.03829   0.88966   0.00000  Uiso   1.00
H1204  H     0.87146   0.22584   0.96020   0.00000  Uiso   1.00
H1205  H     0.79520   0.10749   0.70647   0.00000  Uiso   1.00
H1206  H     0.95164   0.20608   0.73967   0.00000  Uiso   1.00
N1207  N     0.83332   0.16666   0.95240   0.00000  Uiso   1.00
N1208  N     0.83335   0.16668   0.71427   0.00000  Uiso   1.00
O1209  O     0.83333   0.10558   0.87154   0.00000  Uiso   1.00
O1210  O     0.83334   0.22775   0.79513   0.00000  Uiso   1.00
O1211  O     0.83333   0.10559   0.79510   0.00000  Uiso   1.00
O1212  O     0.83334   0.22774   0.87157   0.00000  Uiso   1.00
O1213  O     0.75725   0.16666   0.86261   0.00000  Uiso   1.00
O1214  O     0.90942   0.16667   0.80405   0.00000  Uiso   1.00
O1215  O     0.75725   0.16667   0.78617   0.00000  Uiso   1.00
O1216  O     0.90942   0.16666   0.88050   0.00000  Uiso   1.00
Zn1217 Zn    0.83333   0.16666   0.88437   0.00000  Uiso   1.00
Zn1218 Zn    0.83333   0.16667   0.78229   0.00000  Uiso   1.00
C1219  C     0.16639   0.42012   0.83365   0.00000  Uiso   1.00
C1220  C     0.20221   0.35480   0.86528   0.00000  Uiso   1.00
C1221  C     0.16727   0.62403   0.83263   0.00000  Uiso   1.00
C1222  C     0.16606   0.37597   0.83404   0.00000  Uiso   1.00
C1223  C     0.18795   0.53327   0.69157   0.00000  Uiso   1.00
C1224  C     0.14539   0.46673   0.97510   0.00000  Uiso   1.00
C1225  C     0.18769   0.53297   0.97726   0.00000  Uiso   1.00
C1226  C     0.14563   0.46704   0.68941   0.00000  Uiso   1.00
C1227  C     0.21237   0.57037   0.71522   0.00000  Uiso   1.00
C1228  C     0.26378   0.56849   0.73810   0.00000  Uiso   1.00
C1229  C     0.28862   0.60454   0.75765   0.00000  Uiso   1.00
C1230  C     0.16695   0.57988   0.83302   0.00000  Uiso   1.00
C1231  C     0.26298   0.64308   0.75284   0.00000  Uiso   1.00
C1232  C     0.21267   0.64563   0.72818   0.00000  Uiso   1.00
C1233  C     0.18730   0.60941   0.70950   0.00000  Uiso   1.00
C1234  C     0.12108   0.42958   0.95148   0.00000  Uiso   1.00
C1235  C     0.06973   0.43137   0.92848   0.00000  Uiso   1.00
C1236  C     0.04500   0.39528   0.90895   0.00000  Uiso   1.00
C1237  C     0.07071   0.35677   0.91390   0.00000  Uiso   1.00
C1238  C     0.12095   0.35431   0.93867   0.00000  Uiso   1.00
C1239  C     0.14620   0.39058   0.95732   0.00000  Uiso   1.00
C1240  C     0.06721   0.49931   0.82162   0.00000  Uiso   1.00
C1241  C     0.26612   0.50068   0.84504   0.00000  Uiso   1.00
C1242  C     0.01230   0.49612   0.81577   0.00000  Uiso   1.00
C1243  C     0.32104   0.50386   0.85090   0.00000  Uiso   1.00
C1244  C     0.13067   0.35502   0.80197   0.00000  Uiso   1.00
C1245  C     0.20266   0.64498   0.86470   0.00000  Uiso   1.00
C1246  C     0.13113   0.64520   0.80138   0.00000  Uiso   1.00
H1247  H     0.32566   0.48619   0.78306   0.00000  Uiso   1.00
H1248  H     0.32811   0.60274   0.77577   0.00000  Uiso   1.00
H1249  H     0.28233   0.33772   0.76767   0.00000  Uiso   1.00
H1250  H     0.19321   0.34230   0.72374   0.00000  Uiso   1.00
H1251  H     0.14838   0.61179   0.69036   0.00000  Uiso   1.00
H1252  H     0.04848   0.46042   0.92680   0.00000  Uiso   1.00
H1253  H     0.00557   0.39702   0.89074   0.00000  Uiso   1.00
H1254  H     0.05144   0.66209   0.89909   0.00000  Uiso   1.00
H1255  H     0.14046   0.65767   0.94321   0.00000  Uiso   1.00
H1256  H     0.18508   0.38826   0.97655   0.00000  Uiso   1.00
H1257  H     0.00768   0.51378   0.88361   0.00000  Uiso   1.00
H1258  H     0.10286   0.37204   0.77783   0.00000  Uiso   1.00
H1259  H     0.23048   0.62797   0.88883   0.00000  Uiso   1.00
H1260  H     0.10352   0.62838   0.77701   0.00000  Uiso   1.00
H1261  H     0.22982   0.37162   0.88966   0.00000  Uiso   1.00
H1262  H     0.20479   0.55918   0.96020   0.00000  Uiso   1.00
H1263  H     0.12854   0.44083   0.70647   0.00000  Uiso   1.00
H1264  H     0.28498   0.53941   0.73967   0.00000  Uiso   1.00
N1265  N     0.16665   0.49999   0.95240   0.00000  Uiso   1.00
N1266  N     0.16668   0.50001   0.71427   0.00000  Uiso   1.00
O1267  O     0.16666   0.43892   0.87154   0.00000  Uiso   1.00
O1268  O     0.16667   0.56108   0.79513   0.00000  Uiso   1.00
O1269  O     0.16666   0.43893   0.79510   0.00000  Uiso   1.00
O1270  O     0.16667   0.56107   0.87157   0.00000  Uiso   1.00
O1271  O     0.09058   0.50000   0.86261   0.00000  Uiso   1.00
O1272  O     0.24275   0.50000   0.80405   0.00000  Uiso   1.00
O1273  O     0.09058   0.50000   0.78617   0.00000  Uiso   1.00
O1274  O     0.24275   0.50000   0.88050   0.00000  Uiso   1.00
Zn1275 Zn    0.16667   0.49999   0.88437   0.00000  Uiso   1.00
Zn1276 Zn    0.16667   0.50001   0.78229   0.00000  Uiso   1.00
C1277  C     0.49972   0.42012   0.83365   0.00000  Uiso   1.00
C1278  C     0.53554   0.35480   0.86528   0.00000  Uiso   1.00
C1279  C     0.50060   0.62403   0.83263   0.00000  Uiso   1.00
C1280  C     0.49940   0.37597   0.83404   0.00000  Uiso   1.00
C1281  C     0.52128   0.53327   0.69157   0.00000  Uiso   1.00
C1282  C     0.47873   0.46673   0.97510   0.00000  Uiso   1.00
C1283  C     0.52103   0.53297   0.97726   0.00000  Uiso   1.00
C1284  C     0.47896   0.46704   0.68941   0.00000  Uiso   1.00
C1285  C     0.54570   0.57037   0.71522   0.00000  Uiso   1.00
C1286  C     0.59711   0.56849   0.73810   0.00000  Uiso   1.00
C1287  C     0.62196   0.60454   0.75765   0.00000  Uiso   1.00
C1288  C     0.50028   0.57988   0.83302   0.00000  Uiso   1.00
C1289  C     0.59631   0.64308   0.75284   0.00000  Uiso   1.00
C1290  C     0.54600   0.64563   0.72818   0.00000  Uiso   1.00
C1291  C     0.52064   0.60941   0.70950   0.00000  Uiso   1.00
C1292  C     0.45441   0.42958   0.95148   0.00000  Uiso   1.00
C1293  C     0.40306   0.43137   0.92848   0.00000  Uiso   1.00
C1294  C     0.37834   0.39528   0.90895   0.00000  Uiso   1.00
C1295  C     0.40404   0.35677   0.91390   0.00000  Uiso   1.00
C1296  C     0.45428   0.35431   0.93867   0.00000  Uiso   1.00
C1297  C     0.47954   0.39058   0.95732   0.00000  Uiso   1.00
C1298  C     0.40054   0.49931   0.82162   0.00000  Uiso   1.00
C1299  C     0.59946   0.50068   0.84504   0.00000  Uiso   1.00
C1300  C     0.34563   0.49612   0.81577   0.00000  Uiso   1.00
C1301  C     0.65437   0.50386   0.85090   0.00000  Uiso   1.00
C1302  C     0.46401   0.35502   0.80197   0.00000  Uiso   1.00
C1303  C     0.53600   0.64498   0.86470   0.00000  Uiso   1.00
C1304  C     0.46446   0.64520   0.80138   0.00000  Uiso   1.00
H1305  H     0.65899   0.48619   0.78306   0.00000  Uiso   1.00
H1306  H     0.66144   0.60274   0.77577   0.00000  Uiso   1.00
H1307  H     0.61567   0.33772   0.76767   0.00000  Uiso   1.00
H1308  H     0.52654   0.34230   0.72374   0.00000  Uiso   1.00
H1309  H     0.48171   0.61179   0.69036   0.00000  Uiso   1.00
H1310  H     0.38181   0.46042   0.92680   0.00000  Uiso   1.00
H1311  H     0.33890   0.39702   0.89074   0.00000  Uiso   1.00
H1312  H     0.38477   0.66209   0.89909   0.00000  Uiso   1.00
H1313  H     0.47379   0.65767   0.94321   0.00000  Uiso   1.00
H1314  H     0.51841   0.38826   0.97655   0.00000  Uiso   1.00
H1315  H     0.34101   0.51378   0.88361   0.00000  Uiso   1.00
H1316  H     0.43619   0.37204   0.77783   0.00000  Uiso   1.00
H1317  H     0.56381   0.62797   0.88883   0.00000  Uiso   1.00
H1318  H     0.43685   0.62838   0.77701   0.00000  Uiso   1.00
H1319  H     0.56316   0.37162   0.88966   0.00000  Uiso   1.00
H1320  H     0.53813   0.55918   0.96020   0.00000  Uiso   1.00
H1321  H     0.46187   0.44083   0.70647   0.00000  Uiso   1.00
H1322  H     0.61831   0.53941   0.73967   0.00000  Uiso   1.00
N1323  N     0.49999   0.49999   0.95240   0.00000  Uiso   1.00
N1324  N     0.50001   0.50001   0.71427   0.00000  Uiso   1.00
O1325  O     0.50000   0.43892   0.87154   0.00000  Uiso   1.00
O1326  O     0.50000   0.56108   0.79513   0.00000  Uiso   1.00
O1327  O     0.50000   0.43893   0.79510   0.00000  Uiso   1.00
O1328  O     0.50000   0.56107   0.87157   0.00000  Uiso   1.00
O1329  O     0.42392   0.50000   0.86261   0.00000  Uiso   1.00
O1330  O     0.57608   0.50000   0.80405   0.00000  Uiso   1.00
O1331  O     0.42392   0.50000   0.78617   0.00000  Uiso   1.00
O1332  O     0.57608   0.50000   0.88050   0.00000  Uiso   1.00
Zn1333 Zn    0.50000   0.49999   0.88437   0.00000  Uiso   1.00
Zn1334 Zn    0.50000   0.50001   0.78229   0.00000  Uiso   1.00
C1335  C     0.83305   0.42012   0.83365   0.00000  Uiso   1.00
C1336  C     0.86887   0.35480   0.86528   0.00000  Uiso   1.00
C1337  C     0.83394   0.62403   0.83263   0.00000  Uiso   1.00
C1338  C     0.83273   0.37597   0.83404   0.00000  Uiso   1.00
C1339  C     0.85461   0.53327   0.69157   0.00000  Uiso   1.00
C1340  C     0.81206   0.46673   0.97510   0.00000  Uiso   1.00
C1341  C     0.85436   0.53297   0.97726   0.00000  Uiso   1.00
C1342  C     0.81230   0.46704   0.68941   0.00000  Uiso   1.00
C1343  C     0.87904   0.57037   0.71522   0.00000  Uiso   1.00
C1344  C     0.93045   0.56849   0.73810   0.00000  Uiso   1.00
C1345  C     0.95529   0.60454   0.75765   0.00000  Uiso   1.00
C1346  C     0.83361   0.57988   0.83302   0.00000  Uiso   1.00
C1347  C     0.92964   0.64308   0.75284   0.00000  Uiso   1.00
C1348  C     0.87934   0.64563   0.72818   0.00000  Uiso   1.00
C1349  C     0.85397   0.60941   0.70950   0.00000  Uiso   1.00
C1350  C     0.78775   0.42958   0.95148   0.00000  Uiso   1.00
C1351  C     0.73639   0.43137   0.92848   0.00000  Uiso   1.00
C1352  C     0.71167   0.39528   0.90895   0.00000  Uiso   1.00
C1353  C     0.73737   0.35677   0.91390   0.00000  Uiso   1.00
C1354  C     0.78762   0.35431   0.93867   0.00000  Uiso   1.00
C1355  C     0.81287   0.39058   0.95732   0.00000  Uiso   1.00
C1356  C     0.73388   0.49931   0.82162   0.00000  Uiso   1.00
C1357  C     0.93279   0.50068   0.84504   0.00000  Uiso   1.00
C1358  C     0.67896   0.49612   0.81577   0.00000  Uiso   1.00
C1359  C     0.98771   0.50386   0.85090   0.00000  Uiso   1.00
C1360  C     0.79734   0.35502   0.80197   0.00000  Uiso   1.00
C1361  C     0.86933   0.64498   0.86470   0.00000  Uiso   1.00
C1362  C     0.79780   0.64520   0.80138   0.00000  Uiso   1.00
H1363  H     0.99232   0.48619   0.78306   0.00000  Uiso   1.00
H1364  H     0.99478   0.60274   0.77577   0.00000  Uiso   1.00
H1365  H     0.94900   0.33772   0.76767   0.00000  Uiso   1.00
H1366  H     0.85987   0.34230   0.72374   0.00000  Uiso   1.00
H1367  H     0.81504   0.61179   0.69036   0.00000  Uiso   1.00
H1368  H     0.71515   0.46042   0.92680   0.00000  Uiso   1.00
H1369  H     0.67223   0.39702   0.89074   0.00000  Uiso   1.00
H1370  H     0.71811   0.66209   0.89909   0.00000  Uiso   1.00
H1371  H     0.80712   0.65767   0.94321   0.00000  Uiso   1.00
H1372  H     0.85175   0.38826   0.97655   0.00000  Uiso   1.00
H1373  H     0.67435   0.51378   0.88361   0.00000  Uiso   1.00
H1374  H     0.76952   0.37204   0.77783   0.00000  Uiso   1.00
H1375  H     0.89715   0.62797   0.88883   0.00000  Uiso   1.00
H1376  H     0.77018   0.62838   0.77701   0.00000  Uiso   1.00
H1377  H     0.89649   0.37162   0.88966   0.00000  Uiso   1.00
H1378  H     0.87146   0.55918   0.96020   0.00000  Uiso   1.00
H1379  H     0.79520   0.44083   0.70647   0.00000  Uiso   1.00
H1380  H     0.95164   0.53941   0.73967   0.00000  Uiso   1.00
N1381  N     0.83332   0.49999   0.95240   0.00000  Uiso   1.00
N1382  N     0.83335   0.50001   0.71427   0.00000  Uiso   1.00
O1383  O     0.83333   0.43892   0.87154   0.00000  Uiso   1.00
O1384  O     0.83334   0.56108   0.79513   0.00000  Uiso   1.00
O1385  O     0.83333   0.43893   0.79510   0.00000  Uiso   1.00
O1386  O     0.83334   0.56107   0.87157   0.00000  Uiso   1.00
O1387  O     0.75725   0.50000   0.86261   0.00000  Uiso   1.00
O1388  O     0.90942   0.50000   0.80405   0.00000  Uiso   1.00
O1389  O     0.75725   0.50000   0.78617   0.00000  Uiso   1.00
O1390  O     0.90942   0.50000   0.88050   0.00000  Uiso   1.00
Zn1391 Zn    0.83333   0.49999   0.88437   0.00000  Uiso   1.00
Zn1392 Zn    0.83333   0.50001   0.78229   0.00000  Uiso   1.00
C1393  C     0.16639   0.75346   0.83365   0.00000  Uiso   1.00
C1394  C     0.20221   0.68813   0.86528   0.00000  Uiso   1.00
C1395  C     0.16727   0.95736   0.83263   0.00000  Uiso   1.00
C1396  C     0.16606   0.70930   0.83404   0.00000  Uiso   1.00
C1397  C     0.18795   0.86660   0.69157   0.00000  Uiso   1.00
C1398  C     0.14539   0.80006   0.97510   0.00000  Uiso   1.00
C1399  C     0.18769   0.86630   0.97726   0.00000  Uiso   1.00
C1400  C     0.14563   0.80037   0.68941   0.00000  Uiso   1.00
C1401  C     0.21237   0.90370   0.71522   0.00000  Uiso   1.00
C1402  C     0.26378   0.90183   0.73810   0.00000  Uiso   1.00
C1403  C     0.28862   0.93787   0.75765   0.00000  Uiso   1.00
C1404  C     0.16695   0.91321   0.83302   0.00000  Uiso   1.00
C1405  C     0.26298   0.97642   0.75284   0.00000  Uiso   1.00
C1406  C     0.21267   0.97896   0.72818   0.00000  Uiso   1.00
C1407  C     0.18730   0.94274   0.70950   0.00000  Uiso   1.00
C1408  C     0.12108   0.76291   0.95148   0.00000  Uiso   1.00
C1409  C     0.06973   0.76471   0.92848   0.00000  Uiso   1.00
C1410  C     0.04500   0.72861   0.90895   0.00000  Uiso   1.00
C1411  C     0.07071   0.69010   0.91390   0.00000  Uiso   1.00
C1412  C     0.12095   0.68764   0.93867   0.00000  Uiso   1.00
C1413  C     0.14620   0.72391   0.95732   0.00000  Uiso   1.00
C1414  C     0.06721   0.83265   0.82162   0.00000  Uiso   1.00
C1415  C     0.26612   0.83401   0.84504   0.00000  Uiso   1.00
C1416  C     0.01230   0.82946   0.81577   0.00000  Uiso   1.00
C1417  C     0.32104   0.83719   0.85090   0.00000  Uiso   1.00
C1418  C     0.13067   0.68835   0.80197   0.00000  Uiso   1.00
C1419  C     0.20266   0.97831   0.86470   0.00000  Uiso   1.00
C1420  C     0.13113   0.97853   0.80138   0.00000  Uiso   1.00
H1421  H     0.32566   0.81953   0.78306   0.00000  Uiso   1.00
H1422  H     0.32811   0.93607   0.77577   0.00000  Uiso   1.00
H1423  H     0.28233   0.67106   0.76767   0.00000  Uiso   1.00
H1424  H     0.19321   0.67563   0.72374   0.00000  Uiso   1.00
H1425  H     0.14838   0.94512   0.69036   0.00000  Uiso   1.00
H1426  H     0.04848   0.79376   0.92680   0.00000  Uiso   1.00
H1427  H     0.00557   0.73035   0.89074   0.00000  Uiso   1.00
H1428  H     0.05144   0.99543   0.89909   0.00000  Uiso   1.00
H1429  H     0.14046   0.99100   0.94321   0.00000  Uiso   1.00
H1430  H     0.18508   0.72159   0.97655   0.00000  Uiso   1.00
H1431  H     0.00768   0.84711   0.88361   0.00000  Uiso   1.00
H1432  H     0.10286   0.70537   0.77783   0.00000  Uiso   1.00
H1433  H     0.23048   0.96130   0.88883   0.00000  Uiso   1.00
H1434  H     0.10352   0.96172   0.77701   0.00000  Uiso   1.00
H1435  H     0.22982   0.70495   0.88966   0.00000  Uiso   1.00
H1436  H     0.20479   0.89251   0.96020   0.00000  Uiso   1.00
H1437  H     0.12854   0.77416   0.70647   0.00000  Uiso   1.00
H1438  H     0.28498   0.87275   0.73967   0.00000  Uiso   1.00
N1439  N     0.16665   0.83332   0.95240   0.00000  Uiso   1.00
N1440  N     0.16668   0.83334   0.71427   0.00000  Uiso   1.00
O1441  O     0.16666   0.77225   0.87154   0.00000  Uiso   1.00
O1442  O     0.16667   0.89442   0.79513   0.00000  Uiso   1.00
O1443  O     0.16666   0.77226   0.79510   0.00000  Uiso   1.00
O1444  O     0.16667   0.89441   0.87157   0.00000  Uiso   1.00
O1445  O     0.09058   0.83333   0.86261   0.00000  Uiso   1.00
O1446  O     0.24275   0.83334   0.80405   0.00000  Uiso   1.00
O1447  O     0.09058   0.83334   0.78617   0.00000  Uiso   1.00
O1448  O     0.24275   0.83333   0.88050   0.00000  Uiso   1.00
Zn1449 Zn    0.16667   0.83333   0.88437   0.00000  Uiso   1.00
Zn1450 Zn    0.16667   0.83334   0.78229   0.00000  Uiso   1.00
C1451  C     0.49972   0.75346   0.83365   0.00000  Uiso   1.00
C1452  C     0.53554   0.68813   0.86528   0.00000  Uiso   1.00
C1453  C     0.50060   0.95736   0.83263   0.00000  Uiso   1.00
C1454  C     0.49940   0.70930   0.83404   0.00000  Uiso   1.00
C1455  C     0.52128   0.86660   0.69157   0.00000  Uiso   1.00
C1456  C     0.47873   0.80006   0.97510   0.00000  Uiso   1.00
C1457  C     0.52103   0.86630   0.97726   0.00000  Uiso   1.00
C1458  C     0.47896   0.80037   0.68941   0.00000  Uiso   1.00
C1459  C     0.54570   0.90370   0.71522   0.00000  Uiso   1.00
C1460  C     0.59711   0.90183   0.73810   0.00000  Uiso   1.00
C1461  C     0.62196   0.93787   0.75765   0.00000  Uiso   1.00
C1462  C     0.50028   0.91321   0.83302   0.00000  Uiso   1.00
C1463  C     0.59631   0.97642   0.75284   0.00000  Uiso   1.00
C1464  C     0.54600   0.97896   0.72818   0.00000  Uiso   1.00
C1465  C     0.52064   0.94274   0.70950   0.00000  Uiso   1.00
C1466  C     0.45441   0.76291   0.95148   0.00000  Uiso   1.00
C1467  C     0.40306   0.76471   0.92848   0.00000  Uiso   1.00
C1468  C     0.37834   0.72861   0.90895   0.00000  Uiso   1.00
C1469  C     0.40404   0.69010   0.91390   0.00000  Uiso   1.00
C1470  C     0.45428   0.68764   0.93867   0.00000  Uiso   1.00
C1471  C     0.47954   0.72391   0.95732   0.00000  Uiso   1.00
C1472  C     0.40054   0.83265   0.82162   0.00000  Uiso   1.00
C1473  C     0.59946   0.83401   0.84504   0.00000  Uiso   1.00
C1474  C     0.34563   0.82946   0.81577   0.00000  Uiso   1.00
C1475  C     0.65437   0.83719   0.85090   0.00000  Uiso   1.00
C1476  C     0.46401   0.68835   0.80197   0.00000  Uiso   1.00
C1477  C     0.53600   0.97831   0.86470   0.00000  Uiso   1.00
C1478  C     0.46446   0.97853   0.80138   0.00000  Uiso   1.00
H1479  H     0.65899   0.81953   0.78306   0.00000  Uiso   1.00
H1480  H     0.66144   0.93607   0.77577   0.00000  Uiso   1.00
H1481  H     0.61567   0.67106   0.76767   0.00000  Uiso   1.00
H1482  H     0.52654   0.67563   0.72374   0.00000  Uiso   1.00
H1483  H     0.48171   0.94512   0.69036   0.00000  Uiso   1.00
H1484  H     0.38181   0.79376   0.92680   0.00000  Uiso   1.00
H1485  H     0.33890   0.73035   0.89074   0.00000  Uiso   1.00
H1486  H     0.38477   0.99543   0.89909   0.00000  Uiso   1.00
H1487  H     0.47379   0.99100   0.94321   0.00000  Uiso   1.00
H1488  H     0.51841   0.72159   0.97655   0.00000  Uiso   1.00
H1489  H     0.34101   0.84711   0.88361   0.00000  Uiso   1.00
H1490  H     0.43619   0.70537   0.77783   0.00000  Uiso   1.00
H1491  H     0.56381   0.96130   0.88883   0.00000  Uiso   1.00
H1492  H     0.43685   0.96172   0.77701   0.00000  Uiso   1.00
H1493  H     0.56316   0.70495   0.88966   0.00000  Uiso   1.00
H1494  H     0.53813   0.89251   0.96020   0.00000  Uiso   1.00
H1495  H     0.46187   0.77416   0.70647   0.00000  Uiso   1.00
H1496  H     0.61831   0.87275   0.73967   0.00000  Uiso   1.00
N1497  N     0.49999   0.83332   0.95240   0.00000  Uiso   1.00
N1498  N     0.50001   0.83334   0.71427   0.00000  Uiso   1.00
O1499  O     0.50000   0.77225   0.87154   0.00000  Uiso   1.00
O1500  O     0.50000   0.89442   0.79513   0.00000  Uiso   1.00
O1501  O     0.50000   0.77226   0.79510   0.00000  Uiso   1.00
O1502  O     0.50000   0.89441   0.87157   0.00000  Uiso   1.00
O1503  O     0.42392   0.83333   0.86261   0.00000  Uiso   1.00
O1504  O     0.57608   0.83334   0.80405   0.00000  Uiso   1.00
O1505  O     0.42392   0.83334   0.78617   0.00000  Uiso   1.00
O1506  O     0.57608   0.83333   0.88050   0.00000  Uiso   1.00
Zn1507 Zn    0.50000   0.83333   0.88437   0.00000  Uiso   1.00
Zn1508 Zn    0.50000   0.83334   0.78229   0.00000  Uiso   1.00
C1509  C     0.83305   0.75346   0.83365   0.00000  Uiso   1.00
C1510  C     0.86887   0.68813   0.86528   0.00000  Uiso   1.00
C1511  C     0.83394   0.95736   0.83263   0.00000  Uiso   1.00
C1512  C     0.83273   0.70930   0.83404   0.00000  Uiso   1.00
C1513  C     0.85461   0.86660   0.69157   0.00000  Uiso   1.00
C1514  C     0.81206   0.80006   0.97510   0.00000  Uiso   1.00
C1515  C     0.85436   0.86630   0.97726   0.00000  Uiso   1.00
C1516  C     0.81230   0.80037   0.68941   0.00000  Uiso   1.00
C1517  C     0.87904   0.90370   0.71522   0.00000  Uiso   1.00
C1518  C     0.93045   0.90183   0.73810   0.00000  Uiso   1.00
C1519  C     0.95529   0.93787   0.75765   0.00000  Uiso   1.00
C1520  C     0.83361   0.91321   0.83302   0.00000  Uiso   1.00
C1521  C     0.92964   0.97642   0.75284   0.00000  Uiso   1.00
C1522  C     0.87934   0.97896   0.72818   0.00000  Uiso   1.00
C1523  C     0.85397   0.94274   0.70950   0.00000  Uiso   1.00
C1524  C     0.78775   0.76291   0.95148   0.00000  Uiso   1.00
C1525  C     0.73639   0.76471   0.92848   0.00000  Uiso   1.00
C1526  C     0.71167   0.72861   0.90895   0.00000  Uiso   1.00
C1527  C     0.73737   0.69010   0.91390   0.00000  Uiso   1.00
C1528  C     0.78762   0.68764   0.93867   0.00000  Uiso   1.00
C1529  C     0.81287   0.72391   0.95732   0.00000  Uiso   1.00
C1530  C     0.73388   0.83265   0.82162   0.00000  Uiso   1.00
C1531  C     0.93279   0.83401   0.84504   0.00000  Uiso   1.00
C1532  C     0.67896   0.82946   0.81577   0.00000  Uiso   1.00
C1533  C     0.98771   0.83719   0.85090   0.00000  Uiso   1.00
C1534  C     0.79734   0.68835   0.80197   0.00000  Uiso   1.00
C1535  C     0.86933   0.97831   0.86470   0.00000  Uiso   1.00
C1536  C     0.79780   0.97853   0.80138   0.00000  Uiso   1.00
H1537  H     0.99232   0.81953   0.78306   0.00000  Uiso   1.00
H1538  H     0.99478   0.93607   0.77577   0.00000  Uiso   1.00
H1539  H     0.94900   0.67106   0.76767   0.00000  Uiso   1.00
H1540  H     0.85987   0.67563   0.72374   0.00000  Uiso   1.00
H1541  H     0.81504   0.94512   0.69036   0.00000  Uiso   1.00
H1542  H     0.71515   0.79376   0.92680   0.00000  Uiso   1.00
H1543  H     0.67223   0.73035   0.89074   0.00000  Uiso   1.00
H1544  H     0.71811   0.99543   0.89909   0.00000  Uiso   1.00
H1545  H     0.80712   0.99100   0.94321   0.00000  Uiso   1.00
H1546  H     0.85175   0.72159   0.97655   0.00000  Uiso   1.00
H1547  H     0.67435   0.84711   0.88361   0.00000  Uiso   1.00
H1548  H     0.76952   0.70537   0.77783   0.00000  Uiso   1.00
H1549  H     0.89715   0.96130   0.88883   0.00000  Uiso   1.00
H1550  H     0.77018   0.96172   0.77701   0.00000  Uiso   1.00
H1551  H     0.89649   0.70495   0.88966   0.00000  Uiso   1.00
H1552  H     0.87146   0.89251   0.96020   0.00000  Uiso   1.00
H1553  H     0.79520   0.77416   0.70647   0.00000  Uiso   1.00
H1554  H     0.95164   0.87275   0.73967   0.00000  Uiso   1.00
N1555  N     0.83332   0.83332   0.95240   0.00000  Uiso   1.00
N1556  N     0.83335   0.83334   0.71427   0.00000  Uiso   1.00
O1557  O     0.83333   0.77225   0.87154   0.00000  Uiso   1.00
O1558  O     0.83334   0.89442   0.79513   0.00000  Uiso   1.00
O1559  O     0.83333   0.77226   0.79510   0.00000  Uiso   1.00
O1560  O     0.83334   0.89441   0.87157   0.00000  Uiso   1.00
O1561  O     0.75725   0.83333   0.86261   0.00000  Uiso   1.00
O1562  O     0.90942   0.83334   0.80405   0.00000  Uiso   1.00
O1563  O     0.75725   0.83334   0.78617   0.00000  Uiso   1.00
O1564  O     0.90942   0.83333   0.88050   0.00000  Uiso   1.00
Zn1565 Zn    0.83333   0.83333   0.88437   0.00000  Uiso   1.00
Zn1566 Zn    0.83333   0.83334   0.78229   0.00000  Uiso   1.00
loop_
_geom_bond_atom_site_label_1
_geom_bond_atom_site_label_2
_geom_bond_distance
_geom_bond_site_symmetry_2
_ccdc_geom_bond_type
C1     C4      1.403   .     S
C1     O51     1.283   .     A
C1     O49     1.288   .     A
C2     C4      1.392   .     A
C2     H43     1.084   .     S
C2     C375    1.372   1_545 S
C3     C27     1.395   .     A
C3     C28     1.392   .     A
C3     C12     1.403   .     S
C4     C26     1.395   .     A
C5     C9      1.471   .     S
C5     N48     1.385   .     A
C5     C1051   1.419   1_554 S
C6     C16     1.471   .     S
C6     N47     1.385   .     A
C6     C530    1.419   .     S
C7     H44     1.083   .     S
C7     N47     1.356   .     A
C7     C527    1.419   .     S
C8     N48     1.356   .     A
C8     H45     1.083   .     S
C8     C1050   1.419   1_554 S
C9     C10     1.401   .     A
C9     C15     1.405   .     A
C10    H46     1.079   .     S
C10    C11     1.399   .     A
C11    C13     1.398   .     A
C11    H30     1.083   .     S
C12    O52     1.283   .     A
C12    O50     1.288   .     A
C13    C14     1.398   .     A
C13    H205    1.082   .     S
C14    C15     1.399   .     A
C14    H206    1.083   .     S
C15    H33     1.083   .     S
C16    C21     1.405   .     A
C16    C17     1.401   .     A
C17    C18     1.398   .     A
C17    H34     1.079   .     S
C18    C19     1.398   .     A
C18    H35     1.083   .     S
C19    C20     1.398   .     A
C19    H384    1.082   1_545 S
C20    C21     1.399   .     A
C20    H385    1.082   1_545 S
C21    H38     1.083   .     S
C22    O55     1.285   .     A
C22    O53     1.284   .     A
C22    C24     1.399   .     S
C23    O56     1.285   .     A
C23    C25     1.399   .     S
C23    O54     1.284   .     A
C24    C141    1.325   1_455 S
C24    H145    1.087   1_455 S
C25    C82     1.325   .     S
C25    H97     1.087   .     S
C26    H40     1.084   .     S
C26    C376    1.372   1_545 S
C27    H41     1.084   .     S
C27    C176    1.372   .     S
C28    H42     1.084   .     S
C28    C200    1.372   .     S
H29    C82     1.087   .     S
H31    C361    1.082   1_545 S
H32    C362    1.083   1_545 S
H36    C193    1.082   .     S
H37    C194    1.082   .     S
H39    C141    1.087   1_455 S
N47    Zn57    2.026   .     S
N48    Zn58    2.026   .     S
O49    Zn57    1.987   .     S
O50    Zn58    1.987   .     S
O51    Zn58    1.970   .     S
O52    Zn57    1.970   .     S
O53    Zn57    1.972   .     S
O54    Zn58    1.972   .     S
O55    Zn58    1.974   .     S
O56    Zn57    1.974   .     S
C59    C62     1.403   .     S
C59    O109    1.283   .     A
C59    O107    1.288   .     A
C60    C62     1.392   .     A
C60    H101    1.084   .     S
C60    C433    1.372   1_545 S
C61    C85     1.395   .     A
C61    C86     1.392   .     A
C61    C70     1.403   .     S
C62    C84     1.395   .     A
C63    C67     1.471   .     S
C63    N106    1.385   .     A
C63    C1109   1.419   1_554 S
C64    C74     1.471   .     S
C64    N105    1.385   .     A
C64    C588    1.419   .     S
C65    H102    1.083   .     S
C65    N105    1.356   .     A
C65    C585    1.419   .     S
C66    N106    1.356   .     A
C66    H103    1.083   .     S
C66    C1108   1.419   1_554 S
C67    C68     1.401   .     A
C67    C73     1.405   .     A
C68    H104    1.079   .     S
C68    C69     1.399   .     A
C69    C71     1.398   .     A
C69    H88     1.083   .     S
C70    O110    1.283   .     A
C70    O108    1.288   .     A
C71    C72     1.398   .     A
C71    H263    1.082   .     S
C72    C73     1.399   .     A
C72    H264    1.083   .     S
C73    H91     1.083   .     S
C74    C79     1.405   .     A
C74    C75     1.401   .     A
C75    C76     1.398   .     A
C75    H92     1.079   .     S
C76    C77     1.398   .     A
C76    H93     1.083   .     S
C77    C78     1.398   .     A
C77    H442    1.082   1_545 S
C78    C79     1.399   .     A
C78    H443    1.082   1_545 S
C79    H96     1.083   .     S
C80    O113    1.285   .     A
C80    O111    1.284   .     A
C80    C82     1.399   .     S
C81    O114    1.285   .     A
C81    C83     1.399   .     S
C81    O112    1.284   .     A
C83    C140    1.325   .     S
C83    H155    1.087   .     S
C84    H98     1.084   .     S
C84    C434    1.372   1_545 S
C85    H99     1.084   .     S
C85    C234    1.372   .     S
C86    H100    1.084   .     S
C86    C258    1.372   .     S
H87    C140    1.087   .     S
H89    C419    1.082   1_545 S
H90    C420    1.083   1_545 S
H94    C251    1.082   .     S
H95    C252    1.082   .     S
N105   Zn115   2.026   .     S
N106   Zn116   2.026   .     S
O107   Zn115   1.987   .     S
O108   Zn116   1.987   .     S
O109   Zn116   1.970   .     S
O110   Zn115   1.970   .     S
O111   Zn115   1.972   .     S
O112   Zn116   1.972   .     S
O113   Zn116   1.974   .     S
O114   Zn115   1.974   .     S
C117   C120    1.403   .     S
C117   O167    1.283   .     A
C117   O165    1.288   .     A
C118   C120    1.392   .     A
C118   H159    1.084   .     S
C118   C491    1.372   1_545 S
C119   C143    1.395   .     A
C119   C144    1.392   .     A
C119   C128    1.403   .     S
C120   C142    1.395   .     A
C121   C125    1.471   .     S
C121   N164    1.385   .     A
C121   C1167   1.419   1_554 S
C122   C132    1.471   .     S
C122   N163    1.385   .     A
C122   C646    1.419   .     S
C123   H160    1.083   .     S
C123   N163    1.356   .     A
C123   C643    1.419   .     S
C124   N164    1.356   .     A
C124   H161    1.083   .     S
C124   C1166   1.419   1_554 S
C125   C126    1.401   .     A
C125   C131    1.405   .     A
C126   H162    1.079   .     S
C126   C127    1.399   .     A
C127   C129    1.398   .     A
C127   H146    1.083   .     S
C128   O168    1.283   .     A
C128   O166    1.288   .     A
C129   C130    1.398   .     A
C129   H321    1.082   .     S
C130   C131    1.399   .     A
C130   H322    1.083   .     S
C131   H149    1.083   .     S
C132   C137    1.405   .     A
C132   C133    1.401   .     A
C133   C134    1.398   .     A
C133   H150    1.079   .     S
C134   C135    1.398   .     A
C134   H151    1.083   .     S
C135   C136    1.398   .     A
C135   H500    1.082   1_545 S
C136   C137    1.399   .     A
C136   H501    1.082   1_545 S
C137   H154    1.083   .     S
C138   O171    1.285   .     A
C138   O169    1.284   .     A
C138   C140    1.399   .     S
C139   O172    1.285   .     A
C139   C141    1.399   .     S
C139   O170    1.284   .     A
C141   C24     1.325   1_655 S
C141   H39     1.087   1_655 S
C142   H156    1.084   .     S
C142   C492    1.372   1_545 S
C143   H157    1.084   .     S
C143   C292    1.372   .     S
C144   H158    1.084   .     S
C144   C316    1.372   .     S
H145   C24     1.087   1_655 S
H147   C477    1.082   1_545 S
H148   C478    1.083   1_545 S
H152   C309    1.082   .     S
H153   C310    1.082   .     S
N163   Zn173   2.026   .     S
N164   Zn174   2.026   .     S
O165   Zn173   1.987   .     S
O166   Zn174   1.987   .     S
O167   Zn174   1.970   .     S
O168   Zn173   1.970   .     S
O169   Zn173   1.972   .     S
O170   Zn174   1.972   .     S
O171   Zn174   1.974   .     S
O172   Zn173   1.974   .     S
C175   C178    1.403   .     S
C175   O225    1.283   .     A
C175   O223    1.288   .     A
C176   C178    1.392   .     A
C176   H217    1.084   .     S
C177   C201    1.395   .     A
C177   C202    1.392   .     A
C177   C186    1.403   .     S
C178   C200    1.395   .     A
C179   C183    1.471   .     S
C179   N222    1.385   .     A
C179   C1225   1.419   1_554 S
C180   C190    1.471   .     S
C180   N221    1.385   .     A
C180   C704    1.419   .     S
C181   H218    1.083   .     S
C181   N221    1.356   .     A
C181   C701    1.419   .     S
C182   N222    1.356   .     A
C182   H219    1.083   .     S
C182   C1224   1.419   1_554 S
C183   C184    1.401   .     A
C183   C189    1.405   .     A
C184   H220    1.079   .     S
C184   C185    1.399   .     A
C185   C187    1.398   .     A
C185   H204    1.083   .     S
C186   O226    1.283   .     A
C186   O224    1.288   .     A
C187   C188    1.398   .     A
C187   H379    1.082   .     S
C188   C189    1.399   .     A
C188   H380    1.083   .     S
C189   H207    1.083   .     S
C190   C195    1.405   .     A
C190   C191    1.401   .     A
C191   C192    1.398   .     A
C191   H208    1.079   .     S
C192   C193    1.398   .     A
C192   H209    1.083   .     S
C193   C194    1.398   .     A
C194   C195    1.399   .     A
C195   H212    1.083   .     S
C196   O229    1.285   .     A
C196   O227    1.284   .     A
C196   C198    1.399   .     S
C197   O230    1.285   .     A
C197   C199    1.399   .     S
C197   O228    1.284   .     A
C198   C315    1.325   1_455 S
C198   H319    1.087   1_455 S
C199   C256    1.325   .     S
C199   H271    1.087   .     S
C200   H214    1.084   .     S
C201   H215    1.084   .     S
C201   C350    1.372   .     S
C202   H216    1.084   .     S
C202   C374    1.372   .     S
H203   C256    1.087   .     S
H210   C367    1.082   .     S
H211   C368    1.082   .     S
H213   C315    1.087   1_455 S
N221   Zn231   2.026   .     S
N222   Zn232   2.026   .     S
O223   Zn231   1.987   .     S
O224   Zn232   1.987   .     S
O225   Zn232   1.970   .     S
O226   Zn231   1.970   .     S
O227   Zn231   1.972   .     S
O228   Zn232   1.972   .     S
O229   Zn232   1.974   .     S
O230   Zn231   1.974   .     S
C233   C236    1.403   .     S
C233   O283    1.283   .     A
C233   O281    1.288   .     A
C234   C236    1.392   .     A
C234   H275    1.084   .     S
C235   C259    1.395   .     A
C235   C260    1.392   .     A
C235   C244    1.403   .     S
C236   C258    1.395   .     A
C237   C241    1.471   .     S
C237   N280    1.385   .     A
C237   C1283   1.419   1_554 S
C238   C248    1.471   .     S
C238   N279    1.385   .     A
C238   C762    1.419   .     S
C239   H276    1.083   .     S
C239   N279    1.356   .     A
C239   C759    1.419   .     S
C240   N280    1.356   .     A
C240   H277    1.083   .     S
C240   C1282   1.419   1_554 S
C241   C242    1.401   .     A
C241   C247    1.405   .     A
C242   H278    1.079   .     S
C242   C243    1.399   .     A
C243   C245    1.398   .     A
C243   H262    1.083   .     S
C244   O284    1.283   .     A
C244   O282    1.288   .     A
C245   C246    1.398   .     A
C245   H437    1.082   .     S
C246   C247    1.399   .     A
C246   H438    1.083   .     S
C247   H265    1.083   .     S
C248   C253    1.405   .     A
C248   C249    1.401   .     A
C249   C250    1.398   .     A
C249   H266    1.079   .     S
C250   C251    1.398   .     A
C250   H267    1.083   .     S
C251   C252    1.398   .     A
C252   C253    1.399   .     A
C253   H270    1.083   .     S
C254   O287    1.285   .     A
C254   O285    1.284   .     A
C254   C256    1.399   .     S
C255   O288    1.285   .     A
C255   C257    1.399   .     S
C255   O286    1.284   .     A
C257   C314    1.325   .     S
C257   H329    1.087   .     S
C258   H272    1.084   .     S
C259   H273    1.084   .     S
C259   C408    1.372   .     S
C260   H274    1.084   .     S
C260   C432    1.372   .     S
H261   C314    1.087   .     S
H268   C425    1.082   .     S
H269   C426    1.082   .     S
N279   Zn289   2.026   .     S
N280   Zn290   2.026   .     S
O281   Zn289   1.987   .     S
O282   Zn290   1.987   .     S
O283   Zn290   1.970   .     S
O284   Zn289   1.970   .     S
O285   Zn289   1.972   .     S
O286   Zn290   1.972   .     S
O287   Zn290   1.974   .     S
O288   Zn289   1.974   .     S
C291   C294    1.403   .     S
C291   O341    1.283   .     A
C291   O339    1.288   .     A
C292   C294    1.392   .     A
C292   H333    1.084   .     S
C293   C317    1.395   .     A
C293   C318    1.392   .     A
C293   C302    1.403   .     S
C294   C316    1.395   .     A
C295   C299    1.471   .     S
C295   N338    1.385   .     A
C295   C1341   1.419   1_554 S
C296   C306    1.471   .     S
C296   N337    1.385   .     A
C296   C820    1.419   .     S
C297   H334    1.083   .     S
C297   N337    1.356   .     A
C297   C817    1.419   .     S
C298   N338    1.356   .     A
C298   H335    1.083   .     S
C298   C1340   1.419   1_554 S
C299   C300    1.401   .     A
C299   C305    1.405   .     A
C300   H336    1.079   .     S
C300   C301    1.399   .     A
C301   C303    1.398   .     A
C301   H320    1.083   .     S
C302   O342    1.283   .     A
C302   O340    1.288   .     A
C303   C304    1.398   .     A
C303   H495    1.082   .     S
C304   C305    1.399   .     A
C304   H496    1.083   .     S
C305   H323    1.083   .     S
C306   C311    1.405   .     A
C306   C307    1.401   .     A
C307   C308    1.398   .     A
C307   H324    1.079   .     S
C308   C309    1.398   .     A
C308   H325    1.083   .     S
C309   C310    1.398   .     A
C310   C311    1.399   .     A
C311   H328    1.083   .     S
C312   O345    1.285   .     A
C312   O343    1.284   .     A
C312   C314    1.399   .     S
C313   O346    1.285   .     A
C313   C315    1.399   .     S
C313   O344    1.284   .     A
C315   C198    1.325   1_655 S
C315   H213    1.087   1_655 S
C316   H330    1.084   .     S
C317   H331    1.084   .     S
C317   C466    1.372   .     S
C318   H332    1.084   .     S
C318   C490    1.372   .     S
H319   C198    1.087   1_655 S
H326   C483    1.082   .     S
H327   C484    1.082   .     S
N337   Zn347   2.026   .     S
N338   Zn348   2.026   .     S
O339   Zn347   1.987   .     S
O340   Zn348   1.987   .     S
O341   Zn348   1.970   .     S
O342   Zn347   1.970   .     S
O343   Zn347   1.972   .     S
O344   Zn348   1.972   .     S
O345   Zn348   1.974   .     S
O346   Zn347   1.974   .     S
C349   C352    1.403   .     S
C349   O399    1.283   .     A
C349   O397    1.288   .     A
C350   C352    1.392   .     A
C350   H391    1.084   .     S
C351   C375    1.395   .     A
C351   C376    1.392   .     A
C351   C360    1.403   .     S
C352   C374    1.395   .     A
C353   C357    1.471   .     S
C353   N396    1.385   .     A
C353   C1399   1.419   1_554 S
C354   C364    1.471   .     S
C354   N395    1.385   .     A
C354   C878    1.419   .     S
C355   H392    1.083   .     S
C355   N395    1.356   .     A
C355   C875    1.419   .     S
C356   N396    1.356   .     A
C356   H393    1.083   .     S
C356   C1398   1.419   1_554 S
C357   C358    1.401   .     A
C357   C363    1.405   .     A
C358   H394    1.079   .     S
C358   C359    1.399   .     A
C359   C361    1.398   .     A
C359   H378    1.083   .     S
C360   O400    1.283   .     A
C360   O398    1.288   .     A
C361   C362    1.398   .     A
C361   H31     1.082   1_565 S
C362   C363    1.399   .     A
C362   H32     1.083   1_565 S
C363   H381    1.083   .     S
C364   C369    1.405   .     A
C364   C365    1.401   .     A
C365   C366    1.398   .     A
C365   H382    1.079   .     S
C366   C367    1.398   .     A
C366   H383    1.083   .     S
C367   C368    1.398   .     A
C368   C369    1.399   .     A
C369   H386    1.083   .     S
C370   O403    1.285   .     A
C370   O401    1.284   .     A
C370   C372    1.399   .     S
C371   O404    1.285   .     A
C371   C373    1.399   .     S
C371   O402    1.284   .     A
C372   C489    1.325   1_455 S
C372   H493    1.087   1_455 S
C373   C430    1.325   .     S
C373   H445    1.087   .     S
C374   H388    1.084   .     S
C375   H389    1.084   .     S
C375   C2      1.372   1_565 S
C376   H390    1.084   .     S
C376   C26     1.372   1_565 S
H377   C430    1.087   .     S
H384   C19     1.082   1_565 S
H385   C20     1.082   1_565 S
H387   C489    1.087   1_455 S
N395   Zn405   2.026   .     S
N396   Zn406   2.026   .     S
O397   Zn405   1.987   .     S
O398   Zn406   1.987   .     S
O399   Zn406   1.970   .     S
O400   Zn405   1.970   .     S
O401   Zn405   1.972   .     S
O402   Zn406   1.972   .     S
O403   Zn406   1.974   .     S
O404   Zn405   1.974   .     S
C407   C410    1.403   .     S
C407   O457    1.283   .     A
C407   O455    1.288   .     A
C408   C410    1.392   .     A
C408   H449    1.084   .     S
C409   C433    1.395   .     A
C409   C434    1.392   .     A
C409   C418    1.403   .     S
C410   C432    1.395   .     A
C411   C415    1.471   .     S
C411   N454    1.385   .     A
C411   C1457   1.419   1_554 S
C412   C422    1.471   .     S
C412   N453    1.385   .     A
C412   C936    1.419   .     S
C413   H450    1.083   .     S
C413   N453    1.356   .     A
C413   C933    1.419   .     S
C414   N454    1.356   .     A
C414   H451    1.083   .     S
C414   C1456   1.419   1_554 S
C415   C416    1.401   .     A
C415   C421    1.405   .     A
C416   H452    1.079   .     S
C416   C417    1.399   .     A
C417   C419    1.398   .     A
C417   H436    1.083   .     S
C418   O458    1.283   .     A
C418   O456    1.288   .     A
C419   C420    1.398   .     A
C419   H89     1.082   1_565 S
C420   C421    1.399   .     A
C420   H90     1.083   1_565 S
C421   H439    1.083   .     S
C422   C427    1.405   .     A
C422   C423    1.401   .     A
C423   C424    1.398   .     A
C423   H440    1.079   .     S
C424   C425    1.398   .     A
C424   H441    1.083   .     S
C425   C426    1.398   .     A
C426   C427    1.399   .     A
C427   H444    1.083   .     S
C428   O461    1.285   .     A
C428   O459    1.284   .     A
C428   C430    1.399   .     S
C429   O462    1.285   .     A
C429   C431    1.399   .     S
C429   O460    1.284   .     A
C431   C488    1.325   .     S
C431   H503    1.087   .     S
C432   H446    1.084   .     S
C433   H447    1.084   .     S
C433   C60     1.372   1_565 S
C434   H448    1.084   .     S
C434   C84     1.372   1_565 S
H435   C488    1.087   .     S
H442   C77     1.082   1_565 S
H443   C78     1.082   1_565 S
N453   Zn463   2.026   .     S
N454   Zn464   2.026   .     S
O455   Zn463   1.987   .     S
O456   Zn464   1.987   .     S
O457   Zn464   1.970   .     S
O458   Zn463   1.970   .     S
O459   Zn463   1.972   .     S
O460   Zn464   1.972   .     S
O461   Zn464   1.974   .     S
O462   Zn463   1.974   .     S
C465   C468    1.403   .     S
C465   O515    1.283   .     A
C465   O513    1.288   .     A
C466   C468    1.392   .     A
C466   H507    1.084   .     S
C467   C491    1.395   .     A
C467   C492    1.392   .     A
C467   C476    1.403   .     S
C468   C490    1.395   .     A
C469   C473    1.471   .     S
C469   N512    1.385   .     A
C469   C1515   1.419   1_554 S
C470   C480    1.471   .     S
C470   N511    1.385   .     A
C470   C994    1.419   .     S
C471   H508    1.083   .     S
C471   N511    1.356   .     A
C471   C991    1.419   .     S
C472   N512    1.356   .     A
C472   H509    1.083   .     S
C472   C1514   1.419   1_554 S
C473   C474    1.401   .     A
C473   C479    1.405   .     A
C474   H510    1.079   .     S
C474   C475    1.399   .     A
C475   C477    1.398   .     A
C475   H494    1.083   .     S
C476   O516    1.283   .     A
C476   O514    1.288   .     A
C477   C478    1.398   .     A
C477   H147    1.082   1_565 S
C478   C479    1.399   .     A
C478   H148    1.083   1_565 S
C479   H497    1.083   .     S
C480   C485    1.405   .     A
C480   C481    1.401   .     A
C481   C482    1.398   .     A
C481   H498    1.079   .     S
C482   C483    1.398   .     A
C482   H499    1.083   .     S
C483   C484    1.398   .     A
C484   C485    1.399   .     A
C485   H502    1.083   .     S
C486   O519    1.285   .     A
C486   O517    1.284   .     A
C486   C488    1.399   .     S
C487   O520    1.285   .     A
C487   C489    1.399   .     S
C487   O518    1.284   .     A
C489   C372    1.325   1_655 S
C489   H387    1.087   1_655 S
C490   H504    1.084   .     S
C491   H505    1.084   .     S
C491   C118    1.372   1_565 S
C492   H506    1.084   .     S
C492   C142    1.372   1_565 S
H493   C372    1.087   1_655 S
H500   C135    1.082   1_565 S
H501   C136    1.082   1_565 S
N511   Zn521   2.026   .     S
N512   Zn522   2.026   .     S
O513   Zn521   1.987   .     S
O514   Zn522   1.987   .     S
O515   Zn522   1.970   .     S
O516   Zn521   1.970   .     S
O517   Zn521   1.972   .     S
O518   Zn522   1.972   .     S
O519   Zn522   1.974   .     S
O520   Zn521   1.974   .     S
C523   C526    1.403   .     S
C523   O573    1.283   .     A
C523   O571    1.288   .     A
C524   C526    1.392   .     A
C524   H565    1.084   .     S
C524   C897    1.372   1_545 S
C525   C549    1.395   .     A
C525   C550    1.392   .     A
C525   C534    1.403   .     S
C526   C548    1.395   .     A
C527   C531    1.471   .     S
C527   N570    1.385   .     A
C528   C538    1.471   .     S
C528   N569    1.385   .     A
C528   C1052   1.419   .     S
C529   H566    1.083   .     S
C529   N569    1.356   .     A
C529   C1049   1.419   .     S
C530   N570    1.356   .     A
C530   H567    1.083   .     S
C531   C532    1.401   .     A
C531   C537    1.405   .     A
C532   H568    1.079   .     S
C532   C533    1.399   .     A
C533   C535    1.398   .     A
C533   H552    1.083   .     S
C534   O574    1.283   .     A
C534   O572    1.288   .     A
C535   C536    1.398   .     A
C535   H727    1.082   .     S
C536   C537    1.399   .     A
C536   H728    1.083   .     S
C537   H555    1.083   .     S
C538   C543    1.405   .     A
C538   C539    1.401   .     A
C539   C540    1.398   .     A
C539   H556    1.079   .     S
C540   C541    1.398   .     A
C540   H557    1.083   .     S
C541   C542    1.398   .     A
C541   H906    1.082   1_545 S
C542   C543    1.399   .     A
C542   H907    1.082   1_545 S
C543   H560    1.083   .     S
C544   O577    1.285   .     A
C544   O575    1.284   .     A
C544   C546    1.399   .     S
C545   O578    1.285   .     A
C545   C547    1.399   .     S
C545   O576    1.284   .     A
C546   C663    1.325   1_455 S
C546   H667    1.087   1_455 S
C547   C604    1.325   .     S
C547   H619    1.087   .     S
C548   H562    1.084   .     S
C548   C898    1.372   1_545 S
C549   H563    1.084   .     S
C549   C698    1.372   .     S
C550   H564    1.084   .     S
C550   C722    1.372   .     S
H551   C604    1.087   .     S
H553   C883    1.082   1_545 S
H554   C884    1.083   1_545 S
H558   C715    1.082   .     S
H559   C716    1.082   .     S
H561   C663    1.087   1_455 S
N569   Zn579   2.026   .     S
N570   Zn580   2.026   .     S
O571   Zn579   1.987   .     S
O572   Zn580   1.987   .     S
O573   Zn580   1.970   .     S
O574   Zn579   1.970   .     S
O575   Zn579   1.972   .     S
O576   Zn580   1.972   .     S
O577   Zn580   1.974   .     S
O578   Zn579   1.974   .     S
C581   C584    1.403   .     S
C581   O631    1.283   .     A
C581   O629    1.288   .     A
C582   C584    1.392   .     A
C582   H623    1.084   .     S
C582   C955    1.372   1_545 S
C583   C607    1.395   .     A
C583   C608    1.392   .     A
C583   C592    1.403   .     S
C584   C606    1.395   .     A
C585   C589    1.471   .     S
C585   N628    1.385   .     A
C586   C596    1.471   .     S
C586   N627    1.385   .     A
C586   C1110   1.419   .     S
C587   H624    1.083   .     S
C587   N627    1.356   .     A
C587   C1107   1.419   .     S
C588   N628    1.356   .     A
C588   H625    1.083   .     S
C589   C590    1.401   .     A
C589   C595    1.405   .     A
C590   H626    1.079   .     S
C590   C591    1.399   .     A
C591   C593    1.398   .     A
C591   H610    1.083   .     S
C592   O632    1.283   .     A
C592   O630    1.288   .     A
C593   C594    1.398   .     A
C593   H785    1.082   .     S
C594   C595    1.399   .     A
C594   H786    1.083   .     S
C595   H613    1.083   .     S
C596   C601    1.405   .     A
C596   C597    1.401   .     A
C597   C598    1.398   .     A
C597   H614    1.079   .     S
C598   C599    1.398   .     A
C598   H615    1.083   .     S
C599   C600    1.398   .     A
C599   H964    1.082   1_545 S
C600   C601    1.399   .     A
C600   H965    1.082   1_545 S
C601   H618    1.083   .     S
C602   O635    1.285   .     A
C602   O633    1.284   .     A
C602   C604    1.399   .     S
C603   O636    1.285   .     A
C603   C605    1.399   .     S
C603   O634    1.284   .     A
C605   C662    1.325   .     S
C605   H677    1.087   .     S
C606   H620    1.084   .     S
C606   C956    1.372   1_545 S
C607   H621    1.084   .     S
C607   C756    1.372   .     S
C608   H622    1.084   .     S
C608   C780    1.372   .     S
H609   C662    1.087   .     S
H611   C941    1.082   1_545 S
H612   C942    1.083   1_545 S
H616   C773    1.082   .     S
H617   C774    1.082   .     S
N627   Zn637   2.026   .     S
N628   Zn638   2.026   .     S
O629   Zn637   1.987   .     S
O630   Zn638   1.987   .     S
O631   Zn638   1.970   .     S
O632   Zn637   1.970   .     S
O633   Zn637   1.972   .     S
O634   Zn638   1.972   .     S
O635   Zn638   1.974   .     S
O636   Zn637   1.974   .     S
C639   C642    1.403   .     S
C639   O689    1.283   .     A
C639   O687    1.288   .     A
C640   C642    1.392   .     A
C640   H681    1.084   .     S
C640   C1013   1.372   1_545 S
C641   C665    1.395   .     A
C641   C666    1.392   .     A
C641   C650    1.403   .     S
C642   C664    1.395   .     A
C643   C647    1.471   .     S
C643   N686    1.385   .     A
C644   C654    1.471   .     S
C644   N685    1.385   .     A
C644   C1168   1.419   .     S
C645   H682    1.083   .     S
C645   N685    1.356   .     A
C645   C1165   1.419   .     S
C646   N686    1.356   .     A
C646   H683    1.083   .     S
C647   C648    1.401   .     A
C647   C653    1.405   .     A
C648   H684    1.079   .     S
C648   C649    1.399   .     A
C649   C651    1.398   .     A
C649   H668    1.083   .     S
C650   O690    1.283   .     A
C650   O688    1.288   .     A
C651   C652    1.398   .     A
C651   H843    1.082   .     S
C652   C653    1.399   .     A
C652   H844    1.083   .     S
C653   H671    1.083   .     S
C654   C659    1.405   .     A
C654   C655    1.401   .     A
C655   C656    1.398   .     A
C655   H672    1.079   .     S
C656   C657    1.398   .     A
C656   H673    1.083   .     S
C657   C658    1.398   .     A
C657   H1022   1.082   1_545 S
C658   C659    1.399   .     A
C658   H1023   1.082   1_545 S
C659   H676    1.083   .     S
C660   O693    1.285   .     A
C660   O691    1.284   .     A
C660   C662    1.399   .     S
C661   O694    1.285   .     A
C661   C663    1.399   .     S
C661   O692    1.284   .     A
C663   C546    1.325   1_655 S
C663   H561    1.087   1_655 S
C664   H678    1.084   .     S
C664   C1014   1.372   1_545 S
C665   H679    1.084   .     S
C665   C814    1.372   .     S
C666   H680    1.084   .     S
C666   C838    1.372   .     S
H667   C546    1.087   1_655 S
H669   C999    1.082   1_545 S
H670   C1000   1.083   1_545 S
H674   C831    1.082   .     S
H675   C832    1.082   .     S
N685   Zn695   2.026   .     S
N686   Zn696   2.026   .     S
O687   Zn695   1.987   .     S
O688   Zn696   1.987   .     S
O689   Zn696   1.970   .     S
O690   Zn695   1.970   .     S
O691   Zn695   1.972   .     S
O692   Zn696   1.972   .     S
O693   Zn696   1.974   .     S
O694   Zn695   1.974   .     S
C697   C700    1.403   .     S
C697   O747    1.283   .     A
C697   O745    1.288   .     A
C698   C700    1.392   .     A
C698   H739    1.084   .     S
C699   C723    1.395   .     A
C699   C724    1.392   .     A
C699   C708    1.403   .     S
C700   C722    1.395   .     A
C701   C705    1.471   .     S
C701   N744    1.385   .     A
C702   C712    1.471   .     S
C702   N743    1.385   .     A
C702   C1226   1.419   .     S
C703   H740    1.083   .     S
C703   N743    1.356   .     A
C703   C1223   1.419   .     S
C704   N744    1.356   .     A
C704   H741    1.083   .     S
C705   C706    1.401   .     A
C705   C711    1.405   .     A
C706   H742    1.079   .     S
C706   C707    1.399   .     A
C707   C709    1.398   .     A
C707   H726    1.083   .     S
C708   O748    1.283   .     A
C708   O746    1.288   .     A
C709   C710    1.398   .     A
C709   H901    1.082   .     S
C710   C711    1.399   .     A
C710   H902    1.083   .     S
C711   H729    1.083   .     S
C712   C717    1.405   .     A
C712   C713    1.401   .     A
C713   C714    1.398   .     A
C713   H730    1.079   .     S
C714   C715    1.398   .     A
C714   H731    1.083   .     S
C715   C716    1.398   .     A
C716   C717    1.399   .     A
C717   H734    1.083   .     S
C718   O751    1.285   .     A
C718   O749    1.284   .     A
C718   C720    1.399   .     S
C719   O752    1.285   .     A
C719   C721    1.399   .     S
C719   O750    1.284   .     A
C720   C837    1.325   1_455 S
C720   H841    1.087   1_455 S
C721   C778    1.325   .     S
C721   H793    1.087   .     S
C722   H736    1.084   .     S
C723   H737    1.084   .     S
C723   C872    1.372   .     S
C724   H738    1.084   .     S
C724   C896    1.372   .     S
H725   C778    1.087   .     S
H732   C889    1.082   .     S
H733   C890    1.082   .     S
H735   C837    1.087   1_455 S
N743   Zn753   2.026   .     S
N744   Zn754   2.026   .     S
O745   Zn753   1.987   .     S
O746   Zn754   1.987   .     S
O747   Zn754   1.970   .     S
O748   Zn753   1.970   .     S
O749   Zn753   1.972   .     S
O750   Zn754   1.972   .     S
O751   Zn754   1.974   .     S
O752   Zn753   1.974   .     S
C755   C758    1.403   .     S
C755   O805    1.283   .     A
C755   O803    1.288   .     A
C756   C758    1.392   .     A
C756   H797    1.084   .     S
C757   C781    1.395   .     A
C757   C782    1.392   .     A
C757   C766    1.403   .     S
C758   C780    1.395   .     A
C759   C763    1.471   .     S
C759   N802    1.385   .     A
C760   C770    1.471   .     S
C760   N801    1.385   .     A
C760   C1284   1.419   .     S
C761   H798    1.083   .     S
C761   N801    1.356   .     A
C761   C1281   1.419   .     S
C762   N802    1.356   .     A
C762   H799    1.083   .     S
C763   C764    1.401   .     A
C763   C769    1.405   .     A
C764   H800    1.079   .     S
C764   C765    1.399   .     A
C765   C767    1.398   .     A
C765   H784    1.083   .     S
C766   O806    1.283   .     A
C766   O804    1.288   .     A
C767   C768    1.398   .     A
C767   H959    1.082   .     S
C768   C769    1.399   .     A
C768   H960    1.083   .     S
C769   H787    1.083   .     S
C770   C775    1.405   .     A
C770   C771    1.401   .     A
C771   C772    1.398   .     A
C771   H788    1.079   .     S
C772   C773    1.398   .     A
C772   H789    1.083   .     S
C773   C774    1.398   .     A
C774   C775    1.399   .     A
C775   H792    1.083   .     S
C776   O809    1.285   .     A
C776   O807    1.284   .     A
C776   C778    1.399   .     S
C777   O810    1.285   .     A
C777   C779    1.399   .     S
C777   O808    1.284   .     A
C779   C836    1.325   .     S
C779   H851    1.087   .     S
C780   H794    1.084   .     S
C781   H795    1.084   .     S
C781   C930    1.372   .     S
C782   H796    1.084   .     S
C782   C954    1.372   .     S
H783   C836    1.087   .     S
H790   C947    1.082   .     S
H791   C948    1.082   .     S
N801   Zn811   2.026   .     S
N802   Zn812   2.026   .     S
O803   Zn811   1.987   .     S
O804   Zn812   1.987   .     S
O805   Zn812   1.970   .     S
O806   Zn811   1.970   .     S
O807   Zn811   1.972   .     S
O808   Zn812   1.972   .     S
O809   Zn812   1.974   .     S
O810   Zn811   1.974   .     S
C813   C816    1.403   .     S
C813   O863    1.283   .     A
C813   O861    1.288   .     A
C814   C816    1.392   .     A
C814   H855    1.084   .     S
C815   C839    1.395   .     A
C815   C840    1.392   .     A
C815   C824    1.403   .     S
C816   C838    1.395   .     A
C817   C821    1.471   .     S
C817   N860    1.385   .     A
C818   C828    1.471   .     S
C818   N859    1.385   .     A
C818   C1342   1.419   .     S
C819   H856    1.083   .     S
C819   N859    1.356   .     A
C819   C1339   1.419   .     S
C820   N860    1.356   .     A
C820   H857    1.083   .     S
C821   C822    1.401   .     A
C821   C827    1.405   .     A
C822   H858    1.079   .     S
C822   C823    1.399   .     A
C823   C825    1.398   .     A
C823   H842    1.083   .     S
C824   O864    1.283   .     A
C824   O862    1.288   .     A
C825   C826    1.398   .     A
C825   H1017   1.082   .     S
C826   C827    1.399   .     A
C826   H1018   1.083   .     S
C827   H845    1.083   .     S
C828   C833    1.405   .     A
C828   C829    1.401   .     A
C829   C830    1.398   .     A
C829   H846    1.079   .     S
C830   C831    1.398   .     A
C830   H847    1.083   .     S
C831   C832    1.398   .     A
C832   C833    1.399   .     A
C833   H850    1.083   .     S
C834   O867    1.285   .     A
C834   O865    1.284   .     A
C834   C836    1.399   .     S
C835   O868    1.285   .     A
C835   C837    1.399   .     S
C835   O866    1.284   .     A
C837   C720    1.325   1_655 S
C837   H735    1.087   1_655 S
C838   H852    1.084   .     S
C839   H853    1.084   .     S
C839   C988    1.372   .     S
C840   H854    1.084   .     S
C840   C1012   1.372   .     S
H841   C720    1.087   1_655 S
H848   C1005   1.082   .     S
H849   C1006   1.082   .     S
N859   Zn869   2.026   .     S
N860   Zn870   2.026   .     S
O861   Zn869   1.987   .     S
O862   Zn870   1.987   .     S
O863   Zn870   1.970   .     S
O864   Zn869   1.970   .     S
O865   Zn869   1.972   .     S
O866   Zn870   1.972   .     S
O867   Zn870   1.974   .     S
O868   Zn869   1.974   .     S
C871   C874    1.403   .     S
C871   O921    1.283   .     A
C871   O919    1.288   .     A
C872   C874    1.392   .     A
C872   H913    1.084   .     S
C873   C897    1.395   .     A
C873   C898    1.392   .     A
C873   C882    1.403   .     S
C874   C896    1.395   .     A
C875   C879    1.471   .     S
C875   N918    1.385   .     A
C876   C886    1.471   .     S
C876   N917    1.385   .     A
C876   C1400   1.419   .     S
C877   H914    1.083   .     S
C877   N917    1.356   .     A
C877   C1397   1.419   .     S
C878   N918    1.356   .     A
C878   H915    1.083   .     S
C879   C880    1.401   .     A
C879   C885    1.405   .     A
C880   H916    1.079   .     S
C880   C881    1.399   .     A
C881   C883    1.398   .     A
C881   H900    1.083   .     S
C882   O922    1.283   .     A
C882   O920    1.288   .     A
C883   C884    1.398   .     A
C883   H553    1.082   1_565 S
C884   C885    1.399   .     A
C884   H554    1.083   1_565 S
C885   H903    1.083   .     S
C886   C891    1.405   .     A
C886   C887    1.401   .     A
C887   C888    1.398   .     A
C887   H904    1.079   .     S
C888   C889    1.398   .     A
C888   H905    1.083   .     S
C889   C890    1.398   .     A
C890   C891    1.399   .     A
C891   H908    1.083   .     S
C892   O925    1.285   .     A
C892   O923    1.284   .     A
C892   C894    1.399   .     S
C893   O926    1.285   .     A
C893   C895    1.399   .     S
C893   O924    1.284   .     A
C894   C1011   1.325   1_455 S
C894   H1015   1.087   1_455 S
C895   C952    1.325   .     S
C895   H967    1.087   .     S
C896   H910    1.084   .     S
C897   H911    1.084   .     S
C897   C524    1.372   1_565 S
C898   H912    1.084   .     S
C898   C548    1.372   1_565 S
H899   C952    1.087   .     S
H906   C541    1.082   1_565 S
H907   C542    1.082   1_565 S
H909   C1011   1.087   1_455 S
N917   Zn927   2.026   .     S
N918   Zn928   2.026   .     S
O919   Zn927   1.987   .     S
O920   Zn928   1.987   .     S
O921   Zn928   1.970   .     S
O922   Zn927   1.970   .     S
O923   Zn927   1.972   .     S
O924   Zn928   1.972   .     S
O925   Zn928   1.974   .     S
O926   Zn927   1.974   .     S
C929   C932    1.403   .     S
C929   O979    1.283   .     A
C929   O977    1.288   .     A
C930   C932    1.392   .     A
C930   H971    1.084   .     S
C931   C955    1.395   .     A
C931   C956    1.392   .     A
C931   C940    1.403   .     S
C932   C954    1.395   .     A
C933   C937    1.471   .     S
C933   N976    1.385   .     A
C934   C944    1.471   .     S
C934   N975    1.385   .     A
C934   C1458   1.419   .     S
C935   H972    1.083   .     S
C935   N975    1.356   .     A
C935   C1455   1.419   .     S
C936   N976    1.356   .     A
C936   H973    1.083   .     S
C937   C938    1.401   .     A
C937   C943    1.405   .     A
C938   H974    1.079   .     S
C938   C939    1.399   .     A
C939   C941    1.398   .     A
C939   H958    1.083   .     S
C940   O980    1.283   .     A
C940   O978    1.288   .     A
C941   C942    1.398   .     A
C941   H611    1.082   1_565 S
C942   C943    1.399   .     A
C942   H612    1.083   1_565 S
C943   H961    1.083   .     S
C944   C949    1.405   .     A
C944   C945    1.401   .     A
C945   C946    1.398   .     A
C945   H962    1.079   .     S
C946   C947    1.398   .     A
C946   H963    1.083   .     S
C947   C948    1.398   .     A
C948   C949    1.399   .     A
C949   H966    1.083   .     S
C950   O983    1.285   .     A
C950   O981    1.284   .     A
C950   C952    1.399   .     S
C951   O984    1.285   .     A
C951   C953    1.399   .     S
C951   O982    1.284   .     A
C953   C1010   1.325   .     S
C953   H1025   1.087   .     S
C954   H968    1.084   .     S
C955   H969    1.084   .     S
C955   C582    1.372   1_565 S
C956   H970    1.084   .     S
C956   C606    1.372   1_565 S
H957   C1010   1.087   .     S
H964   C599    1.082   1_565 S
H965   C600    1.082   1_565 S
N975   Zn985   2.026   .     S
N976   Zn986   2.026   .     S
O977   Zn985   1.987   .     S
O978   Zn986   1.987   .     S
O979   Zn986   1.970   .     S
O980   Zn985   1.970   .     S
O981   Zn985   1.972   .     S
O982   Zn986   1.972   .     S
O983   Zn986   1.974   .     S
O984   Zn985   1.974   .     S
C987   C990    1.403   .     S
C987   O1037   1.283   .     A
C987   O1035   1.288   .     A
C988   C990    1.392   .     A
C988   H1029   1.084   .     S
C989   C1013   1.395   .     A
C989   C1014   1.392   .     A
C989   C998    1.403   .     S
C990   C1012   1.395   .     A
C991   C995    1.471   .     S
C991   N1034   1.385   .     A
C992   C1002   1.471   .     S
C992   N1033   1.385   .     A
C992   C1516   1.419   .     S
C993   H1030   1.083   .     S
C993   N1033   1.356   .     A
C993   C1513   1.419   .     S
C994   N1034   1.356   .     A
C994   H1031   1.083   .     S
C995   C996    1.401   .     A
C995   C1001   1.405   .     A
C996   H1032   1.079   .     S
C996   C997    1.399   .     A
C997   C999    1.398   .     A
C997   H1016   1.083   .     S
C998   O1038   1.283   .     A
C998   O1036   1.288   .     A
C999   C1000   1.398   .     A
C999   H669    1.082   1_565 S
C1000  C1001   1.399   .     A
C1000  H670    1.083   1_565 S
C1001  H1019   1.083   .     S
C1002  C1007   1.405   .     A
C1002  C1003   1.401   .     A
C1003  C1004   1.398   .     A
C1003  H1020   1.079   .     S
C1004  C1005   1.398   .     A
C1004  H1021   1.083   .     S
C1005  C1006   1.398   .     A
C1006  C1007   1.399   .     A
C1007  H1024   1.083   .     S
C1008  O1041   1.285   .     A
C1008  O1039   1.284   .     A
C1008  C1010   1.399   .     S
C1009  O1042   1.285   .     A
C1009  C1011   1.399   .     S
C1009  O1040   1.284   .     A
C1011  C894    1.325   1_655 S
C1011  H909    1.087   1_655 S
C1012  H1026   1.084   .     S
C1013  H1027   1.084   .     S
C1013  C640    1.372   1_565 S
C1014  H1028   1.084   .     S
C1014  C664    1.372   1_565 S
H1015  C894    1.087   1_655 S
H1022  C657    1.082   1_565 S
H1023  C658    1.082   1_565 S
N1033  Zn1043  2.026   .     S
N1034  Zn1044  2.026   .     S
O1035  Zn1043  1.987   .     S
O1036  Zn1044  1.987   .     S
O1037  Zn1044  1.970   .     S
O1038  Zn1043  1.970   .     S
O1039  Zn1043  1.972   .     S
O1040  Zn1044  1.972   .     S
O1041  Zn1044  1.974   .     S
O1042  Zn1043  1.974   .     S
C1045  C1048   1.403   .     S
C1045  O1095   1.283   .     A
C1045  O1093   1.288   .     A
C1046  C1048   1.392   .     A
C1046  H1087   1.084   .     S
C1046  C1419   1.372   1_545 S
C1047  C1071   1.395   .     A
C1047  C1072   1.392   .     A
C1047  C1056   1.403   .     S
C1048  C1070   1.395   .     A
C1049  C1053   1.471   .     S
C1049  N1092   1.385   .     A
C1050  C1060   1.471   .     S
C1050  N1091   1.385   .     A
C1050  C8      1.419   1_556 S
C1051  H1088   1.083   .     S
C1051  N1091   1.356   .     A
C1051  C5      1.419   1_556 S
C1052  N1092   1.356   .     A
C1052  H1089   1.083   .     S
C1053  C1054   1.401   .     A
C1053  C1059   1.405   .     A
C1054  H1090   1.079   .     S
C1054  C1055   1.399   .     A
C1055  C1057   1.398   .     A
C1055  H1074   1.083   .     S
C1056  O1096   1.283   .     A
C1056  O1094   1.288   .     A
C1057  C1058   1.398   .     A
C1057  H1249   1.082   .     S
C1058  C1059   1.399   .     A
C1058  H1250   1.083   .     S
C1059  H1077   1.083   .     S
C1060  C1065   1.405   .     A
C1060  C1061   1.401   .     A
C1061  C1062   1.398   .     A
C1061  H1078   1.079   .     S
C1062  C1063   1.398   .     A
C1062  H1079   1.083   .     S
C1063  C1064   1.398   .     A
C1063  H1428   1.082   1_545 S
C1064  C1065   1.399   .     A
C1064  H1429   1.082   1_545 S
C1065  H1082   1.083   .     S
C1066  O1099   1.285   .     A
C1066  O1097   1.284   .     A
C1066  C1068   1.399   .     S
C1067  O1100   1.285   .     A
C1067  C1069   1.399   .     S
C1067  O1098   1.284   .     A
C1068  C1185   1.325   1_455 S
C1068  H1189   1.087   1_455 S
C1069  C1126   1.325   .     S
C1069  H1141   1.087   .     S
C1070  H1084   1.084   .     S
C1070  C1420   1.372   1_545 S
C1071  H1085   1.084   .     S
C1071  C1220   1.372   .     S
C1072  H1086   1.084   .     S
C1072  C1244   1.372   .     S
H1073  C1126   1.087   .     S
H1075  C1405   1.082   1_545 S
H1076  C1406   1.083   1_545 S
H1080  C1237   1.082   .     S
H1081  C1238   1.082   .     S
H1083  C1185   1.087   1_455 S
N1091  Zn1101  2.026   .     S
N1092  Zn1102  2.026   .     S
O1093  Zn1101  1.987   .     S
O1094  Zn1102  1.987   .     S
O1095  Zn1102  1.970   .     S
O1096  Zn1101  1.970   .     S
O1097  Zn1101  1.972   .     S
O1098  Zn1102  1.972   .     S
O1099  Zn1102  1.974   .     S
O1100  Zn1101  1.974   .     S
C1103  C1106   1.403   .     S
C1103  O1153   1.283   .     A
C1103  O1151   1.288   .     A
C1104  C1106   1.392   .     A
C1104  H1145   1.084   .     S
C1104  C1477   1.372   1_545 S
C1105  C1129   1.395   .     A
C1105  C1130   1.392   .     A
C1105  C1114   1.403   .     S
C1106  C1128   1.395   .     A
C1107  C1111   1.471   .     S
C1107  N1150   1.385   .     A
C1108  C1118   1.471   .     S
C1108  N1149   1.385   .     A
C1108  C66     1.419   1_556 S
C1109  H1146   1.083   .     S
C1109  N1149   1.356   .     A
C1109  C63     1.419   1_556 S
C1110  N1150   1.356   .     A
C1110  H1147   1.083   .     S
C1111  C1112   1.401   .     A
C1111  C1117   1.405   .     A
C1112  H1148   1.079   .     S
C1112  C1113   1.399   .     A
C1113  C1115   1.398   .     A
C1113  H1132   1.083   .     S
C1114  O1154   1.283   .     A
C1114  O1152   1.288   .     A
C1115  C1116   1.398   .     A
C1115  H1307   1.082   .     S
C1116  C1117   1.399   .     A
C1116  H1308   1.083   .     S
C1117  H1135   1.083   .     S
C1118  C1123   1.405   .     A
C1118  C1119   1.401   .     A
C1119  C1120   1.398   .     A
C1119  H1136   1.079   .     S
C1120  C1121   1.398   .     A
C1120  H1137   1.083   .     S
C1121  C1122   1.398   .     A
C1121  H1486   1.082   1_545 S
C1122  C1123   1.399   .     A
C1122  H1487   1.082   1_545 S
C1123  H1140   1.083   .     S
C1124  O1157   1.285   .     A
C1124  O1155   1.284   .     A
C1124  C1126   1.399   .     S
C1125  O1158   1.285   .     A
C1125  C1127   1.399   .     S
C1125  O1156   1.284   .     A
C1127  C1184   1.325   .     S
C1127  H1199   1.087   .     S
C1128  H1142   1.084   .     S
C1128  C1478   1.372   1_545 S
C1129  H1143   1.084   .     S
C1129  C1278   1.372   .     S
C1130  H1144   1.084   .     S
C1130  C1302   1.372   .     S
H1131  C1184   1.087   .     S
H1133  C1463   1.082   1_545 S
H1134  C1464   1.083   1_545 S
H1138  C1295   1.082   .     S
H1139  C1296   1.082   .     S
N1149  Zn1159  2.026   .     S
N1150  Zn1160  2.026   .     S
O1151  Zn1159  1.987   .     S
O1152  Zn1160  1.987   .     S
O1153  Zn1160  1.970   .     S
O1154  Zn1159  1.970   .     S
O1155  Zn1159  1.972   .     S
O1156  Zn1160  1.972   .     S
O1157  Zn1160  1.974   .     S
O1158  Zn1159  1.974   .     S
C1161  C1164   1.403   .     S
C1161  O1211   1.283   .     A
C1161  O1209   1.288   .     A
C1162  C1164   1.392   .     A
C1162  H1203   1.084   .     S
C1162  C1535   1.372   1_545 S
C1163  C1187   1.395   .     A
C1163  C1188   1.392   .     A
C1163  C1172   1.403   .     S
C1164  C1186   1.395   .     A
C1165  C1169   1.471   .     S
C1165  N1208   1.385   .     A
C1166  C1176   1.471   .     S
C1166  N1207   1.385   .     A
C1166  C124    1.419   1_556 S
C1167  H1204   1.083   .     S
C1167  N1207   1.356   .     A
C1167  C121    1.419   1_556 S
C1168  N1208   1.356   .     A
C1168  H1205   1.083   .     S
C1169  C1170   1.401   .     A
C1169  C1175   1.405   .     A
C1170  H1206   1.079   .     S
C1170  C1171   1.399   .     A
C1171  C1173   1.398   .     A
C1171  H1190   1.083   .     S
C1172  O1212   1.283   .     A
C1172  O1210   1.288   .     A
C1173  C1174   1.398   .     A
C1173  H1365   1.082   .     S
C1174  C1175   1.399   .     A
C1174  H1366   1.083   .     S
C1175  H1193   1.083   .     S
C1176  C1181   1.405   .     A
C1176  C1177   1.401   .     A
C1177  C1178   1.398   .     A
C1177  H1194   1.079   .     S
C1178  C1179   1.398   .     A
C1178  H1195   1.083   .     S
C1179  C1180   1.398   .     A
C1179  H1544   1.082   1_545 S
C1180  C1181   1.399   .     A
C1180  H1545   1.082   1_545 S
C1181  H1198   1.083   .     S
C1182  O1215   1.285   .     A
C1182  O1213   1.284   .     A
C1182  C1184   1.399   .     S
C1183  O1216   1.285   .     A
C1183  C1185   1.399   .     S
C1183  O1214   1.284   .     A
C1185  C1068   1.325   1_655 S
C1185  H1083   1.087   1_655 S
C1186  H1200   1.084   .     S
C1186  C1536   1.372   1_545 S
C1187  H1201   1.084   .     S
C1187  C1336   1.372   .     S
C1188  H1202   1.084   .     S
C1188  C1360   1.372   .     S
H1189  C1068   1.087   1_655 S
H1191  C1521   1.082   1_545 S
H1192  C1522   1.083   1_545 S
H1196  C1353   1.082   .     S
H1197  C1354   1.082   .     S
N1207  Zn1217  2.026   .     S
N1208  Zn1218  2.026   .     S
O1209  Zn1217  1.987   .     S
O1210  Zn1218  1.987   .     S
O1211  Zn1218  1.970   .     S
O1212  Zn1217  1.970   .     S
O1213  Zn1217  1.972   .     S
O1214  Zn1218  1.972   .     S
O1215  Zn1218  1.974   .     S
O1216  Zn1217  1.974   .     S
C1219  C1222   1.403   .     S
C1219  O1269   1.283   .     A
C1219  O1267   1.288   .     A
C1220  C1222   1.392   .     A
C1220  H1261   1.084   .     S
C1221  C1245   1.395   .     A
C1221  C1246   1.392   .     A
C1221  C1230   1.403   .     S
C1222  C1244   1.395   .     A
C1223  C1227   1.471   .     S
C1223  N1266   1.385   .     A
C1224  C1234   1.471   .     S
C1224  N1265   1.385   .     A
C1224  C182    1.419   1_556 S
C1225  H1262   1.083   .     S
C1225  N1265   1.356   .     A
C1225  C179    1.419   1_556 S
C1226  N1266   1.356   .     A
C1226  H1263   1.083   .     S
C1227  C1228   1.401   .     A
C1227  C1233   1.405   .     A
C1228  H1264   1.079   .     S
C1228  C1229   1.399   .     A
C1229  C1231   1.398   .     A
C1229  H1248   1.083   .     S
C1230  O1270   1.283   .     A
C1230  O1268   1.288   .     A
C1231  C1232   1.398   .     A
C1231  H1423   1.082   .     S
C1232  C1233   1.399   .     A
C1232  H1424   1.083   .     S
C1233  H1251   1.083   .     S
C1234  C1239   1.405   .     A
C1234  C1235   1.401   .     A
C1235  C1236   1.398   .     A
C1235  H1252   1.079   .     S
C1236  C1237   1.398   .     A
C1236  H1253   1.083   .     S
C1237  C1238   1.398   .     A
C1238  C1239   1.399   .     A
C1239  H1256   1.083   .     S
C1240  O1273   1.285   .     A
C1240  O1271   1.284   .     A
C1240  C1242   1.399   .     S
C1241  O1274   1.285   .     A
C1241  C1243   1.399   .     S
C1241  O1272   1.284   .     A
C1242  C1359   1.325   1_455 S
C1242  H1363   1.087   1_455 S
C1243  C1300   1.325   .     S
C1243  H1315   1.087   .     S
C1244  H1258   1.084   .     S
C1245  H1259   1.084   .     S
C1245  C1394   1.372   .     S
C1246  H1260   1.084   .     S
C1246  C1418   1.372   .     S
H1247  C1300   1.087   .     S
H1254  C1411   1.082   .     S
H1255  C1412   1.082   .     S
H1257  C1359   1.087   1_455 S
N1265  Zn1275  2.026   .     S
N1266  Zn1276  2.026   .     S
O1267  Zn1275  1.987   .     S
O1268  Zn1276  1.987   .     S
O1269  Zn1276  1.970   .     S
O1270  Zn1275  1.970   .     S
O1271  Zn1275  1.972   .     S
O1272  Zn1276  1.972   .     S
O1273  Zn1276  1.974   .     S
O1274  Zn1275  1.974   .     S
C1277  C1280   1.403   .     S
C1277  O1327   1.283   .     A
C1277  O1325   1.288   .     A
C1278  C1280   1.392   .     A
C1278  H1319   1.084   .     S
C1279  C1303   1.395   .     A
C1279  C1304   1.392   .     A
C1279  C1288   1.403   .     S
C1280  C1302   1.395   .     A
C1281  C1285   1.471   .     S
C1281  N1324   1.385   .     A
C1282  C1292   1.471   .     S
C1282  N1323   1.385   .     A
C1282  C240    1.419   1_556 S
C1283  H1320   1.083   .     S
C1283  N1323   1.356   .     A
C1283  C237    1.419   1_556 S
C1284  N1324   1.356   .     A
C1284  H1321   1.083   .     S
C1285  C1286   1.401   .     A
C1285  C1291   1.405   .     A
C1286  H1322   1.079   .     S
C1286  C1287   1.399   .     A
C1287  C1289   1.398   .     A
C1287  H1306   1.083   .     S
C1288  O1328   1.283   .     A
C1288  O1326   1.288   .     A
C1289  C1290   1.398   .     A
C1289  H1481   1.082   .     S
C1290  C1291   1.399   .     A
C1290  H1482   1.083   .     S
C1291  H1309   1.083   .     S
C1292  C1297   1.405   .     A
C1292  C1293   1.401   .     A
C1293  C1294   1.398   .     A
C1293  H1310   1.079   .     S
C1294  C1295   1.398   .     A
C1294  H1311   1.083   .     S
C1295  C1296   1.398   .     A
C1296  C1297   1.399   .     A
C1297  H1314   1.083   .     S
C1298  O1331   1.285   .     A
C1298  O1329   1.284   .     A
C1298  C1300   1.399   .     S
C1299  O1332   1.285   .     A
C1299  C1301   1.399   .     S
C1299  O1330   1.284   .     A
C1301  C1358   1.325   .     S
C1301  H1373   1.087   .     S
C1302  H1316   1.084   .     S
C1303  H1317   1.084   .     S
C1303  C1452   1.372   .     S
C1304  H1318   1.084   .     S
C1304  C1476   1.372   .     S
H1305  C1358   1.087   .     S
H1312  C1469   1.082   .     S
H1313  C1470   1.082   .     S
N1323  Zn1333  2.026   .     S
N1324  Zn1334  2.026   .     S
O1325  Zn1333  1.987   .     S
O1326  Zn1334  1.987   .     S
O1327  Zn1334  1.970   .     S
O1328  Zn1333  1.970   .     S
O1329  Zn1333  1.972   .     S
O1330  Zn1334  1.972   .     S
O1331  Zn1334  1.974   .     S
O1332  Zn1333  1.974   .     S
C1335  C1338   1.403   .     S
C1335  O1385   1.283   .     A
C1335  O1383   1.288   .     A
C1336  C1338   1.392   .     A
C1336  H1377   1.084   .     S
C1337  C1361   1.395   .     A
C1337  C1362   1.392   .     A
C1337  C1346   1.403   .     S
C1338  C1360   1.395   .     A
C1339  C1343   1.471   .     S
C1339  N1382   1.385   .     A
C1340  C1350   1.471   .     S
C1340  N1381   1.385   .     A
C1340  C298    1.419   1_556 S
C1341  H1378   1.083   .     S
C1341  N1381   1.356   .     A
C1341  C295    1.419   1_556 S
C1342  N1382   1.356   .     A
C1342  H1379   1.083   .     S
C1343  C1344   1.401   .     A
C1343  C1349   1.405   .     A
C1344  H1380   1.079   .     S
C1344  C1345   1.399   .     A
C1345  C1347   1.398   .     A
C1345  H1364   1.083   .     S
C1346  O1386   1.283   .     A
C1346  O1384   1.288   .     A
C1347  C1348   1.398   .     A
C1347  H1539   1.082   .     S
C1348  C1349   1.399   .     A
C1348  H1540   1.083   .     S
C1349  H1367   1.083   .     S
C1350  C1355   1.405   .     A
C1350  C1351   1.401   .     A
C1351  C1352   1.398   .     A
C1351  H1368   1.079   .     S
C1352  C1353   1.398   .     A
C1352  H1369   1.083   .     S
C1353  C1354   1.398   .     A
C1354  C1355   1.399   .     A
C1355  H1372   1.083   .     S
C1356  O1389   1.285   .     A
C1356  O1387   1.284   .     A
C1356  C1358   1.399   .     S
C1357  O1390   1.285   .     A
C1357  C1359   1.399   .     S
C1357  O1388   1.284   .     A
C1359  C1242   1.325   1_655 S
C1359  H1257   1.087   1_655 S
C1360  H1374   1.084   .     S
C1361  H1375   1.084   .     S
C1361  C1510   1.372   .     S
C1362  H1376   1.084   .     S
C1362  C1534   1.372   .     S
H1363  C1242   1.087   1_655 S
H1370  C1527   1.082   .     S
H1371  C1528   1.082   .     S
N1381  Zn1391  2.026   .     S
N1382  Zn1392  2.026   .     S
O1383  Zn1391  1.987   .     S
O1384  Zn1392  1.987   .     S
O1385  Zn1392  1.970   .     S
O1386  Zn1391  1.970   .     S
O1387  Zn1391  1.972   .     S
O1388  Zn1392  1.972   .     S
O1389  Zn1392  1.974   .     S
O1390  Zn1391  1.974   .     S
C1393  C1396   1.403   .     S
C1393  O1443   1.283   .     A
C1393  O1441   1.288   .     A
C1394  C1396   1.392   .     A
C1394  H1435   1.084   .     S
C1395  C1419   1.395   .     A
C1395  C1420   1.392   .     A
C1395  C1404   1.403   .     S
C1396  C1418   1.395   .     A
C1397  C1401   1.471   .     S
C1397  N1440   1.385   .     A
C1398  C1408   1.471   .     S
C1398  N1439   1.385   .     A
C1398  C356    1.419   1_556 S
C1399  H1436   1.083   .     S
C1399  N1439   1.356   .     A
C1399  C353    1.419   1_556 S
C1400  N1440   1.356   .     A
C1400  H1437   1.083   .     S
C1401  C1402   1.401   .     A
C1401  C1407   1.405   .     A
C1402  H1438   1.079   .     S
C1402  C1403   1.399   .     A
C1403  C1405   1.398   .     A
C1403  H1422   1.083   .     S
C1404  O1444   1.283   .     A
C1404  O1442   1.288   .     A
C1405  C1406   1.398   .     A
C1405  H1075   1.082   1_565 S
C1406  C1407   1.399   .     A
C1406  H1076   1.083   1_565 S
C1407  H1425   1.083   .     S
C1408  C1413   1.405   .     A
C1408  C1409   1.401   .     A
C1409  C1410   1.398   .     A
C1409  H1426   1.079   .     S
C1410  C1411   1.398   .     A
C1410  H1427   1.083   .     S
C1411  C1412   1.398   .     A
C1412  C1413   1.399   .     A
C1413  H1430   1.083   .     S
C1414  O1447   1.285   .     A
C1414  O1445   1.284   .     A
C1414  C1416   1.399   .     S
C1415  O1448   1.285   .     A
C1415  C1417   1.399   .     S
C1415  O1446   1.284   .     A
C1416  C1533   1.325   1_455 S
C1416  H1537   1.087   1_455 S
C1417  C1474   1.325   .     S
C1417  H1489   1.087   .     S
C1418  H1432   1.084   .     S
C1419  H1433   1.084   .     S
C1419  C1046   1.372   1_565 S
C1420  H1434   1.084   .     S
C1420  C1070   1.372   1_565 S
H1421  C1474   1.087   .     S
H1428  C1063   1.082   1_565 S
H1429  C1064   1.082   1_565 S
H1431  C1533   1.087   1_455 S
N1439  Zn1449  2.026   .     S
N1440  Zn1450  2.026   .     S
O1441  Zn1449  1.987   .     S
O1442  Zn1450  1.987   .     S
O1443  Zn1450  1.970   .     S
O1444  Zn1449  1.970   .     S
O1445  Zn1449  1.972   .     S
O1446  Zn1450  1.972   .     S
O1447  Zn1450  1.974   .     S
O1448  Zn1449  1.974   .     S
C1451  C1454   1.403   .     S
C1451  O1501   1.283   .     A
C1451  O1499   1.288   .     A
C1452  C1454   1.392   .     A
C1452  H1493   1.084   .     S
C1453  C1477   1.395   .     A
C1453  C1478   1.392   .     A
C1453  C1462   1.403   .     S
C1454  C1476   1.395   .     A
C1455  C1459   1.471   .     S
C1455  N1498   1.385   .     A
C1456  C1466   1.471   .     S
C1456  N1497   1.385   .     A
C1456  C414    1.419   1_556 S
C1457  H1494   1.083   .     S
C1457  N1497   1.356   .     A
C1457  C411    1.419   1_556 S
C1458  N1498   1.356   .     A
C1458  H1495   1.083   .     S
C1459  C1460   1.401   .     A
C1459  C1465   1.405   .     A
C1460  H1496   1.079   .     S
C1460  C1461   1.399   .     A
C1461  C1463   1.398   .     A
C1461  H1480   1.083   .     S
C1462  O1502   1.283   .     A
C1462  O1500   1.288   .     A
C1463  C1464   1.398   .     A
C1463  H1133   1.082   1_565 S
C1464  C1465   1.399   .     A
C1464  H1134   1.083   1_565 S
C1465  H1483   1.083   .     S
C1466  C1471   1.405   .     A
C1466  C1467   1.401   .     A
C1467  C1468   1.398   .     A
C1467  H1484   1.079   .     S
C1468  C1469   1.398   .     A
C1468  H1485   1.083   .     S
C1469  C1470   1.398   .     A
C1470  C1471   1.399   .     A
C1471  H1488   1.083   .     S
C1472  O1505   1.285   .     A
C1472  O1503   1.284   .     A
C1472  C1474   1.399   .     S
C1473  O1506   1.285   .     A
C1473  C1475   1.399   .     S
C1473  O1504   1.284   .     A
C1475  C1532   1.325   .     S
C1475  H1547   1.087   .     S
C1476  H1490   1.084   .     S
C1477  H1491   1.084   .     S
C1477  C1104   1.372   1_565 S
C1478  H1492   1.084   .     S
C1478  C1128   1.372   1_565 S
H1479  C1532   1.087   .     S
H1486  C1121   1.082   1_565 S
H1487  C1122   1.082   1_565 S
N1497  Zn1507  2.026   .     S
N1498  Zn1508  2.026   .     S
O1499  Zn1507  1.987   .     S
O1500  Zn1508  1.987   .     S
O1501  Zn1508  1.970   .     S
O1502  Zn1507  1.970   .     S
O1503  Zn1507  1.972   .     S
O1504  Zn1508  1.972   .     S
O1505  Zn1508  1.974   .     S
O1506  Zn1507  1.974   .     S
C1509  C1512   1.403   .     S
C1509  O1559   1.283   .     A
C1509  O1557   1.288   .     A
C1510  C1512   1.392   .     A
C1510  H1551   1.084   .     S
C1511  C1535   1.395   .     A
C1511  C1536   1.392   .     A
C1511  C1520   1.403   .     S
C1512  C1534   1.395   .     A
C1513  C1517   1.471   .     S
C1513  N1556   1.385   .     A
C1514  C1524   1.471   .     S
C1514  N1555   1.385   .     A
C1514  C472    1.419   1_556 S
C1515  H1552   1.083   .     S
C1515  N1555   1.356   .     A
C1515  C469    1.419   1_556 S
C1516  N1556   1.356   .     A
C1516  H1553   1.083   .     S
C1517  C1518   1.401   .     A
C1517  C1523   1.405   .     A
C1518  H1554   1.079   .     S
C1518  C1519   1.399   .     A
C1519  C1521   1.398   .     A
C1519  H1538   1.083   .     S
C1520  O1560   1.283   .     A
C1520  O1558   1.288   .     A
C1521  C1522   1.398   .     A
C1521  H1191   1.082   1_565 S
C1522  C1523   1.399   .     A
C1522  H1192   1.083   1_565 S
C1523  H1541   1.083   .     S
C1524  C1529   1.405   .     A
C1524  C1525   1.401   .     A
C1525  C1526   1.398   .     A
C1525  H1542   1.079   .     S
C1526  C1527   1.398   .     A
C1526  H1543   1.083   .     S
C1527  C1528   1.398   .     A
C1528  C1529   1.399   .     A
C1529  H1546   1.083   .     S
C1530  O1563   1.285   .     A
C1530  O1561   1.284   .     A
C1530  C1532   1.399   .     S
C1531  O1564   1.285   .     A
C1531  C1533   1.399   .     S
C1531  O1562   1.284   .     A
C1533  C1416   1.325   1_655 S
C1533  H1431   1.087   1_655 S
C1534  H1548   1.084   .     S
C1535  H1549   1.084   .     S
C1535  C1162   1.372   1_565 S
C1536  H1550   1.084   .     S
C1536  C1186   1.372   1_565 S
H1537  C1416   1.087   1_655 S
H1544  C1179   1.082   1_565 S
H1545  C1180   1.082   1_565 S
N1555  Zn1565  2.026   .     S
N1556  Zn1566  2.026   .     S
O1557  Zn1565  1.987   .     S
O1558  Zn1566  1.987   .     S
O1559  Zn1566  1.970   .     S
O1560  Zn1565  1.970   .     S
O1561  Zn1565  1.972   .     S
O1562  Zn1566  1.972   .     S
O1563  Zn1566  1.974   .     S
O1564  Zn1565  1.974   .     S
