data_str_m3_o1_o10_pcu_sym.175
_audit_creation_date              2020-01-03
_audit_creation_method            'Materials Studio'
_symmetry_space_group_name_H-M    'P1'
_symmetry_Int_Tables_number       1
_symmetry_cell_setting            triclinic
loop_
_symmetry_equiv_pos_as_xyz
  x,y,z
_cell_length_a                    25.7761
_cell_length_b                    31.8845
_cell_length_c                    29.6483
_cell_angle_alpha                 89.0989
_cell_angle_beta                  98.4914
_cell_angle_gamma                 89.7635
loop_
_atom_site_label
_atom_site_type_symbol
_atom_site_fract_x
_atom_site_fract_y
_atom_site_fract_z
_atom_site_U_iso_or_equiv
_atom_site_adp_type
_atom_site_occupancy
C1     C     0.16753   0.08685   0.16709   0.00000  Uiso   1.00
C2     C     0.16665   0.24653   0.16636   0.00000  Uiso   1.00
C3     C     0.06715   0.16532   0.15483   0.00000  Uiso   1.00
C4     C     0.26625   0.16606   0.17860   0.00000  Uiso   1.00
C5     C     0.01220   0.16277   0.14865   0.00000  Uiso   1.00
C6     C     0.32132   0.16497   0.18514   0.00000  Uiso   1.00
C7     C     0.11959   0.02216   0.16610   0.00000  Uiso   1.00
C8     C     0.21486   0.31127   0.16648   0.00000  Uiso   1.00
C9     C     0.11946   0.31214   0.16602   0.00000  Uiso   1.00
C10    C     0.21552   0.02132   0.16864   0.00000  Uiso   1.00
C11    C     0.16693   0.29070   0.16579   0.00000  Uiso   1.00
C12    C     0.16769   0.04278   0.16784   0.00000  Uiso   1.00
C13    C     0.19181   0.19748   0.02647   0.00000  Uiso   1.00
C14    C     0.14068   0.13618   0.30667   0.00000  Uiso   1.00
C15    C     0.19173   0.19732   0.31189   0.00000  Uiso   1.00
C16    C     0.14057   0.13654   0.02132   0.00000  Uiso   1.00
H17    H     0.32511   0.15960   0.11414   0.00000  Uiso   1.00
H18    H     0.00845   0.16734   0.21981   0.00000  Uiso   1.00
H19    H     0.21175   0.22186   0.29576   0.00000  Uiso   1.00
H20    H     0.11934   0.11277   0.03741   0.00000  Uiso   1.00
N21    N     0.16665   0.16666   0.28573   0.00000  Uiso   1.00
N22    N     0.16668   0.16668   0.04760   0.00000  Uiso   1.00
O23    O     0.16666   0.10558   0.20487   0.00000  Uiso   1.00
O24    O     0.16667   0.22775   0.12846   0.00000  Uiso   1.00
O25    O     0.16666   0.10559   0.12843   0.00000  Uiso   1.00
O26    O     0.16667   0.22774   0.20490   0.00000  Uiso   1.00
O27    O     0.09058   0.16666   0.19595   0.00000  Uiso   1.00
O28    O     0.24275   0.16667   0.13739   0.00000  Uiso   1.00
O29    O     0.09058   0.16667   0.11950   0.00000  Uiso   1.00
O30    O     0.24275   0.16666   0.21383   0.00000  Uiso   1.00
Zn31   Zn    0.16667   0.16666   0.21771   0.00000  Uiso   1.00
Zn32   Zn    0.16667   0.16667   0.11563   0.00000  Uiso   1.00
O33    O     0.07347   0.04399   0.16833   0.00000  Uiso   1.00
C34    C     0.05032   0.05600   0.12382   0.00000  Uiso   1.00
H35    H     0.07276   0.08135   0.10976   0.00000  Uiso   1.00
H36    H     0.01043   0.06849   0.12537   0.00000  Uiso   1.00
H37    H     0.04619   0.02935   0.09995   0.00000  Uiso   1.00
O38    O     0.25977   0.28918   0.16083   0.00000  Uiso   1.00
C39    C     0.28773   0.27798   0.20391   0.00000  Uiso   1.00
H40    H     0.31486   0.25187   0.19934   0.00000  Uiso   1.00
H41    H     0.26198   0.26695   0.22869   0.00000  Uiso   1.00
H42    H     0.31241   0.30437   0.21810   0.00000  Uiso   1.00
O43    O     0.07309   0.29080   0.16721   0.00000  Uiso   1.00
C44    C     0.05132   0.27938   0.12252   0.00000  Uiso   1.00
H45    H     0.04569   0.24507   0.12185   0.00000  Uiso   1.00
H46    H     0.07518   0.28773   0.09518   0.00000  Uiso   1.00
H47    H     0.01225   0.29452   0.11383   0.00000  Uiso   1.00
O48    O     0.26240   0.04239   0.16869   0.00000  Uiso   1.00
C49    C     0.28167   0.05477   0.21362   0.00000  Uiso   1.00
H50    H     0.27418   0.03148   0.24031   0.00000  Uiso   1.00
H51    H     0.26466   0.08535   0.22097   0.00000  Uiso   1.00
H52    H     0.32474   0.05887   0.21659   0.00000  Uiso   1.00
N53    N     0.21660   0.23063   0.05242   0.00000  Uiso   1.00
H54    H     0.20082   0.25978   0.04285   0.00000  Uiso   1.00
C55    C     0.27333   0.22996   0.05878   0.00000  Uiso   1.00
H56    H     0.28819   0.25608   0.03907   0.00000  Uiso   1.00
H57    H     0.28916   0.19991   0.04777   0.00000  Uiso   1.00
H58    H     0.28788   0.23398   0.09547   0.00000  Uiso   1.00
N59    N     0.11209   0.10505   0.28001   0.00000  Uiso   1.00
H60    H     0.07242   0.10656   0.28154   0.00000  Uiso   1.00
C61    C     0.13267   0.06286   0.28833   0.00000  Uiso   1.00
H62    H     0.11063   0.04131   0.26353   0.00000  Uiso   1.00
H63    H     0.12830   0.05186   0.32331   0.00000  Uiso   1.00
H64    H     0.17476   0.06165   0.28402   0.00000  Uiso   1.00
C65    C     0.50086   0.08685   0.16709   0.00000  Uiso   1.00
C66    C     0.49998   0.24653   0.16636   0.00000  Uiso   1.00
C67    C     0.40048   0.16532   0.15483   0.00000  Uiso   1.00
C68    C     0.59959   0.16606   0.17860   0.00000  Uiso   1.00
C69    C     0.34553   0.16277   0.14865   0.00000  Uiso   1.00
C70    C     0.65465   0.16497   0.18514   0.00000  Uiso   1.00
C71    C     0.45293   0.02216   0.16610   0.00000  Uiso   1.00
C72    C     0.54820   0.31127   0.16648   0.00000  Uiso   1.00
C73    C     0.45280   0.31214   0.16602   0.00000  Uiso   1.00
C74    C     0.54885   0.02132   0.16864   0.00000  Uiso   1.00
C75    C     0.50026   0.29070   0.16579   0.00000  Uiso   1.00
C76    C     0.50103   0.04278   0.16784   0.00000  Uiso   1.00
C77    C     0.52514   0.19748   0.02647   0.00000  Uiso   1.00
C78    C     0.47402   0.13618   0.30667   0.00000  Uiso   1.00
C79    C     0.52507   0.19732   0.31189   0.00000  Uiso   1.00
C80    C     0.47390   0.13654   0.02132   0.00000  Uiso   1.00
H81    H     0.65844   0.15960   0.11414   0.00000  Uiso   1.00
H82    H     0.34178   0.16734   0.21981   0.00000  Uiso   1.00
H83    H     0.54508   0.22186   0.29576   0.00000  Uiso   1.00
H84    H     0.45268   0.11277   0.03741   0.00000  Uiso   1.00
N85    N     0.49999   0.16666   0.28573   0.00000  Uiso   1.00
N86    N     0.50001   0.16668   0.04760   0.00000  Uiso   1.00
O87    O     0.50000   0.10558   0.20487   0.00000  Uiso   1.00
O88    O     0.50000   0.22775   0.12846   0.00000  Uiso   1.00
O89    O     0.50000   0.10559   0.12843   0.00000  Uiso   1.00
O90    O     0.50000   0.22774   0.20490   0.00000  Uiso   1.00
O91    O     0.42392   0.16666   0.19595   0.00000  Uiso   1.00
O92    O     0.57608   0.16667   0.13739   0.00000  Uiso   1.00
O93    O     0.42392   0.16667   0.11950   0.00000  Uiso   1.00
O94    O     0.57608   0.16666   0.21383   0.00000  Uiso   1.00
Zn95   Zn    0.50000   0.16666   0.21771   0.00000  Uiso   1.00
Zn96   Zn    0.50000   0.16667   0.11563   0.00000  Uiso   1.00
O97    O     0.40680   0.04399   0.16833   0.00000  Uiso   1.00
C98    C     0.38365   0.05600   0.12382   0.00000  Uiso   1.00
H99    H     0.40609   0.08135   0.10976   0.00000  Uiso   1.00
H100   H     0.34377   0.06849   0.12537   0.00000  Uiso   1.00
H101   H     0.37952   0.02935   0.09995   0.00000  Uiso   1.00
O102   O     0.59310   0.28918   0.16083   0.00000  Uiso   1.00
C103   C     0.62106   0.27798   0.20391   0.00000  Uiso   1.00
H104   H     0.64819   0.25187   0.19934   0.00000  Uiso   1.00
H105   H     0.59531   0.26695   0.22869   0.00000  Uiso   1.00
H106   H     0.64575   0.30437   0.21810   0.00000  Uiso   1.00
O107   O     0.40642   0.29080   0.16721   0.00000  Uiso   1.00
C108   C     0.38465   0.27938   0.12252   0.00000  Uiso   1.00
H109   H     0.37902   0.24507   0.12185   0.00000  Uiso   1.00
H110   H     0.40852   0.28773   0.09518   0.00000  Uiso   1.00
H111   H     0.34558   0.29452   0.11383   0.00000  Uiso   1.00
O112   O     0.59573   0.04239   0.16869   0.00000  Uiso   1.00
C113   C     0.61501   0.05477   0.21362   0.00000  Uiso   1.00
H114   H     0.60752   0.03148   0.24031   0.00000  Uiso   1.00
H115   H     0.59799   0.08535   0.22097   0.00000  Uiso   1.00
H116   H     0.65807   0.05887   0.21659   0.00000  Uiso   1.00
N117   N     0.54994   0.23063   0.05242   0.00000  Uiso   1.00
H118   H     0.53416   0.25978   0.04285   0.00000  Uiso   1.00
C119   C     0.60666   0.22996   0.05878   0.00000  Uiso   1.00
H120   H     0.62152   0.25608   0.03907   0.00000  Uiso   1.00
H121   H     0.62250   0.19991   0.04777   0.00000  Uiso   1.00
H122   H     0.62121   0.23398   0.09547   0.00000  Uiso   1.00
N123   N     0.44543   0.10505   0.28001   0.00000  Uiso   1.00
H124   H     0.40575   0.10656   0.28154   0.00000  Uiso   1.00
C125   C     0.46601   0.06286   0.28833   0.00000  Uiso   1.00
H126   H     0.44396   0.04131   0.26353   0.00000  Uiso   1.00
H127   H     0.46163   0.05186   0.32331   0.00000  Uiso   1.00
H128   H     0.50809   0.06165   0.28402   0.00000  Uiso   1.00
C129   C     0.83419   0.08685   0.16709   0.00000  Uiso   1.00
C130   C     0.83332   0.24653   0.16636   0.00000  Uiso   1.00
C131   C     0.73382   0.16532   0.15483   0.00000  Uiso   1.00
C132   C     0.93292   0.16606   0.17860   0.00000  Uiso   1.00
C133   C     0.67887   0.16277   0.14865   0.00000  Uiso   1.00
C134   C     0.98799   0.16497   0.18514   0.00000  Uiso   1.00
C135   C     0.78626   0.02216   0.16610   0.00000  Uiso   1.00
C136   C     0.88153   0.31127   0.16648   0.00000  Uiso   1.00
C137   C     0.78613   0.31214   0.16602   0.00000  Uiso   1.00
C138   C     0.88219   0.02132   0.16864   0.00000  Uiso   1.00
C139   C     0.83359   0.29070   0.16579   0.00000  Uiso   1.00
C140   C     0.83436   0.04278   0.16784   0.00000  Uiso   1.00
C141   C     0.85848   0.19748   0.02647   0.00000  Uiso   1.00
C142   C     0.80735   0.13618   0.30667   0.00000  Uiso   1.00
C143   C     0.85840   0.19732   0.31189   0.00000  Uiso   1.00
C144   C     0.80723   0.13654   0.02132   0.00000  Uiso   1.00
H145   H     0.99177   0.15960   0.11414   0.00000  Uiso   1.00
H146   H     0.67512   0.16734   0.21981   0.00000  Uiso   1.00
H147   H     0.87841   0.22186   0.29576   0.00000  Uiso   1.00
H148   H     0.78601   0.11277   0.03741   0.00000  Uiso   1.00
N149   N     0.83332   0.16666   0.28573   0.00000  Uiso   1.00
N150   N     0.83335   0.16668   0.04760   0.00000  Uiso   1.00
O151   O     0.83333   0.10558   0.20487   0.00000  Uiso   1.00
O152   O     0.83334   0.22775   0.12846   0.00000  Uiso   1.00
O153   O     0.83333   0.10559   0.12843   0.00000  Uiso   1.00
O154   O     0.83334   0.22774   0.20490   0.00000  Uiso   1.00
O155   O     0.75725   0.16666   0.19595   0.00000  Uiso   1.00
O156   O     0.90942   0.16667   0.13739   0.00000  Uiso   1.00
O157   O     0.75725   0.16667   0.11950   0.00000  Uiso   1.00
O158   O     0.90942   0.16666   0.21383   0.00000  Uiso   1.00
Zn159  Zn    0.83333   0.16666   0.21771   0.00000  Uiso   1.00
Zn160  Zn    0.83333   0.16667   0.11563   0.00000  Uiso   1.00
O161   O     0.74014   0.04399   0.16833   0.00000  Uiso   1.00
C162   C     0.71698   0.05600   0.12382   0.00000  Uiso   1.00
H163   H     0.73943   0.08135   0.10976   0.00000  Uiso   1.00
H164   H     0.67710   0.06849   0.12537   0.00000  Uiso   1.00
H165   H     0.71285   0.02935   0.09995   0.00000  Uiso   1.00
O166   O     0.92644   0.28918   0.16083   0.00000  Uiso   1.00
C167   C     0.95440   0.27798   0.20391   0.00000  Uiso   1.00
H168   H     0.98152   0.25187   0.19934   0.00000  Uiso   1.00
H169   H     0.92865   0.26695   0.22869   0.00000  Uiso   1.00
H170   H     0.97908   0.30437   0.21810   0.00000  Uiso   1.00
O171   O     0.73976   0.29080   0.16721   0.00000  Uiso   1.00
C172   C     0.71799   0.27938   0.12252   0.00000  Uiso   1.00
H173   H     0.71235   0.24507   0.12185   0.00000  Uiso   1.00
H174   H     0.74185   0.28773   0.09518   0.00000  Uiso   1.00
H175   H     0.67892   0.29452   0.11383   0.00000  Uiso   1.00
O176   O     0.92906   0.04239   0.16869   0.00000  Uiso   1.00
C177   C     0.94834   0.05477   0.21362   0.00000  Uiso   1.00
H178   H     0.94085   0.03148   0.24031   0.00000  Uiso   1.00
H179   H     0.93132   0.08535   0.22097   0.00000  Uiso   1.00
H180   H     0.99140   0.05887   0.21659   0.00000  Uiso   1.00
N181   N     0.88327   0.23063   0.05242   0.00000  Uiso   1.00
H182   H     0.86749   0.25978   0.04285   0.00000  Uiso   1.00
C183   C     0.93999   0.22996   0.05878   0.00000  Uiso   1.00
H184   H     0.95486   0.25608   0.03907   0.00000  Uiso   1.00
H185   H     0.95583   0.19991   0.04777   0.00000  Uiso   1.00
H186   H     0.95454   0.23398   0.09547   0.00000  Uiso   1.00
N187   N     0.77876   0.10505   0.28001   0.00000  Uiso   1.00
H188   H     0.73908   0.10656   0.28154   0.00000  Uiso   1.00
C189   C     0.79934   0.06286   0.28833   0.00000  Uiso   1.00
H190   H     0.77729   0.04131   0.26353   0.00000  Uiso   1.00
H191   H     0.79496   0.05186   0.32331   0.00000  Uiso   1.00
H192   H     0.84143   0.06165   0.28402   0.00000  Uiso   1.00
C193   C     0.16753   0.42018   0.16709   0.00000  Uiso   1.00
C194   C     0.16665   0.57986   0.16636   0.00000  Uiso   1.00
C195   C     0.06715   0.49866   0.15483   0.00000  Uiso   1.00
C196   C     0.26625   0.49939   0.17860   0.00000  Uiso   1.00
C197   C     0.01220   0.49610   0.14865   0.00000  Uiso   1.00
C198   C     0.32132   0.49830   0.18514   0.00000  Uiso   1.00
C199   C     0.11959   0.35549   0.16610   0.00000  Uiso   1.00
C200   C     0.21486   0.64461   0.16648   0.00000  Uiso   1.00
C201   C     0.11946   0.64548   0.16602   0.00000  Uiso   1.00
C202   C     0.21552   0.35465   0.16864   0.00000  Uiso   1.00
C203   C     0.16693   0.62403   0.16579   0.00000  Uiso   1.00
C204   C     0.16769   0.37611   0.16784   0.00000  Uiso   1.00
C205   C     0.19181   0.53081   0.02647   0.00000  Uiso   1.00
C206   C     0.14068   0.46952   0.30667   0.00000  Uiso   1.00
C207   C     0.19173   0.53066   0.31189   0.00000  Uiso   1.00
C208   C     0.14057   0.46988   0.02132   0.00000  Uiso   1.00
H209   H     0.32511   0.49294   0.11414   0.00000  Uiso   1.00
H210   H     0.00845   0.50067   0.21981   0.00000  Uiso   1.00
H211   H     0.21175   0.55519   0.29576   0.00000  Uiso   1.00
H212   H     0.11934   0.44611   0.03741   0.00000  Uiso   1.00
N213   N     0.16665   0.49999   0.28573   0.00000  Uiso   1.00
N214   N     0.16668   0.50001   0.04760   0.00000  Uiso   1.00
O215   O     0.16666   0.43892   0.20487   0.00000  Uiso   1.00
O216   O     0.16667   0.56108   0.12846   0.00000  Uiso   1.00
O217   O     0.16666   0.43893   0.12843   0.00000  Uiso   1.00
O218   O     0.16667   0.56107   0.20490   0.00000  Uiso   1.00
O219   O     0.09058   0.50000   0.19595   0.00000  Uiso   1.00
O220   O     0.24275   0.50000   0.13739   0.00000  Uiso   1.00
O221   O     0.09058   0.50000   0.11950   0.00000  Uiso   1.00
O222   O     0.24275   0.50000   0.21383   0.00000  Uiso   1.00
Zn223  Zn    0.16667   0.49999   0.21771   0.00000  Uiso   1.00
Zn224  Zn    0.16667   0.50001   0.11563   0.00000  Uiso   1.00
O225   O     0.07347   0.37732   0.16833   0.00000  Uiso   1.00
C226   C     0.05032   0.38933   0.12382   0.00000  Uiso   1.00
H227   H     0.07276   0.41469   0.10976   0.00000  Uiso   1.00
H228   H     0.01043   0.40183   0.12537   0.00000  Uiso   1.00
H229   H     0.04619   0.36269   0.09995   0.00000  Uiso   1.00
O230   O     0.25977   0.62251   0.16083   0.00000  Uiso   1.00
C231   C     0.28773   0.61131   0.20391   0.00000  Uiso   1.00
H232   H     0.31486   0.58521   0.19934   0.00000  Uiso   1.00
H233   H     0.26198   0.60029   0.22869   0.00000  Uiso   1.00
H234   H     0.31241   0.63771   0.21810   0.00000  Uiso   1.00
O235   O     0.07309   0.62413   0.16721   0.00000  Uiso   1.00
C236   C     0.05132   0.61271   0.12252   0.00000  Uiso   1.00
H237   H     0.04569   0.57841   0.12185   0.00000  Uiso   1.00
H238   H     0.07518   0.62106   0.09518   0.00000  Uiso   1.00
H239   H     0.01225   0.62785   0.11383   0.00000  Uiso   1.00
O240   O     0.26240   0.37573   0.16869   0.00000  Uiso   1.00
C241   C     0.28167   0.38810   0.21362   0.00000  Uiso   1.00
H242   H     0.27418   0.36481   0.24031   0.00000  Uiso   1.00
H243   H     0.26466   0.41868   0.22097   0.00000  Uiso   1.00
H244   H     0.32474   0.39221   0.21659   0.00000  Uiso   1.00
N245   N     0.21660   0.56396   0.05242   0.00000  Uiso   1.00
H246   H     0.20082   0.59311   0.04285   0.00000  Uiso   1.00
C247   C     0.27333   0.56330   0.05878   0.00000  Uiso   1.00
H248   H     0.28819   0.58941   0.03907   0.00000  Uiso   1.00
H249   H     0.28916   0.53324   0.04777   0.00000  Uiso   1.00
H250   H     0.28788   0.56732   0.09547   0.00000  Uiso   1.00
N251   N     0.11209   0.43838   0.28001   0.00000  Uiso   1.00
H252   H     0.07242   0.43989   0.28154   0.00000  Uiso   1.00
C253   C     0.13267   0.39620   0.28833   0.00000  Uiso   1.00
H254   H     0.11063   0.37464   0.26353   0.00000  Uiso   1.00
H255   H     0.12830   0.38519   0.32331   0.00000  Uiso   1.00
H256   H     0.17476   0.39498   0.28402   0.00000  Uiso   1.00
C257   C     0.50086   0.42018   0.16709   0.00000  Uiso   1.00
C258   C     0.49998   0.57986   0.16636   0.00000  Uiso   1.00
C259   C     0.40048   0.49866   0.15483   0.00000  Uiso   1.00
C260   C     0.59959   0.49939   0.17860   0.00000  Uiso   1.00
C261   C     0.34553   0.49610   0.14865   0.00000  Uiso   1.00
C262   C     0.65465   0.49830   0.18514   0.00000  Uiso   1.00
C263   C     0.45293   0.35549   0.16610   0.00000  Uiso   1.00
C264   C     0.54820   0.64461   0.16648   0.00000  Uiso   1.00
C265   C     0.45280   0.64548   0.16602   0.00000  Uiso   1.00
C266   C     0.54885   0.35465   0.16864   0.00000  Uiso   1.00
C267   C     0.50026   0.62403   0.16579   0.00000  Uiso   1.00
C268   C     0.50103   0.37611   0.16784   0.00000  Uiso   1.00
C269   C     0.52514   0.53081   0.02647   0.00000  Uiso   1.00
C270   C     0.47402   0.46952   0.30667   0.00000  Uiso   1.00
C271   C     0.52507   0.53066   0.31189   0.00000  Uiso   1.00
C272   C     0.47390   0.46988   0.02132   0.00000  Uiso   1.00
H273   H     0.65844   0.49294   0.11414   0.00000  Uiso   1.00
H274   H     0.34178   0.50067   0.21981   0.00000  Uiso   1.00
H275   H     0.54508   0.55519   0.29576   0.00000  Uiso   1.00
H276   H     0.45268   0.44611   0.03741   0.00000  Uiso   1.00
N277   N     0.49999   0.49999   0.28573   0.00000  Uiso   1.00
N278   N     0.50001   0.50001   0.04760   0.00000  Uiso   1.00
O279   O     0.50000   0.43892   0.20487   0.00000  Uiso   1.00
O280   O     0.50000   0.56108   0.12846   0.00000  Uiso   1.00
O281   O     0.50000   0.43893   0.12843   0.00000  Uiso   1.00
O282   O     0.50000   0.56107   0.20490   0.00000  Uiso   1.00
O283   O     0.42392   0.50000   0.19595   0.00000  Uiso   1.00
O284   O     0.57608   0.50000   0.13739   0.00000  Uiso   1.00
O285   O     0.42392   0.50000   0.11950   0.00000  Uiso   1.00
O286   O     0.57608   0.50000   0.21383   0.00000  Uiso   1.00
Zn287  Zn    0.50000   0.49999   0.21771   0.00000  Uiso   1.00
Zn288  Zn    0.50000   0.50001   0.11563   0.00000  Uiso   1.00
O289   O     0.40680   0.37732   0.16833   0.00000  Uiso   1.00
C290   C     0.38365   0.38933   0.12382   0.00000  Uiso   1.00
H291   H     0.40609   0.41469   0.10976   0.00000  Uiso   1.00
H292   H     0.34377   0.40183   0.12537   0.00000  Uiso   1.00
H293   H     0.37952   0.36269   0.09995   0.00000  Uiso   1.00
O294   O     0.59310   0.62251   0.16083   0.00000  Uiso   1.00
C295   C     0.62106   0.61131   0.20391   0.00000  Uiso   1.00
H296   H     0.64819   0.58521   0.19934   0.00000  Uiso   1.00
H297   H     0.59531   0.60029   0.22869   0.00000  Uiso   1.00
H298   H     0.64575   0.63771   0.21810   0.00000  Uiso   1.00
O299   O     0.40642   0.62413   0.16721   0.00000  Uiso   1.00
C300   C     0.38465   0.61271   0.12252   0.00000  Uiso   1.00
H301   H     0.37902   0.57841   0.12185   0.00000  Uiso   1.00
H302   H     0.40852   0.62106   0.09518   0.00000  Uiso   1.00
H303   H     0.34558   0.62785   0.11383   0.00000  Uiso   1.00
O304   O     0.59573   0.37573   0.16869   0.00000  Uiso   1.00
C305   C     0.61501   0.38810   0.21362   0.00000  Uiso   1.00
H306   H     0.60752   0.36481   0.24031   0.00000  Uiso   1.00
H307   H     0.59799   0.41868   0.22097   0.00000  Uiso   1.00
H308   H     0.65807   0.39221   0.21659   0.00000  Uiso   1.00
N309   N     0.54994   0.56396   0.05242   0.00000  Uiso   1.00
H310   H     0.53416   0.59311   0.04285   0.00000  Uiso   1.00
C311   C     0.60666   0.56330   0.05878   0.00000  Uiso   1.00
H312   H     0.62152   0.58941   0.03907   0.00000  Uiso   1.00
H313   H     0.62250   0.53324   0.04777   0.00000  Uiso   1.00
H314   H     0.62121   0.56732   0.09547   0.00000  Uiso   1.00
N315   N     0.44543   0.43838   0.28001   0.00000  Uiso   1.00
H316   H     0.40575   0.43989   0.28154   0.00000  Uiso   1.00
C317   C     0.46601   0.39620   0.28833   0.00000  Uiso   1.00
H318   H     0.44396   0.37464   0.26353   0.00000  Uiso   1.00
H319   H     0.46163   0.38519   0.32331   0.00000  Uiso   1.00
H320   H     0.50809   0.39498   0.28402   0.00000  Uiso   1.00
C321   C     0.83419   0.42018   0.16709   0.00000  Uiso   1.00
C322   C     0.83332   0.57986   0.16636   0.00000  Uiso   1.00
C323   C     0.73382   0.49866   0.15483   0.00000  Uiso   1.00
C324   C     0.93292   0.49939   0.17860   0.00000  Uiso   1.00
C325   C     0.67887   0.49610   0.14865   0.00000  Uiso   1.00
C326   C     0.98799   0.49830   0.18514   0.00000  Uiso   1.00
C327   C     0.78626   0.35549   0.16610   0.00000  Uiso   1.00
C328   C     0.88153   0.64461   0.16648   0.00000  Uiso   1.00
C329   C     0.78613   0.64548   0.16602   0.00000  Uiso   1.00
C330   C     0.88219   0.35465   0.16864   0.00000  Uiso   1.00
C331   C     0.83359   0.62403   0.16579   0.00000  Uiso   1.00
C332   C     0.83436   0.37611   0.16784   0.00000  Uiso   1.00
C333   C     0.85848   0.53081   0.02647   0.00000  Uiso   1.00
C334   C     0.80735   0.46952   0.30667   0.00000  Uiso   1.00
C335   C     0.85840   0.53066   0.31189   0.00000  Uiso   1.00
C336   C     0.80723   0.46988   0.02132   0.00000  Uiso   1.00
H337   H     0.99177   0.49294   0.11414   0.00000  Uiso   1.00
H338   H     0.67512   0.50067   0.21981   0.00000  Uiso   1.00
H339   H     0.87841   0.55519   0.29576   0.00000  Uiso   1.00
H340   H     0.78601   0.44611   0.03741   0.00000  Uiso   1.00
N341   N     0.83332   0.49999   0.28573   0.00000  Uiso   1.00
N342   N     0.83335   0.50001   0.04760   0.00000  Uiso   1.00
O343   O     0.83333   0.43892   0.20487   0.00000  Uiso   1.00
O344   O     0.83334   0.56108   0.12846   0.00000  Uiso   1.00
O345   O     0.83333   0.43893   0.12843   0.00000  Uiso   1.00
O346   O     0.83334   0.56107   0.20490   0.00000  Uiso   1.00
O347   O     0.75725   0.50000   0.19595   0.00000  Uiso   1.00
O348   O     0.90942   0.50000   0.13739   0.00000  Uiso   1.00
O349   O     0.75725   0.50000   0.11950   0.00000  Uiso   1.00
O350   O     0.90942   0.50000   0.21383   0.00000  Uiso   1.00
Zn351  Zn    0.83333   0.49999   0.21771   0.00000  Uiso   1.00
Zn352  Zn    0.83333   0.50001   0.11563   0.00000  Uiso   1.00
O353   O     0.74014   0.37732   0.16833   0.00000  Uiso   1.00
C354   C     0.71698   0.38933   0.12382   0.00000  Uiso   1.00
H355   H     0.73943   0.41469   0.10976   0.00000  Uiso   1.00
H356   H     0.67710   0.40183   0.12537   0.00000  Uiso   1.00
H357   H     0.71285   0.36269   0.09995   0.00000  Uiso   1.00
O358   O     0.92644   0.62251   0.16083   0.00000  Uiso   1.00
C359   C     0.95440   0.61131   0.20391   0.00000  Uiso   1.00
H360   H     0.98152   0.58521   0.19934   0.00000  Uiso   1.00
H361   H     0.92865   0.60029   0.22869   0.00000  Uiso   1.00
H362   H     0.97908   0.63771   0.21810   0.00000  Uiso   1.00
O363   O     0.73976   0.62413   0.16721   0.00000  Uiso   1.00
C364   C     0.71799   0.61271   0.12252   0.00000  Uiso   1.00
H365   H     0.71235   0.57841   0.12185   0.00000  Uiso   1.00
H366   H     0.74185   0.62106   0.09518   0.00000  Uiso   1.00
H367   H     0.67892   0.62785   0.11383   0.00000  Uiso   1.00
O368   O     0.92906   0.37573   0.16869   0.00000  Uiso   1.00
C369   C     0.94834   0.38810   0.21362   0.00000  Uiso   1.00
H370   H     0.94085   0.36481   0.24031   0.00000  Uiso   1.00
H371   H     0.93132   0.41868   0.22097   0.00000  Uiso   1.00
H372   H     0.99140   0.39221   0.21659   0.00000  Uiso   1.00
N373   N     0.88327   0.56396   0.05242   0.00000  Uiso   1.00
H374   H     0.86749   0.59311   0.04285   0.00000  Uiso   1.00
C375   C     0.93999   0.56330   0.05878   0.00000  Uiso   1.00
H376   H     0.95486   0.58941   0.03907   0.00000  Uiso   1.00
H377   H     0.95583   0.53324   0.04777   0.00000  Uiso   1.00
H378   H     0.95454   0.56732   0.09547   0.00000  Uiso   1.00
N379   N     0.77876   0.43838   0.28001   0.00000  Uiso   1.00
H380   H     0.73908   0.43989   0.28154   0.00000  Uiso   1.00
C381   C     0.79934   0.39620   0.28833   0.00000  Uiso   1.00
H382   H     0.77729   0.37464   0.26353   0.00000  Uiso   1.00
H383   H     0.79496   0.38519   0.32331   0.00000  Uiso   1.00
H384   H     0.84143   0.39498   0.28402   0.00000  Uiso   1.00
C385   C     0.16753   0.75351   0.16709   0.00000  Uiso   1.00
C386   C     0.16665   0.91320   0.16636   0.00000  Uiso   1.00
C387   C     0.06715   0.83199   0.15483   0.00000  Uiso   1.00
C388   C     0.26625   0.83272   0.17860   0.00000  Uiso   1.00
C389   C     0.01220   0.82944   0.14865   0.00000  Uiso   1.00
C390   C     0.32132   0.83164   0.18514   0.00000  Uiso   1.00
C391   C     0.11959   0.68883   0.16610   0.00000  Uiso   1.00
C392   C     0.21486   0.97794   0.16648   0.00000  Uiso   1.00
C393   C     0.11946   0.97881   0.16602   0.00000  Uiso   1.00
C394   C     0.21552   0.68799   0.16864   0.00000  Uiso   1.00
C395   C     0.16693   0.95737   0.16579   0.00000  Uiso   1.00
C396   C     0.16769   0.70944   0.16784   0.00000  Uiso   1.00
C397   C     0.19181   0.86415   0.02647   0.00000  Uiso   1.00
C398   C     0.14068   0.80285   0.30667   0.00000  Uiso   1.00
C399   C     0.19173   0.86399   0.31189   0.00000  Uiso   1.00
C400   C     0.14057   0.80321   0.02132   0.00000  Uiso   1.00
H401   H     0.32511   0.82627   0.11414   0.00000  Uiso   1.00
H402   H     0.00845   0.83401   0.21981   0.00000  Uiso   1.00
H403   H     0.21175   0.88853   0.29576   0.00000  Uiso   1.00
H404   H     0.11934   0.77944   0.03741   0.00000  Uiso   1.00
N405   N     0.16665   0.83332   0.28573   0.00000  Uiso   1.00
N406   N     0.16668   0.83334   0.04760   0.00000  Uiso   1.00
O407   O     0.16666   0.77225   0.20487   0.00000  Uiso   1.00
O408   O     0.16667   0.89442   0.12846   0.00000  Uiso   1.00
O409   O     0.16666   0.77226   0.12843   0.00000  Uiso   1.00
O410   O     0.16667   0.89441   0.20490   0.00000  Uiso   1.00
O411   O     0.09058   0.83333   0.19595   0.00000  Uiso   1.00
O412   O     0.24275   0.83334   0.13739   0.00000  Uiso   1.00
O413   O     0.09058   0.83334   0.11950   0.00000  Uiso   1.00
O414   O     0.24275   0.83333   0.21383   0.00000  Uiso   1.00
Zn415  Zn    0.16667   0.83333   0.21771   0.00000  Uiso   1.00
Zn416  Zn    0.16667   0.83334   0.11563   0.00000  Uiso   1.00
O417   O     0.07347   0.71066   0.16833   0.00000  Uiso   1.00
C418   C     0.05032   0.72267   0.12382   0.00000  Uiso   1.00
H419   H     0.07276   0.74802   0.10976   0.00000  Uiso   1.00
H420   H     0.01043   0.73516   0.12537   0.00000  Uiso   1.00
H421   H     0.04619   0.69602   0.09995   0.00000  Uiso   1.00
O422   O     0.25977   0.95585   0.16083   0.00000  Uiso   1.00
C423   C     0.28773   0.94464   0.20391   0.00000  Uiso   1.00
H424   H     0.31486   0.91854   0.19934   0.00000  Uiso   1.00
H425   H     0.26198   0.93362   0.22869   0.00000  Uiso   1.00
H426   H     0.31241   0.97104   0.21810   0.00000  Uiso   1.00
O427   O     0.07309   0.95747   0.16721   0.00000  Uiso   1.00
C428   C     0.05132   0.94605   0.12252   0.00000  Uiso   1.00
H429   H     0.04569   0.91174   0.12185   0.00000  Uiso   1.00
H430   H     0.07518   0.95440   0.09518   0.00000  Uiso   1.00
H431   H     0.01225   0.96119   0.11383   0.00000  Uiso   1.00
O432   O     0.26240   0.70906   0.16869   0.00000  Uiso   1.00
C433   C     0.28167   0.72144   0.21362   0.00000  Uiso   1.00
H434   H     0.27418   0.69815   0.24031   0.00000  Uiso   1.00
H435   H     0.26466   0.75202   0.22097   0.00000  Uiso   1.00
H436   H     0.32474   0.72554   0.21659   0.00000  Uiso   1.00
N437   N     0.21660   0.89730   0.05242   0.00000  Uiso   1.00
H438   H     0.20082   0.92644   0.04285   0.00000  Uiso   1.00
C439   C     0.27333   0.89663   0.05878   0.00000  Uiso   1.00
H440   H     0.28819   0.92274   0.03907   0.00000  Uiso   1.00
H441   H     0.28916   0.86657   0.04777   0.00000  Uiso   1.00
H442   H     0.28788   0.90065   0.09547   0.00000  Uiso   1.00
N443   N     0.11209   0.77171   0.28001   0.00000  Uiso   1.00
H444   H     0.07242   0.77323   0.28154   0.00000  Uiso   1.00
C445   C     0.13267   0.72953   0.28833   0.00000  Uiso   1.00
H446   H     0.11063   0.70797   0.26353   0.00000  Uiso   1.00
H447   H     0.12830   0.71852   0.32331   0.00000  Uiso   1.00
H448   H     0.17476   0.72832   0.28402   0.00000  Uiso   1.00
C449   C     0.50086   0.75351   0.16709   0.00000  Uiso   1.00
C450   C     0.49998   0.91320   0.16636   0.00000  Uiso   1.00
C451   C     0.40048   0.83199   0.15483   0.00000  Uiso   1.00
C452   C     0.59959   0.83272   0.17860   0.00000  Uiso   1.00
C453   C     0.34553   0.82944   0.14865   0.00000  Uiso   1.00
C454   C     0.65465   0.83164   0.18514   0.00000  Uiso   1.00
C455   C     0.45293   0.68883   0.16610   0.00000  Uiso   1.00
C456   C     0.54820   0.97794   0.16648   0.00000  Uiso   1.00
C457   C     0.45280   0.97881   0.16602   0.00000  Uiso   1.00
C458   C     0.54885   0.68799   0.16864   0.00000  Uiso   1.00
C459   C     0.50026   0.95737   0.16579   0.00000  Uiso   1.00
C460   C     0.50103   0.70944   0.16784   0.00000  Uiso   1.00
C461   C     0.52514   0.86415   0.02647   0.00000  Uiso   1.00
C462   C     0.47402   0.80285   0.30667   0.00000  Uiso   1.00
C463   C     0.52507   0.86399   0.31189   0.00000  Uiso   1.00
C464   C     0.47390   0.80321   0.02132   0.00000  Uiso   1.00
H465   H     0.65844   0.82627   0.11414   0.00000  Uiso   1.00
H466   H     0.34178   0.83401   0.21981   0.00000  Uiso   1.00
H467   H     0.54508   0.88853   0.29576   0.00000  Uiso   1.00
H468   H     0.45268   0.77944   0.03741   0.00000  Uiso   1.00
N469   N     0.49999   0.83332   0.28573   0.00000  Uiso   1.00
N470   N     0.50001   0.83334   0.04760   0.00000  Uiso   1.00
O471   O     0.50000   0.77225   0.20487   0.00000  Uiso   1.00
O472   O     0.50000   0.89442   0.12846   0.00000  Uiso   1.00
O473   O     0.50000   0.77226   0.12843   0.00000  Uiso   1.00
O474   O     0.50000   0.89441   0.20490   0.00000  Uiso   1.00
O475   O     0.42392   0.83333   0.19595   0.00000  Uiso   1.00
O476   O     0.57608   0.83334   0.13739   0.00000  Uiso   1.00
O477   O     0.42392   0.83334   0.11950   0.00000  Uiso   1.00
O478   O     0.57608   0.83333   0.21383   0.00000  Uiso   1.00
Zn479  Zn    0.50000   0.83333   0.21771   0.00000  Uiso   1.00
Zn480  Zn    0.50000   0.83334   0.11563   0.00000  Uiso   1.00
O481   O     0.40680   0.71066   0.16833   0.00000  Uiso   1.00
C482   C     0.38365   0.72267   0.12382   0.00000  Uiso   1.00
H483   H     0.40609   0.74802   0.10976   0.00000  Uiso   1.00
H484   H     0.34377   0.73516   0.12537   0.00000  Uiso   1.00
H485   H     0.37952   0.69602   0.09995   0.00000  Uiso   1.00
O486   O     0.59310   0.95585   0.16083   0.00000  Uiso   1.00
C487   C     0.62106   0.94464   0.20391   0.00000  Uiso   1.00
H488   H     0.64819   0.91854   0.19934   0.00000  Uiso   1.00
H489   H     0.59531   0.93362   0.22869   0.00000  Uiso   1.00
H490   H     0.64575   0.97104   0.21810   0.00000  Uiso   1.00
O491   O     0.40642   0.95747   0.16721   0.00000  Uiso   1.00
C492   C     0.38465   0.94605   0.12252   0.00000  Uiso   1.00
H493   H     0.37902   0.91174   0.12185   0.00000  Uiso   1.00
H494   H     0.40852   0.95440   0.09518   0.00000  Uiso   1.00
H495   H     0.34558   0.96119   0.11383   0.00000  Uiso   1.00
O496   O     0.59573   0.70906   0.16869   0.00000  Uiso   1.00
C497   C     0.61501   0.72144   0.21362   0.00000  Uiso   1.00
H498   H     0.60752   0.69815   0.24031   0.00000  Uiso   1.00
H499   H     0.59799   0.75202   0.22097   0.00000  Uiso   1.00
H500   H     0.65807   0.72554   0.21659   0.00000  Uiso   1.00
N501   N     0.54994   0.89730   0.05242   0.00000  Uiso   1.00
H502   H     0.53416   0.92644   0.04285   0.00000  Uiso   1.00
C503   C     0.60666   0.89663   0.05878   0.00000  Uiso   1.00
H504   H     0.62152   0.92274   0.03907   0.00000  Uiso   1.00
H505   H     0.62250   0.86657   0.04777   0.00000  Uiso   1.00
H506   H     0.62121   0.90065   0.09547   0.00000  Uiso   1.00
N507   N     0.44543   0.77171   0.28001   0.00000  Uiso   1.00
H508   H     0.40575   0.77323   0.28154   0.00000  Uiso   1.00
C509   C     0.46601   0.72953   0.28833   0.00000  Uiso   1.00
H510   H     0.44396   0.70797   0.26353   0.00000  Uiso   1.00
H511   H     0.46163   0.71852   0.32331   0.00000  Uiso   1.00
H512   H     0.50809   0.72832   0.28402   0.00000  Uiso   1.00
C513   C     0.83419   0.75351   0.16709   0.00000  Uiso   1.00
C514   C     0.83332   0.91320   0.16636   0.00000  Uiso   1.00
C515   C     0.73382   0.83199   0.15483   0.00000  Uiso   1.00
C516   C     0.93292   0.83272   0.17860   0.00000  Uiso   1.00
C517   C     0.67887   0.82944   0.14865   0.00000  Uiso   1.00
C518   C     0.98799   0.83164   0.18514   0.00000  Uiso   1.00
C519   C     0.78626   0.68883   0.16610   0.00000  Uiso   1.00
C520   C     0.88153   0.97794   0.16648   0.00000  Uiso   1.00
C521   C     0.78613   0.97881   0.16602   0.00000  Uiso   1.00
C522   C     0.88219   0.68799   0.16864   0.00000  Uiso   1.00
C523   C     0.83359   0.95737   0.16579   0.00000  Uiso   1.00
C524   C     0.83436   0.70944   0.16784   0.00000  Uiso   1.00
C525   C     0.85848   0.86415   0.02647   0.00000  Uiso   1.00
C526   C     0.80735   0.80285   0.30667   0.00000  Uiso   1.00
C527   C     0.85840   0.86399   0.31189   0.00000  Uiso   1.00
C528   C     0.80723   0.80321   0.02132   0.00000  Uiso   1.00
H529   H     0.99177   0.82627   0.11414   0.00000  Uiso   1.00
H530   H     0.67512   0.83401   0.21981   0.00000  Uiso   1.00
H531   H     0.87841   0.88853   0.29576   0.00000  Uiso   1.00
H532   H     0.78601   0.77944   0.03741   0.00000  Uiso   1.00
N533   N     0.83332   0.83332   0.28573   0.00000  Uiso   1.00
N534   N     0.83335   0.83334   0.04760   0.00000  Uiso   1.00
O535   O     0.83333   0.77225   0.20487   0.00000  Uiso   1.00
O536   O     0.83334   0.89442   0.12846   0.00000  Uiso   1.00
O537   O     0.83333   0.77226   0.12843   0.00000  Uiso   1.00
O538   O     0.83334   0.89441   0.20490   0.00000  Uiso   1.00
O539   O     0.75725   0.83333   0.19595   0.00000  Uiso   1.00
O540   O     0.90942   0.83334   0.13739   0.00000  Uiso   1.00
O541   O     0.75725   0.83334   0.11950   0.00000  Uiso   1.00
O542   O     0.90942   0.83333   0.21383   0.00000  Uiso   1.00
Zn543  Zn    0.83333   0.83333   0.21771   0.00000  Uiso   1.00
Zn544  Zn    0.83333   0.83334   0.11563   0.00000  Uiso   1.00
O545   O     0.74014   0.71066   0.16833   0.00000  Uiso   1.00
C546   C     0.71698   0.72267   0.12382   0.00000  Uiso   1.00
H547   H     0.73943   0.74802   0.10976   0.00000  Uiso   1.00
H548   H     0.67710   0.73516   0.12537   0.00000  Uiso   1.00
H549   H     0.71285   0.69602   0.09995   0.00000  Uiso   1.00
O550   O     0.92644   0.95585   0.16083   0.00000  Uiso   1.00
C551   C     0.95440   0.94464   0.20391   0.00000  Uiso   1.00
H552   H     0.98152   0.91854   0.19934   0.00000  Uiso   1.00
H553   H     0.92865   0.93362   0.22869   0.00000  Uiso   1.00
H554   H     0.97908   0.97104   0.21810   0.00000  Uiso   1.00
O555   O     0.73976   0.95747   0.16721   0.00000  Uiso   1.00
C556   C     0.71799   0.94605   0.12252   0.00000  Uiso   1.00
H557   H     0.71235   0.91174   0.12185   0.00000  Uiso   1.00
H558   H     0.74185   0.95440   0.09518   0.00000  Uiso   1.00
H559   H     0.67892   0.96119   0.11383   0.00000  Uiso   1.00
O560   O     0.92906   0.70906   0.16869   0.00000  Uiso   1.00
C561   C     0.94834   0.72144   0.21362   0.00000  Uiso   1.00
H562   H     0.94085   0.69815   0.24031   0.00000  Uiso   1.00
H563   H     0.93132   0.75202   0.22097   0.00000  Uiso   1.00
H564   H     0.99140   0.72554   0.21659   0.00000  Uiso   1.00
N565   N     0.88327   0.89730   0.05242   0.00000  Uiso   1.00
H566   H     0.86749   0.92644   0.04285   0.00000  Uiso   1.00
C567   C     0.93999   0.89663   0.05878   0.00000  Uiso   1.00
H568   H     0.95486   0.92274   0.03907   0.00000  Uiso   1.00
H569   H     0.95583   0.86657   0.04777   0.00000  Uiso   1.00
H570   H     0.95454   0.90065   0.09547   0.00000  Uiso   1.00
N571   N     0.77876   0.77171   0.28001   0.00000  Uiso   1.00
H572   H     0.73908   0.77323   0.28154   0.00000  Uiso   1.00
C573   C     0.79934   0.72953   0.28833   0.00000  Uiso   1.00
H574   H     0.77729   0.70797   0.26353   0.00000  Uiso   1.00
H575   H     0.79496   0.71852   0.32331   0.00000  Uiso   1.00
H576   H     0.84143   0.72832   0.28402   0.00000  Uiso   1.00
C577   C     0.16753   0.08685   0.50043   0.00000  Uiso   1.00
C578   C     0.16665   0.24653   0.49969   0.00000  Uiso   1.00
C579   C     0.06715   0.16532   0.48816   0.00000  Uiso   1.00
C580   C     0.26625   0.16606   0.51194   0.00000  Uiso   1.00
C581   C     0.01220   0.16277   0.48199   0.00000  Uiso   1.00
C582   C     0.32132   0.16497   0.51847   0.00000  Uiso   1.00
C583   C     0.11959   0.02216   0.49943   0.00000  Uiso   1.00
C584   C     0.21486   0.31127   0.49981   0.00000  Uiso   1.00
C585   C     0.11946   0.31214   0.49935   0.00000  Uiso   1.00
C586   C     0.21552   0.02132   0.50197   0.00000  Uiso   1.00
C587   C     0.16693   0.29070   0.49912   0.00000  Uiso   1.00
C588   C     0.16769   0.04278   0.50118   0.00000  Uiso   1.00
C589   C     0.19181   0.19748   0.35981   0.00000  Uiso   1.00
C590   C     0.14068   0.13618   0.64000   0.00000  Uiso   1.00
C591   C     0.19173   0.19732   0.64522   0.00000  Uiso   1.00
C592   C     0.14057   0.13654   0.35465   0.00000  Uiso   1.00
H593   H     0.32511   0.15960   0.44747   0.00000  Uiso   1.00
H594   H     0.00845   0.16734   0.55315   0.00000  Uiso   1.00
H595   H     0.21175   0.22186   0.62910   0.00000  Uiso   1.00
H596   H     0.11934   0.11277   0.37075   0.00000  Uiso   1.00
N597   N     0.16665   0.16666   0.61907   0.00000  Uiso   1.00
N598   N     0.16668   0.16668   0.38093   0.00000  Uiso   1.00
O599   O     0.16666   0.10558   0.53821   0.00000  Uiso   1.00
O600   O     0.16667   0.22775   0.46179   0.00000  Uiso   1.00
O601   O     0.16666   0.10559   0.46176   0.00000  Uiso   1.00
O602   O     0.16667   0.22774   0.53824   0.00000  Uiso   1.00
O603   O     0.09058   0.16666   0.52928   0.00000  Uiso   1.00
O604   O     0.24275   0.16667   0.47072   0.00000  Uiso   1.00
O605   O     0.09058   0.16667   0.45284   0.00000  Uiso   1.00
O606   O     0.24275   0.16666   0.54716   0.00000  Uiso   1.00
Zn607  Zn    0.16667   0.16666   0.55104   0.00000  Uiso   1.00
Zn608  Zn    0.16667   0.16667   0.44896   0.00000  Uiso   1.00
O609   O     0.07347   0.04399   0.50167   0.00000  Uiso   1.00
C610   C     0.05032   0.05600   0.45716   0.00000  Uiso   1.00
H611   H     0.07276   0.08135   0.44309   0.00000  Uiso   1.00
H612   H     0.01043   0.06849   0.45870   0.00000  Uiso   1.00
H613   H     0.04619   0.02935   0.43328   0.00000  Uiso   1.00
O614   O     0.25977   0.28918   0.49416   0.00000  Uiso   1.00
C615   C     0.28773   0.27798   0.53724   0.00000  Uiso   1.00
H616   H     0.31486   0.25187   0.53268   0.00000  Uiso   1.00
H617   H     0.26198   0.26695   0.56202   0.00000  Uiso   1.00
H618   H     0.31241   0.30437   0.55143   0.00000  Uiso   1.00
O619   O     0.07309   0.29080   0.50054   0.00000  Uiso   1.00
C620   C     0.05132   0.27938   0.45586   0.00000  Uiso   1.00
H621   H     0.04569   0.24507   0.45519   0.00000  Uiso   1.00
H622   H     0.07518   0.28773   0.42851   0.00000  Uiso   1.00
H623   H     0.01225   0.29452   0.44716   0.00000  Uiso   1.00
O624   O     0.26240   0.04239   0.50202   0.00000  Uiso   1.00
C625   C     0.28167   0.05477   0.54695   0.00000  Uiso   1.00
H626   H     0.27418   0.03148   0.57364   0.00000  Uiso   1.00
H627   H     0.26466   0.08535   0.55430   0.00000  Uiso   1.00
H628   H     0.32474   0.05887   0.54992   0.00000  Uiso   1.00
N629   N     0.21660   0.23063   0.38575   0.00000  Uiso   1.00
H630   H     0.20082   0.25978   0.37619   0.00000  Uiso   1.00
C631   C     0.27333   0.22996   0.39211   0.00000  Uiso   1.00
H632   H     0.28819   0.25608   0.37240   0.00000  Uiso   1.00
H633   H     0.28916   0.19991   0.38110   0.00000  Uiso   1.00
H634   H     0.28788   0.23398   0.42880   0.00000  Uiso   1.00
N635   N     0.11209   0.10505   0.61334   0.00000  Uiso   1.00
H636   H     0.07242   0.10656   0.61487   0.00000  Uiso   1.00
C637   C     0.13267   0.06286   0.62167   0.00000  Uiso   1.00
H638   H     0.11063   0.04131   0.59687   0.00000  Uiso   1.00
H639   H     0.12830   0.05186   0.65664   0.00000  Uiso   1.00
H640   H     0.17476   0.06165   0.61735   0.00000  Uiso   1.00
C641   C     0.50086   0.08685   0.50043   0.00000  Uiso   1.00
C642   C     0.49998   0.24653   0.49969   0.00000  Uiso   1.00
C643   C     0.40048   0.16532   0.48816   0.00000  Uiso   1.00
C644   C     0.59959   0.16606   0.51194   0.00000  Uiso   1.00
C645   C     0.34553   0.16277   0.48199   0.00000  Uiso   1.00
C646   C     0.65465   0.16497   0.51847   0.00000  Uiso   1.00
C647   C     0.45293   0.02216   0.49943   0.00000  Uiso   1.00
C648   C     0.54820   0.31127   0.49981   0.00000  Uiso   1.00
C649   C     0.45280   0.31214   0.49935   0.00000  Uiso   1.00
C650   C     0.54885   0.02132   0.50197   0.00000  Uiso   1.00
C651   C     0.50026   0.29070   0.49912   0.00000  Uiso   1.00
C652   C     0.50103   0.04278   0.50118   0.00000  Uiso   1.00
C653   C     0.52514   0.19748   0.35981   0.00000  Uiso   1.00
C654   C     0.47402   0.13618   0.64000   0.00000  Uiso   1.00
C655   C     0.52507   0.19732   0.64522   0.00000  Uiso   1.00
C656   C     0.47390   0.13654   0.35465   0.00000  Uiso   1.00
H657   H     0.65844   0.15960   0.44747   0.00000  Uiso   1.00
H658   H     0.34178   0.16734   0.55315   0.00000  Uiso   1.00
H659   H     0.54508   0.22186   0.62910   0.00000  Uiso   1.00
H660   H     0.45268   0.11277   0.37075   0.00000  Uiso   1.00
N661   N     0.49999   0.16666   0.61907   0.00000  Uiso   1.00
N662   N     0.50001   0.16668   0.38093   0.00000  Uiso   1.00
O663   O     0.50000   0.10558   0.53821   0.00000  Uiso   1.00
O664   O     0.50000   0.22775   0.46179   0.00000  Uiso   1.00
O665   O     0.50000   0.10559   0.46176   0.00000  Uiso   1.00
O666   O     0.50000   0.22774   0.53824   0.00000  Uiso   1.00
O667   O     0.42392   0.16666   0.52928   0.00000  Uiso   1.00
O668   O     0.57608   0.16667   0.47072   0.00000  Uiso   1.00
O669   O     0.42392   0.16667   0.45284   0.00000  Uiso   1.00
O670   O     0.57608   0.16666   0.54716   0.00000  Uiso   1.00
Zn671  Zn    0.50000   0.16666   0.55104   0.00000  Uiso   1.00
Zn672  Zn    0.50000   0.16667   0.44896   0.00000  Uiso   1.00
O673   O     0.40680   0.04399   0.50167   0.00000  Uiso   1.00
C674   C     0.38365   0.05600   0.45716   0.00000  Uiso   1.00
H675   H     0.40609   0.08135   0.44309   0.00000  Uiso   1.00
H676   H     0.34377   0.06849   0.45870   0.00000  Uiso   1.00
H677   H     0.37952   0.02935   0.43328   0.00000  Uiso   1.00
O678   O     0.59310   0.28918   0.49416   0.00000  Uiso   1.00
C679   C     0.62106   0.27798   0.53724   0.00000  Uiso   1.00
H680   H     0.64819   0.25187   0.53268   0.00000  Uiso   1.00
H681   H     0.59531   0.26695   0.56202   0.00000  Uiso   1.00
H682   H     0.64575   0.30437   0.55143   0.00000  Uiso   1.00
O683   O     0.40642   0.29080   0.50054   0.00000  Uiso   1.00
C684   C     0.38465   0.27938   0.45586   0.00000  Uiso   1.00
H685   H     0.37902   0.24507   0.45519   0.00000  Uiso   1.00
H686   H     0.40852   0.28773   0.42851   0.00000  Uiso   1.00
H687   H     0.34558   0.29452   0.44716   0.00000  Uiso   1.00
O688   O     0.59573   0.04239   0.50202   0.00000  Uiso   1.00
C689   C     0.61501   0.05477   0.54695   0.00000  Uiso   1.00
H690   H     0.60752   0.03148   0.57364   0.00000  Uiso   1.00
H691   H     0.59799   0.08535   0.55430   0.00000  Uiso   1.00
H692   H     0.65807   0.05887   0.54992   0.00000  Uiso   1.00
N693   N     0.54994   0.23063   0.38575   0.00000  Uiso   1.00
H694   H     0.53416   0.25978   0.37619   0.00000  Uiso   1.00
C695   C     0.60666   0.22996   0.39211   0.00000  Uiso   1.00
H696   H     0.62152   0.25608   0.37240   0.00000  Uiso   1.00
H697   H     0.62250   0.19991   0.38110   0.00000  Uiso   1.00
H698   H     0.62121   0.23398   0.42880   0.00000  Uiso   1.00
N699   N     0.44543   0.10505   0.61334   0.00000  Uiso   1.00
H700   H     0.40575   0.10656   0.61487   0.00000  Uiso   1.00
C701   C     0.46601   0.06286   0.62167   0.00000  Uiso   1.00
H702   H     0.44396   0.04131   0.59687   0.00000  Uiso   1.00
H703   H     0.46163   0.05186   0.65664   0.00000  Uiso   1.00
H704   H     0.50809   0.06165   0.61735   0.00000  Uiso   1.00
C705   C     0.83419   0.08685   0.50043   0.00000  Uiso   1.00
C706   C     0.83332   0.24653   0.49969   0.00000  Uiso   1.00
C707   C     0.73382   0.16532   0.48816   0.00000  Uiso   1.00
C708   C     0.93292   0.16606   0.51194   0.00000  Uiso   1.00
C709   C     0.67887   0.16277   0.48199   0.00000  Uiso   1.00
C710   C     0.98799   0.16497   0.51847   0.00000  Uiso   1.00
C711   C     0.78626   0.02216   0.49943   0.00000  Uiso   1.00
C712   C     0.88153   0.31127   0.49981   0.00000  Uiso   1.00
C713   C     0.78613   0.31214   0.49935   0.00000  Uiso   1.00
C714   C     0.88219   0.02132   0.50197   0.00000  Uiso   1.00
C715   C     0.83359   0.29070   0.49912   0.00000  Uiso   1.00
C716   C     0.83436   0.04278   0.50118   0.00000  Uiso   1.00
C717   C     0.85848   0.19748   0.35981   0.00000  Uiso   1.00
C718   C     0.80735   0.13618   0.64000   0.00000  Uiso   1.00
C719   C     0.85840   0.19732   0.64522   0.00000  Uiso   1.00
C720   C     0.80723   0.13654   0.35465   0.00000  Uiso   1.00
H721   H     0.99177   0.15960   0.44747   0.00000  Uiso   1.00
H722   H     0.67512   0.16734   0.55315   0.00000  Uiso   1.00
H723   H     0.87841   0.22186   0.62910   0.00000  Uiso   1.00
H724   H     0.78601   0.11277   0.37075   0.00000  Uiso   1.00
N725   N     0.83332   0.16666   0.61907   0.00000  Uiso   1.00
N726   N     0.83335   0.16668   0.38093   0.00000  Uiso   1.00
O727   O     0.83333   0.10558   0.53821   0.00000  Uiso   1.00
O728   O     0.83334   0.22775   0.46179   0.00000  Uiso   1.00
O729   O     0.83333   0.10559   0.46176   0.00000  Uiso   1.00
O730   O     0.83334   0.22774   0.53824   0.00000  Uiso   1.00
O731   O     0.75725   0.16666   0.52928   0.00000  Uiso   1.00
O732   O     0.90942   0.16667   0.47072   0.00000  Uiso   1.00
O733   O     0.75725   0.16667   0.45284   0.00000  Uiso   1.00
O734   O     0.90942   0.16666   0.54716   0.00000  Uiso   1.00
Zn735  Zn    0.83333   0.16666   0.55104   0.00000  Uiso   1.00
Zn736  Zn    0.83333   0.16667   0.44896   0.00000  Uiso   1.00
O737   O     0.74014   0.04399   0.50167   0.00000  Uiso   1.00
C738   C     0.71698   0.05600   0.45716   0.00000  Uiso   1.00
H739   H     0.73943   0.08135   0.44309   0.00000  Uiso   1.00
H740   H     0.67710   0.06849   0.45870   0.00000  Uiso   1.00
H741   H     0.71285   0.02935   0.43328   0.00000  Uiso   1.00
O742   O     0.92644   0.28918   0.49416   0.00000  Uiso   1.00
C743   C     0.95440   0.27798   0.53724   0.00000  Uiso   1.00
H744   H     0.98152   0.25187   0.53268   0.00000  Uiso   1.00
H745   H     0.92865   0.26695   0.56202   0.00000  Uiso   1.00
H746   H     0.97908   0.30437   0.55143   0.00000  Uiso   1.00
O747   O     0.73976   0.29080   0.50054   0.00000  Uiso   1.00
C748   C     0.71799   0.27938   0.45586   0.00000  Uiso   1.00
H749   H     0.71235   0.24507   0.45519   0.00000  Uiso   1.00
H750   H     0.74185   0.28773   0.42851   0.00000  Uiso   1.00
H751   H     0.67892   0.29452   0.44716   0.00000  Uiso   1.00
O752   O     0.92906   0.04239   0.50202   0.00000  Uiso   1.00
C753   C     0.94834   0.05477   0.54695   0.00000  Uiso   1.00
H754   H     0.94085   0.03148   0.57364   0.00000  Uiso   1.00
H755   H     0.93132   0.08535   0.55430   0.00000  Uiso   1.00
H756   H     0.99140   0.05887   0.54992   0.00000  Uiso   1.00
N757   N     0.88327   0.23063   0.38575   0.00000  Uiso   1.00
H758   H     0.86749   0.25978   0.37619   0.00000  Uiso   1.00
C759   C     0.93999   0.22996   0.39211   0.00000  Uiso   1.00
H760   H     0.95486   0.25608   0.37240   0.00000  Uiso   1.00
H761   H     0.95583   0.19991   0.38110   0.00000  Uiso   1.00
H762   H     0.95454   0.23398   0.42880   0.00000  Uiso   1.00
N763   N     0.77876   0.10505   0.61334   0.00000  Uiso   1.00
H764   H     0.73908   0.10656   0.61487   0.00000  Uiso   1.00
C765   C     0.79934   0.06286   0.62167   0.00000  Uiso   1.00
H766   H     0.77729   0.04131   0.59687   0.00000  Uiso   1.00
H767   H     0.79496   0.05186   0.65664   0.00000  Uiso   1.00
H768   H     0.84143   0.06165   0.61735   0.00000  Uiso   1.00
C769   C     0.16753   0.42018   0.50043   0.00000  Uiso   1.00
C770   C     0.16665   0.57986   0.49969   0.00000  Uiso   1.00
C771   C     0.06715   0.49866   0.48816   0.00000  Uiso   1.00
C772   C     0.26625   0.49939   0.51194   0.00000  Uiso   1.00
C773   C     0.01220   0.49610   0.48199   0.00000  Uiso   1.00
C774   C     0.32132   0.49830   0.51847   0.00000  Uiso   1.00
C775   C     0.11959   0.35549   0.49943   0.00000  Uiso   1.00
C776   C     0.21486   0.64461   0.49981   0.00000  Uiso   1.00
C777   C     0.11946   0.64548   0.49935   0.00000  Uiso   1.00
C778   C     0.21552   0.35465   0.50197   0.00000  Uiso   1.00
C779   C     0.16693   0.62403   0.49912   0.00000  Uiso   1.00
C780   C     0.16769   0.37611   0.50118   0.00000  Uiso   1.00
C781   C     0.19181   0.53081   0.35981   0.00000  Uiso   1.00
C782   C     0.14068   0.46952   0.64000   0.00000  Uiso   1.00
C783   C     0.19173   0.53066   0.64522   0.00000  Uiso   1.00
C784   C     0.14057   0.46988   0.35465   0.00000  Uiso   1.00
H785   H     0.32511   0.49294   0.44747   0.00000  Uiso   1.00
H786   H     0.00845   0.50067   0.55315   0.00000  Uiso   1.00
H787   H     0.21175   0.55519   0.62910   0.00000  Uiso   1.00
H788   H     0.11934   0.44611   0.37075   0.00000  Uiso   1.00
N789   N     0.16665   0.49999   0.61907   0.00000  Uiso   1.00
N790   N     0.16668   0.50001   0.38093   0.00000  Uiso   1.00
O791   O     0.16666   0.43892   0.53821   0.00000  Uiso   1.00
O792   O     0.16667   0.56108   0.46179   0.00000  Uiso   1.00
O793   O     0.16666   0.43893   0.46176   0.00000  Uiso   1.00
O794   O     0.16667   0.56107   0.53824   0.00000  Uiso   1.00
O795   O     0.09058   0.50000   0.52928   0.00000  Uiso   1.00
O796   O     0.24275   0.50000   0.47072   0.00000  Uiso   1.00
O797   O     0.09058   0.50000   0.45284   0.00000  Uiso   1.00
O798   O     0.24275   0.50000   0.54716   0.00000  Uiso   1.00
Zn799  Zn    0.16667   0.49999   0.55104   0.00000  Uiso   1.00
Zn800  Zn    0.16667   0.50001   0.44896   0.00000  Uiso   1.00
O801   O     0.07347   0.37732   0.50167   0.00000  Uiso   1.00
C802   C     0.05032   0.38933   0.45716   0.00000  Uiso   1.00
H803   H     0.07276   0.41469   0.44309   0.00000  Uiso   1.00
H804   H     0.01043   0.40183   0.45870   0.00000  Uiso   1.00
H805   H     0.04619   0.36269   0.43328   0.00000  Uiso   1.00
O806   O     0.25977   0.62251   0.49416   0.00000  Uiso   1.00
C807   C     0.28773   0.61131   0.53724   0.00000  Uiso   1.00
H808   H     0.31486   0.58521   0.53268   0.00000  Uiso   1.00
H809   H     0.26198   0.60029   0.56202   0.00000  Uiso   1.00
H810   H     0.31241   0.63771   0.55143   0.00000  Uiso   1.00
O811   O     0.07309   0.62413   0.50054   0.00000  Uiso   1.00
C812   C     0.05132   0.61271   0.45586   0.00000  Uiso   1.00
H813   H     0.04569   0.57841   0.45519   0.00000  Uiso   1.00
H814   H     0.07518   0.62106   0.42851   0.00000  Uiso   1.00
H815   H     0.01225   0.62785   0.44716   0.00000  Uiso   1.00
O816   O     0.26240   0.37573   0.50202   0.00000  Uiso   1.00
C817   C     0.28167   0.38810   0.54695   0.00000  Uiso   1.00
H818   H     0.27418   0.36481   0.57364   0.00000  Uiso   1.00
H819   H     0.26466   0.41868   0.55430   0.00000  Uiso   1.00
H820   H     0.32474   0.39221   0.54992   0.00000  Uiso   1.00
N821   N     0.21660   0.56396   0.38575   0.00000  Uiso   1.00
H822   H     0.20082   0.59311   0.37619   0.00000  Uiso   1.00
C823   C     0.27333   0.56330   0.39211   0.00000  Uiso   1.00
H824   H     0.28819   0.58941   0.37240   0.00000  Uiso   1.00
H825   H     0.28916   0.53324   0.38110   0.00000  Uiso   1.00
H826   H     0.28788   0.56732   0.42880   0.00000  Uiso   1.00
N827   N     0.11209   0.43838   0.61334   0.00000  Uiso   1.00
H828   H     0.07242   0.43989   0.61487   0.00000  Uiso   1.00
C829   C     0.13267   0.39620   0.62167   0.00000  Uiso   1.00
H830   H     0.11063   0.37464   0.59687   0.00000  Uiso   1.00
H831   H     0.12830   0.38519   0.65664   0.00000  Uiso   1.00
H832   H     0.17476   0.39498   0.61735   0.00000  Uiso   1.00
C833   C     0.50086   0.42018   0.50043   0.00000  Uiso   1.00
C834   C     0.49998   0.57986   0.49969   0.00000  Uiso   1.00
C835   C     0.40048   0.49866   0.48816   0.00000  Uiso   1.00
C836   C     0.59959   0.49939   0.51194   0.00000  Uiso   1.00
C837   C     0.34553   0.49610   0.48199   0.00000  Uiso   1.00
C838   C     0.65465   0.49830   0.51847   0.00000  Uiso   1.00
C839   C     0.45293   0.35549   0.49943   0.00000  Uiso   1.00
C840   C     0.54820   0.64461   0.49981   0.00000  Uiso   1.00
C841   C     0.45280   0.64548   0.49935   0.00000  Uiso   1.00
C842   C     0.54885   0.35465   0.50197   0.00000  Uiso   1.00
C843   C     0.50026   0.62403   0.49912   0.00000  Uiso   1.00
C844   C     0.50103   0.37611   0.50118   0.00000  Uiso   1.00
C845   C     0.52514   0.53081   0.35981   0.00000  Uiso   1.00
C846   C     0.47402   0.46952   0.64000   0.00000  Uiso   1.00
C847   C     0.52507   0.53066   0.64522   0.00000  Uiso   1.00
C848   C     0.47390   0.46988   0.35465   0.00000  Uiso   1.00
H849   H     0.65844   0.49294   0.44747   0.00000  Uiso   1.00
H850   H     0.34178   0.50067   0.55315   0.00000  Uiso   1.00
H851   H     0.54508   0.55519   0.62910   0.00000  Uiso   1.00
H852   H     0.45268   0.44611   0.37075   0.00000  Uiso   1.00
N853   N     0.49999   0.49999   0.61907   0.00000  Uiso   1.00
N854   N     0.50001   0.50001   0.38093   0.00000  Uiso   1.00
O855   O     0.50000   0.43892   0.53821   0.00000  Uiso   1.00
O856   O     0.50000   0.56108   0.46179   0.00000  Uiso   1.00
O857   O     0.50000   0.43893   0.46176   0.00000  Uiso   1.00
O858   O     0.50000   0.56107   0.53824   0.00000  Uiso   1.00
O859   O     0.42392   0.50000   0.52928   0.00000  Uiso   1.00
O860   O     0.57608   0.50000   0.47072   0.00000  Uiso   1.00
O861   O     0.42392   0.50000   0.45284   0.00000  Uiso   1.00
O862   O     0.57608   0.50000   0.54716   0.00000  Uiso   1.00
Zn863  Zn    0.50000   0.49999   0.55104   0.00000  Uiso   1.00
Zn864  Zn    0.50000   0.50001   0.44896   0.00000  Uiso   1.00
O865   O     0.40680   0.37732   0.50167   0.00000  Uiso   1.00
C866   C     0.38365   0.38933   0.45716   0.00000  Uiso   1.00
H867   H     0.40609   0.41469   0.44309   0.00000  Uiso   1.00
H868   H     0.34377   0.40183   0.45870   0.00000  Uiso   1.00
H869   H     0.37952   0.36269   0.43328   0.00000  Uiso   1.00
O870   O     0.59310   0.62251   0.49416   0.00000  Uiso   1.00
C871   C     0.62106   0.61131   0.53724   0.00000  Uiso   1.00
H872   H     0.64819   0.58521   0.53268   0.00000  Uiso   1.00
H873   H     0.59531   0.60029   0.56202   0.00000  Uiso   1.00
H874   H     0.64575   0.63771   0.55143   0.00000  Uiso   1.00
O875   O     0.40642   0.62413   0.50054   0.00000  Uiso   1.00
C876   C     0.38465   0.61271   0.45586   0.00000  Uiso   1.00
H877   H     0.37902   0.57841   0.45519   0.00000  Uiso   1.00
H878   H     0.40852   0.62106   0.42851   0.00000  Uiso   1.00
H879   H     0.34558   0.62785   0.44716   0.00000  Uiso   1.00
O880   O     0.59573   0.37573   0.50202   0.00000  Uiso   1.00
C881   C     0.61501   0.38810   0.54695   0.00000  Uiso   1.00
H882   H     0.60752   0.36481   0.57364   0.00000  Uiso   1.00
H883   H     0.59799   0.41868   0.55430   0.00000  Uiso   1.00
H884   H     0.65807   0.39221   0.54992   0.00000  Uiso   1.00
N885   N     0.54994   0.56396   0.38575   0.00000  Uiso   1.00
H886   H     0.53416   0.59311   0.37619   0.00000  Uiso   1.00
C887   C     0.60666   0.56330   0.39211   0.00000  Uiso   1.00
H888   H     0.62152   0.58941   0.37240   0.00000  Uiso   1.00
H889   H     0.62250   0.53324   0.38110   0.00000  Uiso   1.00
H890   H     0.62121   0.56732   0.42880   0.00000  Uiso   1.00
N891   N     0.44543   0.43838   0.61334   0.00000  Uiso   1.00
H892   H     0.40575   0.43989   0.61487   0.00000  Uiso   1.00
C893   C     0.46601   0.39620   0.62167   0.00000  Uiso   1.00
H894   H     0.44396   0.37464   0.59687   0.00000  Uiso   1.00
H895   H     0.46163   0.38519   0.65664   0.00000  Uiso   1.00
H896   H     0.50809   0.39498   0.61735   0.00000  Uiso   1.00
C897   C     0.83419   0.42018   0.50043   0.00000  Uiso   1.00
C898   C     0.83332   0.57986   0.49969   0.00000  Uiso   1.00
C899   C     0.73382   0.49866   0.48816   0.00000  Uiso   1.00
C900   C     0.93292   0.49939   0.51194   0.00000  Uiso   1.00
C901   C     0.67887   0.49610   0.48199   0.00000  Uiso   1.00
C902   C     0.98799   0.49830   0.51847   0.00000  Uiso   1.00
C903   C     0.78626   0.35549   0.49943   0.00000  Uiso   1.00
C904   C     0.88153   0.64461   0.49981   0.00000  Uiso   1.00
C905   C     0.78613   0.64548   0.49935   0.00000  Uiso   1.00
C906   C     0.88219   0.35465   0.50197   0.00000  Uiso   1.00
C907   C     0.83359   0.62403   0.49912   0.00000  Uiso   1.00
C908   C     0.83436   0.37611   0.50118   0.00000  Uiso   1.00
C909   C     0.85848   0.53081   0.35981   0.00000  Uiso   1.00
C910   C     0.80735   0.46952   0.64000   0.00000  Uiso   1.00
C911   C     0.85840   0.53066   0.64522   0.00000  Uiso   1.00
C912   C     0.80723   0.46988   0.35465   0.00000  Uiso   1.00
H913   H     0.99177   0.49294   0.44747   0.00000  Uiso   1.00
H914   H     0.67512   0.50067   0.55315   0.00000  Uiso   1.00
H915   H     0.87841   0.55519   0.62910   0.00000  Uiso   1.00
H916   H     0.78601   0.44611   0.37075   0.00000  Uiso   1.00
N917   N     0.83332   0.49999   0.61907   0.00000  Uiso   1.00
N918   N     0.83335   0.50001   0.38093   0.00000  Uiso   1.00
O919   O     0.83333   0.43892   0.53821   0.00000  Uiso   1.00
O920   O     0.83334   0.56108   0.46179   0.00000  Uiso   1.00
O921   O     0.83333   0.43893   0.46176   0.00000  Uiso   1.00
O922   O     0.83334   0.56107   0.53824   0.00000  Uiso   1.00
O923   O     0.75725   0.50000   0.52928   0.00000  Uiso   1.00
O924   O     0.90942   0.50000   0.47072   0.00000  Uiso   1.00
O925   O     0.75725   0.50000   0.45284   0.00000  Uiso   1.00
O926   O     0.90942   0.50000   0.54716   0.00000  Uiso   1.00
Zn927  Zn    0.83333   0.49999   0.55104   0.00000  Uiso   1.00
Zn928  Zn    0.83333   0.50001   0.44896   0.00000  Uiso   1.00
O929   O     0.74014   0.37732   0.50167   0.00000  Uiso   1.00
C930   C     0.71698   0.38933   0.45716   0.00000  Uiso   1.00
H931   H     0.73943   0.41469   0.44309   0.00000  Uiso   1.00
H932   H     0.67710   0.40183   0.45870   0.00000  Uiso   1.00
H933   H     0.71285   0.36269   0.43328   0.00000  Uiso   1.00
O934   O     0.92644   0.62251   0.49416   0.00000  Uiso   1.00
C935   C     0.95440   0.61131   0.53724   0.00000  Uiso   1.00
H936   H     0.98152   0.58521   0.53268   0.00000  Uiso   1.00
H937   H     0.92865   0.60029   0.56202   0.00000  Uiso   1.00
H938   H     0.97908   0.63771   0.55143   0.00000  Uiso   1.00
O939   O     0.73976   0.62413   0.50054   0.00000  Uiso   1.00
C940   C     0.71799   0.61271   0.45586   0.00000  Uiso   1.00
H941   H     0.71235   0.57841   0.45519   0.00000  Uiso   1.00
H942   H     0.74185   0.62106   0.42851   0.00000  Uiso   1.00
H943   H     0.67892   0.62785   0.44716   0.00000  Uiso   1.00
O944   O     0.92906   0.37573   0.50202   0.00000  Uiso   1.00
C945   C     0.94834   0.38810   0.54695   0.00000  Uiso   1.00
H946   H     0.94085   0.36481   0.57364   0.00000  Uiso   1.00
H947   H     0.93132   0.41868   0.55430   0.00000  Uiso   1.00
H948   H     0.99140   0.39221   0.54992   0.00000  Uiso   1.00
N949   N     0.88327   0.56396   0.38575   0.00000  Uiso   1.00
H950   H     0.86749   0.59311   0.37619   0.00000  Uiso   1.00
C951   C     0.93999   0.56330   0.39211   0.00000  Uiso   1.00
H952   H     0.95486   0.58941   0.37240   0.00000  Uiso   1.00
H953   H     0.95583   0.53324   0.38110   0.00000  Uiso   1.00
H954   H     0.95454   0.56732   0.42880   0.00000  Uiso   1.00
N955   N     0.77876   0.43838   0.61334   0.00000  Uiso   1.00
H956   H     0.73908   0.43989   0.61487   0.00000  Uiso   1.00
C957   C     0.79934   0.39620   0.62167   0.00000  Uiso   1.00
H958   H     0.77729   0.37464   0.59687   0.00000  Uiso   1.00
H959   H     0.79496   0.38519   0.65664   0.00000  Uiso   1.00
H960   H     0.84143   0.39498   0.61735   0.00000  Uiso   1.00
C961   C     0.16753   0.75351   0.50043   0.00000  Uiso   1.00
C962   C     0.16665   0.91320   0.49969   0.00000  Uiso   1.00
C963   C     0.06715   0.83199   0.48816   0.00000  Uiso   1.00
C964   C     0.26625   0.83272   0.51194   0.00000  Uiso   1.00
C965   C     0.01220   0.82944   0.48199   0.00000  Uiso   1.00
C966   C     0.32132   0.83164   0.51847   0.00000  Uiso   1.00
C967   C     0.11959   0.68883   0.49943   0.00000  Uiso   1.00
C968   C     0.21486   0.97794   0.49981   0.00000  Uiso   1.00
C969   C     0.11946   0.97881   0.49935   0.00000  Uiso   1.00
C970   C     0.21552   0.68799   0.50197   0.00000  Uiso   1.00
C971   C     0.16693   0.95737   0.49912   0.00000  Uiso   1.00
C972   C     0.16769   0.70944   0.50118   0.00000  Uiso   1.00
C973   C     0.19181   0.86415   0.35981   0.00000  Uiso   1.00
C974   C     0.14068   0.80285   0.64000   0.00000  Uiso   1.00
C975   C     0.19173   0.86399   0.64522   0.00000  Uiso   1.00
C976   C     0.14057   0.80321   0.35465   0.00000  Uiso   1.00
H977   H     0.32511   0.82627   0.44747   0.00000  Uiso   1.00
H978   H     0.00845   0.83401   0.55315   0.00000  Uiso   1.00
H979   H     0.21175   0.88853   0.62910   0.00000  Uiso   1.00
H980   H     0.11934   0.77944   0.37075   0.00000  Uiso   1.00
N981   N     0.16665   0.83332   0.61907   0.00000  Uiso   1.00
N982   N     0.16668   0.83334   0.38093   0.00000  Uiso   1.00
O983   O     0.16666   0.77225   0.53821   0.00000  Uiso   1.00
O984   O     0.16667   0.89442   0.46179   0.00000  Uiso   1.00
O985   O     0.16666   0.77226   0.46176   0.00000  Uiso   1.00
O986   O     0.16667   0.89441   0.53824   0.00000  Uiso   1.00
O987   O     0.09058   0.83333   0.52928   0.00000  Uiso   1.00
O988   O     0.24275   0.83334   0.47072   0.00000  Uiso   1.00
O989   O     0.09058   0.83334   0.45284   0.00000  Uiso   1.00
O990   O     0.24275   0.83333   0.54716   0.00000  Uiso   1.00
Zn991  Zn    0.16667   0.83333   0.55104   0.00000  Uiso   1.00
Zn992  Zn    0.16667   0.83334   0.44896   0.00000  Uiso   1.00
O993   O     0.07347   0.71066   0.50167   0.00000  Uiso   1.00
C994   C     0.05032   0.72267   0.45716   0.00000  Uiso   1.00
H995   H     0.07276   0.74802   0.44309   0.00000  Uiso   1.00
H996   H     0.01043   0.73516   0.45870   0.00000  Uiso   1.00
H997   H     0.04619   0.69602   0.43328   0.00000  Uiso   1.00
O998   O     0.25977   0.95585   0.49416   0.00000  Uiso   1.00
C999   C     0.28773   0.94464   0.53724   0.00000  Uiso   1.00
H1000  H     0.31486   0.91854   0.53268   0.00000  Uiso   1.00
H1001  H     0.26198   0.93362   0.56202   0.00000  Uiso   1.00
H1002  H     0.31241   0.97104   0.55143   0.00000  Uiso   1.00
O1003  O     0.07309   0.95747   0.50054   0.00000  Uiso   1.00
C1004  C     0.05132   0.94605   0.45586   0.00000  Uiso   1.00
H1005  H     0.04569   0.91174   0.45519   0.00000  Uiso   1.00
H1006  H     0.07518   0.95440   0.42851   0.00000  Uiso   1.00
H1007  H     0.01225   0.96119   0.44716   0.00000  Uiso   1.00
O1008  O     0.26240   0.70906   0.50202   0.00000  Uiso   1.00
C1009  C     0.28167   0.72144   0.54695   0.00000  Uiso   1.00
H1010  H     0.27418   0.69815   0.57364   0.00000  Uiso   1.00
H1011  H     0.26466   0.75202   0.55430   0.00000  Uiso   1.00
H1012  H     0.32474   0.72554   0.54992   0.00000  Uiso   1.00
N1013  N     0.21660   0.89730   0.38575   0.00000  Uiso   1.00
H1014  H     0.20082   0.92644   0.37619   0.00000  Uiso   1.00
C1015  C     0.27333   0.89663   0.39211   0.00000  Uiso   1.00
H1016  H     0.28819   0.92274   0.37240   0.00000  Uiso   1.00
H1017  H     0.28916   0.86657   0.38110   0.00000  Uiso   1.00
H1018  H     0.28788   0.90065   0.42880   0.00000  Uiso   1.00
N1019  N     0.11209   0.77171   0.61334   0.00000  Uiso   1.00
H1020  H     0.07242   0.77323   0.61487   0.00000  Uiso   1.00
C1021  C     0.13267   0.72953   0.62167   0.00000  Uiso   1.00
H1022  H     0.11063   0.70797   0.59687   0.00000  Uiso   1.00
H1023  H     0.12830   0.71852   0.65664   0.00000  Uiso   1.00
H1024  H     0.17476   0.72832   0.61735   0.00000  Uiso   1.00
C1025  C     0.50086   0.75351   0.50043   0.00000  Uiso   1.00
C1026  C     0.49998   0.91320   0.49969   0.00000  Uiso   1.00
C1027  C     0.40048   0.83199   0.48816   0.00000  Uiso   1.00
C1028  C     0.59959   0.83272   0.51194   0.00000  Uiso   1.00
C1029  C     0.34553   0.82944   0.48199   0.00000  Uiso   1.00
C1030  C     0.65465   0.83164   0.51847   0.00000  Uiso   1.00
C1031  C     0.45293   0.68883   0.49943   0.00000  Uiso   1.00
C1032  C     0.54820   0.97794   0.49981   0.00000  Uiso   1.00
C1033  C     0.45280   0.97881   0.49935   0.00000  Uiso   1.00
C1034  C     0.54885   0.68799   0.50197   0.00000  Uiso   1.00
C1035  C     0.50026   0.95737   0.49912   0.00000  Uiso   1.00
C1036  C     0.50103   0.70944   0.50118   0.00000  Uiso   1.00
C1037  C     0.52514   0.86415   0.35981   0.00000  Uiso   1.00
C1038  C     0.47402   0.80285   0.64000   0.00000  Uiso   1.00
C1039  C     0.52507   0.86399   0.64522   0.00000  Uiso   1.00
C1040  C     0.47390   0.80321   0.35465   0.00000  Uiso   1.00
H1041  H     0.65844   0.82627   0.44747   0.00000  Uiso   1.00
H1042  H     0.34178   0.83401   0.55315   0.00000  Uiso   1.00
H1043  H     0.54508   0.88853   0.62910   0.00000  Uiso   1.00
H1044  H     0.45268   0.77944   0.37075   0.00000  Uiso   1.00
N1045  N     0.49999   0.83332   0.61907   0.00000  Uiso   1.00
N1046  N     0.50001   0.83334   0.38093   0.00000  Uiso   1.00
O1047  O     0.50000   0.77225   0.53821   0.00000  Uiso   1.00
O1048  O     0.50000   0.89442   0.46179   0.00000  Uiso   1.00
O1049  O     0.50000   0.77226   0.46176   0.00000  Uiso   1.00
O1050  O     0.50000   0.89441   0.53824   0.00000  Uiso   1.00
O1051  O     0.42392   0.83333   0.52928   0.00000  Uiso   1.00
O1052  O     0.57608   0.83334   0.47072   0.00000  Uiso   1.00
O1053  O     0.42392   0.83334   0.45284   0.00000  Uiso   1.00
O1054  O     0.57608   0.83333   0.54716   0.00000  Uiso   1.00
Zn1055 Zn    0.50000   0.83333   0.55104   0.00000  Uiso   1.00
Zn1056 Zn    0.50000   0.83334   0.44896   0.00000  Uiso   1.00
O1057  O     0.40680   0.71066   0.50167   0.00000  Uiso   1.00
C1058  C     0.38365   0.72267   0.45716   0.00000  Uiso   1.00
H1059  H     0.40609   0.74802   0.44309   0.00000  Uiso   1.00
H1060  H     0.34377   0.73516   0.45870   0.00000  Uiso   1.00
H1061  H     0.37952   0.69602   0.43328   0.00000  Uiso   1.00
O1062  O     0.59310   0.95585   0.49416   0.00000  Uiso   1.00
C1063  C     0.62106   0.94464   0.53724   0.00000  Uiso   1.00
H1064  H     0.64819   0.91854   0.53268   0.00000  Uiso   1.00
H1065  H     0.59531   0.93362   0.56202   0.00000  Uiso   1.00
H1066  H     0.64575   0.97104   0.55143   0.00000  Uiso   1.00
O1067  O     0.40642   0.95747   0.50054   0.00000  Uiso   1.00
C1068  C     0.38465   0.94605   0.45586   0.00000  Uiso   1.00
H1069  H     0.37902   0.91174   0.45519   0.00000  Uiso   1.00
H1070  H     0.40852   0.95440   0.42851   0.00000  Uiso   1.00
H1071  H     0.34558   0.96119   0.44716   0.00000  Uiso   1.00
O1072  O     0.59573   0.70906   0.50202   0.00000  Uiso   1.00
C1073  C     0.61501   0.72144   0.54695   0.00000  Uiso   1.00
H1074  H     0.60752   0.69815   0.57364   0.00000  Uiso   1.00
H1075  H     0.59799   0.75202   0.55430   0.00000  Uiso   1.00
H1076  H     0.65807   0.72554   0.54992   0.00000  Uiso   1.00
N1077  N     0.54994   0.89730   0.38575   0.00000  Uiso   1.00
H1078  H     0.53416   0.92644   0.37619   0.00000  Uiso   1.00
C1079  C     0.60666   0.89663   0.39211   0.00000  Uiso   1.00
H1080  H     0.62152   0.92274   0.37240   0.00000  Uiso   1.00
H1081  H     0.62250   0.86657   0.38110   0.00000  Uiso   1.00
H1082  H     0.62121   0.90065   0.42880   0.00000  Uiso   1.00
N1083  N     0.44543   0.77171   0.61334   0.00000  Uiso   1.00
H1084  H     0.40575   0.77323   0.61487   0.00000  Uiso   1.00
C1085  C     0.46601   0.72953   0.62167   0.00000  Uiso   1.00
H1086  H     0.44396   0.70797   0.59687   0.00000  Uiso   1.00
H1087  H     0.46163   0.71852   0.65664   0.00000  Uiso   1.00
H1088  H     0.50809   0.72832   0.61735   0.00000  Uiso   1.00
C1089  C     0.83419   0.75351   0.50043   0.00000  Uiso   1.00
C1090  C     0.83332   0.91320   0.49969   0.00000  Uiso   1.00
C1091  C     0.73382   0.83199   0.48816   0.00000  Uiso   1.00
C1092  C     0.93292   0.83272   0.51194   0.00000  Uiso   1.00
C1093  C     0.67887   0.82944   0.48199   0.00000  Uiso   1.00
C1094  C     0.98799   0.83164   0.51847   0.00000  Uiso   1.00
C1095  C     0.78626   0.68883   0.49943   0.00000  Uiso   1.00
C1096  C     0.88153   0.97794   0.49981   0.00000  Uiso   1.00
C1097  C     0.78613   0.97881   0.49935   0.00000  Uiso   1.00
C1098  C     0.88219   0.68799   0.50197   0.00000  Uiso   1.00
C1099  C     0.83359   0.95737   0.49912   0.00000  Uiso   1.00
C1100  C     0.83436   0.70944   0.50118   0.00000  Uiso   1.00
C1101  C     0.85848   0.86415   0.35981   0.00000  Uiso   1.00
C1102  C     0.80735   0.80285   0.64000   0.00000  Uiso   1.00
C1103  C     0.85840   0.86399   0.64522   0.00000  Uiso   1.00
C1104  C     0.80723   0.80321   0.35465   0.00000  Uiso   1.00
H1105  H     0.99177   0.82627   0.44747   0.00000  Uiso   1.00
H1106  H     0.67512   0.83401   0.55315   0.00000  Uiso   1.00
H1107  H     0.87841   0.88853   0.62910   0.00000  Uiso   1.00
H1108  H     0.78601   0.77944   0.37075   0.00000  Uiso   1.00
N1109  N     0.83332   0.83332   0.61907   0.00000  Uiso   1.00
N1110  N     0.83335   0.83334   0.38093   0.00000  Uiso   1.00
O1111  O     0.83333   0.77225   0.53821   0.00000  Uiso   1.00
O1112  O     0.83334   0.89442   0.46179   0.00000  Uiso   1.00
O1113  O     0.83333   0.77226   0.46176   0.00000  Uiso   1.00
O1114  O     0.83334   0.89441   0.53824   0.00000  Uiso   1.00
O1115  O     0.75725   0.83333   0.52928   0.00000  Uiso   1.00
O1116  O     0.90942   0.83334   0.47072   0.00000  Uiso   1.00
O1117  O     0.75725   0.83334   0.45284   0.00000  Uiso   1.00
O1118  O     0.90942   0.83333   0.54716   0.00000  Uiso   1.00
Zn1119 Zn    0.83333   0.83333   0.55104   0.00000  Uiso   1.00
Zn1120 Zn    0.83333   0.83334   0.44896   0.00000  Uiso   1.00
O1121  O     0.74014   0.71066   0.50167   0.00000  Uiso   1.00
C1122  C     0.71698   0.72267   0.45716   0.00000  Uiso   1.00
H1123  H     0.73943   0.74802   0.44309   0.00000  Uiso   1.00
H1124  H     0.67710   0.73516   0.45870   0.00000  Uiso   1.00
H1125  H     0.71285   0.69602   0.43328   0.00000  Uiso   1.00
O1126  O     0.92644   0.95585   0.49416   0.00000  Uiso   1.00
C1127  C     0.95440   0.94464   0.53724   0.00000  Uiso   1.00
H1128  H     0.98152   0.91854   0.53268   0.00000  Uiso   1.00
H1129  H     0.92865   0.93362   0.56202   0.00000  Uiso   1.00
H1130  H     0.97908   0.97104   0.55143   0.00000  Uiso   1.00
O1131  O     0.73976   0.95747   0.50054   0.00000  Uiso   1.00
C1132  C     0.71799   0.94605   0.45586   0.00000  Uiso   1.00
H1133  H     0.71235   0.91174   0.45519   0.00000  Uiso   1.00
H1134  H     0.74185   0.95440   0.42851   0.00000  Uiso   1.00
H1135  H     0.67892   0.96119   0.44716   0.00000  Uiso   1.00
O1136  O     0.92906   0.70906   0.50202   0.00000  Uiso   1.00
C1137  C     0.94834   0.72144   0.54695   0.00000  Uiso   1.00
H1138  H     0.94085   0.69815   0.57364   0.00000  Uiso   1.00
H1139  H     0.93132   0.75202   0.55430   0.00000  Uiso   1.00
H1140  H     0.99140   0.72554   0.54992   0.00000  Uiso   1.00
N1141  N     0.88327   0.89730   0.38575   0.00000  Uiso   1.00
H1142  H     0.86749   0.92644   0.37619   0.00000  Uiso   1.00
C1143  C     0.93999   0.89663   0.39211   0.00000  Uiso   1.00
H1144  H     0.95486   0.92274   0.37240   0.00000  Uiso   1.00
H1145  H     0.95583   0.86657   0.38110   0.00000  Uiso   1.00
H1146  H     0.95454   0.90065   0.42880   0.00000  Uiso   1.00
N1147  N     0.77876   0.77171   0.61334   0.00000  Uiso   1.00
H1148  H     0.73908   0.77323   0.61487   0.00000  Uiso   1.00
C1149  C     0.79934   0.72953   0.62167   0.00000  Uiso   1.00
H1150  H     0.77729   0.70797   0.59687   0.00000  Uiso   1.00
H1151  H     0.79496   0.71852   0.65664   0.00000  Uiso   1.00
H1152  H     0.84143   0.72832   0.61735   0.00000  Uiso   1.00
C1153  C     0.16753   0.08685   0.83376   0.00000  Uiso   1.00
C1154  C     0.16665   0.24653   0.83303   0.00000  Uiso   1.00
C1155  C     0.06715   0.16532   0.82149   0.00000  Uiso   1.00
C1156  C     0.26625   0.16606   0.84527   0.00000  Uiso   1.00
C1157  C     0.01220   0.16277   0.81532   0.00000  Uiso   1.00
C1158  C     0.32132   0.16497   0.85180   0.00000  Uiso   1.00
C1159  C     0.11959   0.02216   0.83277   0.00000  Uiso   1.00
C1160  C     0.21486   0.31127   0.83314   0.00000  Uiso   1.00
C1161  C     0.11946   0.31214   0.83268   0.00000  Uiso   1.00
C1162  C     0.21552   0.02132   0.83530   0.00000  Uiso   1.00
C1163  C     0.16693   0.29070   0.83246   0.00000  Uiso   1.00
C1164  C     0.16769   0.04278   0.83451   0.00000  Uiso   1.00
C1165  C     0.19181   0.19748   0.69314   0.00000  Uiso   1.00
C1166  C     0.14068   0.13618   0.97334   0.00000  Uiso   1.00
C1167  C     0.19173   0.19732   0.97856   0.00000  Uiso   1.00
C1168  C     0.14057   0.13654   0.68798   0.00000  Uiso   1.00
H1169  H     0.32511   0.15960   0.78081   0.00000  Uiso   1.00
H1170  H     0.00845   0.16734   0.88648   0.00000  Uiso   1.00
H1171  H     0.21175   0.22186   0.96243   0.00000  Uiso   1.00
H1172  H     0.11934   0.11277   0.70408   0.00000  Uiso   1.00
N1173  N     0.16665   0.16666   0.95240   0.00000  Uiso   1.00
N1174  N     0.16668   0.16668   0.71427   0.00000  Uiso   1.00
O1175  O     0.16666   0.10558   0.87154   0.00000  Uiso   1.00
O1176  O     0.16667   0.22775   0.79513   0.00000  Uiso   1.00
O1177  O     0.16666   0.10559   0.79510   0.00000  Uiso   1.00
O1178  O     0.16667   0.22774   0.87157   0.00000  Uiso   1.00
O1179  O     0.09058   0.16666   0.86261   0.00000  Uiso   1.00
O1180  O     0.24275   0.16667   0.80405   0.00000  Uiso   1.00
O1181  O     0.09058   0.16667   0.78617   0.00000  Uiso   1.00
O1182  O     0.24275   0.16666   0.88050   0.00000  Uiso   1.00
Zn1183 Zn    0.16667   0.16666   0.88437   0.00000  Uiso   1.00
Zn1184 Zn    0.16667   0.16667   0.78229   0.00000  Uiso   1.00
O1185  O     0.07347   0.04399   0.83500   0.00000  Uiso   1.00
C1186  C     0.05032   0.05600   0.79049   0.00000  Uiso   1.00
H1187  H     0.07276   0.08135   0.77642   0.00000  Uiso   1.00
H1188  H     0.01043   0.06849   0.79204   0.00000  Uiso   1.00
H1189  H     0.04619   0.02935   0.76661   0.00000  Uiso   1.00
O1190  O     0.25977   0.28918   0.82749   0.00000  Uiso   1.00
C1191  C     0.28773   0.27798   0.87057   0.00000  Uiso   1.00
H1192  H     0.31486   0.25187   0.86601   0.00000  Uiso   1.00
H1193  H     0.26198   0.26695   0.89536   0.00000  Uiso   1.00
H1194  H     0.31241   0.30437   0.88477   0.00000  Uiso   1.00
O1195  O     0.07309   0.29080   0.83388   0.00000  Uiso   1.00
C1196  C     0.05132   0.27938   0.78919   0.00000  Uiso   1.00
H1197  H     0.04569   0.24507   0.78852   0.00000  Uiso   1.00
H1198  H     0.07518   0.28773   0.76184   0.00000  Uiso   1.00
H1199  H     0.01225   0.29452   0.78049   0.00000  Uiso   1.00
O1200  O     0.26240   0.04239   0.83535   0.00000  Uiso   1.00
C1201  C     0.28167   0.05477   0.88029   0.00000  Uiso   1.00
H1202  H     0.27418   0.03148   0.90698   0.00000  Uiso   1.00
H1203  H     0.26466   0.08535   0.88763   0.00000  Uiso   1.00
H1204  H     0.32474   0.05887   0.88325   0.00000  Uiso   1.00
N1205  N     0.21660   0.23063   0.71909   0.00000  Uiso   1.00
H1206  H     0.20082   0.25978   0.70952   0.00000  Uiso   1.00
C1207  C     0.27333   0.22996   0.72545   0.00000  Uiso   1.00
H1208  H     0.28819   0.25608   0.70573   0.00000  Uiso   1.00
H1209  H     0.28916   0.19991   0.71443   0.00000  Uiso   1.00
H1210  H     0.28788   0.23398   0.76214   0.00000  Uiso   1.00
N1211  N     0.11209   0.10505   0.94667   0.00000  Uiso   1.00
H1212  H     0.07242   0.10656   0.94821   0.00000  Uiso   1.00
C1213  C     0.13267   0.06286   0.95500   0.00000  Uiso   1.00
H1214  H     0.11063   0.04131   0.93020   0.00000  Uiso   1.00
H1215  H     0.12830   0.05186   0.98997   0.00000  Uiso   1.00
H1216  H     0.17476   0.06165   0.95069   0.00000  Uiso   1.00
C1217  C     0.50086   0.08685   0.83376   0.00000  Uiso   1.00
C1218  C     0.49998   0.24653   0.83303   0.00000  Uiso   1.00
C1219  C     0.40048   0.16532   0.82149   0.00000  Uiso   1.00
C1220  C     0.59959   0.16606   0.84527   0.00000  Uiso   1.00
C1221  C     0.34553   0.16277   0.81532   0.00000  Uiso   1.00
C1222  C     0.65465   0.16497   0.85180   0.00000  Uiso   1.00
C1223  C     0.45293   0.02216   0.83277   0.00000  Uiso   1.00
C1224  C     0.54820   0.31127   0.83314   0.00000  Uiso   1.00
C1225  C     0.45280   0.31214   0.83268   0.00000  Uiso   1.00
C1226  C     0.54885   0.02132   0.83530   0.00000  Uiso   1.00
C1227  C     0.50026   0.29070   0.83246   0.00000  Uiso   1.00
C1228  C     0.50103   0.04278   0.83451   0.00000  Uiso   1.00
C1229  C     0.52514   0.19748   0.69314   0.00000  Uiso   1.00
C1230  C     0.47402   0.13618   0.97334   0.00000  Uiso   1.00
C1231  C     0.52507   0.19732   0.97856   0.00000  Uiso   1.00
C1232  C     0.47390   0.13654   0.68798   0.00000  Uiso   1.00
H1233  H     0.65844   0.15960   0.78081   0.00000  Uiso   1.00
H1234  H     0.34178   0.16734   0.88648   0.00000  Uiso   1.00
H1235  H     0.54508   0.22186   0.96243   0.00000  Uiso   1.00
H1236  H     0.45268   0.11277   0.70408   0.00000  Uiso   1.00
N1237  N     0.49999   0.16666   0.95240   0.00000  Uiso   1.00
N1238  N     0.50001   0.16668   0.71427   0.00000  Uiso   1.00
O1239  O     0.50000   0.10558   0.87154   0.00000  Uiso   1.00
O1240  O     0.50000   0.22775   0.79513   0.00000  Uiso   1.00
O1241  O     0.50000   0.10559   0.79510   0.00000  Uiso   1.00
O1242  O     0.50000   0.22774   0.87157   0.00000  Uiso   1.00
O1243  O     0.42392   0.16666   0.86261   0.00000  Uiso   1.00
O1244  O     0.57608   0.16667   0.80405   0.00000  Uiso   1.00
O1245  O     0.42392   0.16667   0.78617   0.00000  Uiso   1.00
O1246  O     0.57608   0.16666   0.88050   0.00000  Uiso   1.00
Zn1247 Zn    0.50000   0.16666   0.88437   0.00000  Uiso   1.00
Zn1248 Zn    0.50000   0.16667   0.78229   0.00000  Uiso   1.00
O1249  O     0.40680   0.04399   0.83500   0.00000  Uiso   1.00
C1250  C     0.38365   0.05600   0.79049   0.00000  Uiso   1.00
H1251  H     0.40609   0.08135   0.77642   0.00000  Uiso   1.00
H1252  H     0.34377   0.06849   0.79204   0.00000  Uiso   1.00
H1253  H     0.37952   0.02935   0.76661   0.00000  Uiso   1.00
O1254  O     0.59310   0.28918   0.82749   0.00000  Uiso   1.00
C1255  C     0.62106   0.27798   0.87057   0.00000  Uiso   1.00
H1256  H     0.64819   0.25187   0.86601   0.00000  Uiso   1.00
H1257  H     0.59531   0.26695   0.89536   0.00000  Uiso   1.00
H1258  H     0.64575   0.30437   0.88477   0.00000  Uiso   1.00
O1259  O     0.40642   0.29080   0.83388   0.00000  Uiso   1.00
C1260  C     0.38465   0.27938   0.78919   0.00000  Uiso   1.00
H1261  H     0.37902   0.24507   0.78852   0.00000  Uiso   1.00
H1262  H     0.40852   0.28773   0.76184   0.00000  Uiso   1.00
H1263  H     0.34558   0.29452   0.78049   0.00000  Uiso   1.00
O1264  O     0.59573   0.04239   0.83535   0.00000  Uiso   1.00
C1265  C     0.61501   0.05477   0.88029   0.00000  Uiso   1.00
H1266  H     0.60752   0.03148   0.90698   0.00000  Uiso   1.00
H1267  H     0.59799   0.08535   0.88763   0.00000  Uiso   1.00
H1268  H     0.65807   0.05887   0.88325   0.00000  Uiso   1.00
N1269  N     0.54994   0.23063   0.71909   0.00000  Uiso   1.00
H1270  H     0.53416   0.25978   0.70952   0.00000  Uiso   1.00
C1271  C     0.60666   0.22996   0.72545   0.00000  Uiso   1.00
H1272  H     0.62152   0.25608   0.70573   0.00000  Uiso   1.00
H1273  H     0.62250   0.19991   0.71443   0.00000  Uiso   1.00
H1274  H     0.62121   0.23398   0.76214   0.00000  Uiso   1.00
N1275  N     0.44543   0.10505   0.94667   0.00000  Uiso   1.00
H1276  H     0.40575   0.10656   0.94821   0.00000  Uiso   1.00
C1277  C     0.46601   0.06286   0.95500   0.00000  Uiso   1.00
H1278  H     0.44396   0.04131   0.93020   0.00000  Uiso   1.00
H1279  H     0.46163   0.05186   0.98997   0.00000  Uiso   1.00
H1280  H     0.50809   0.06165   0.95069   0.00000  Uiso   1.00
C1281  C     0.83419   0.08685   0.83376   0.00000  Uiso   1.00
C1282  C     0.83332   0.24653   0.83303   0.00000  Uiso   1.00
C1283  C     0.73382   0.16532   0.82149   0.00000  Uiso   1.00
C1284  C     0.93292   0.16606   0.84527   0.00000  Uiso   1.00
C1285  C     0.67887   0.16277   0.81532   0.00000  Uiso   1.00
C1286  C     0.98799   0.16497   0.85180   0.00000  Uiso   1.00
C1287  C     0.78626   0.02216   0.83277   0.00000  Uiso   1.00
C1288  C     0.88153   0.31127   0.83314   0.00000  Uiso   1.00
C1289  C     0.78613   0.31214   0.83268   0.00000  Uiso   1.00
C1290  C     0.88219   0.02132   0.83530   0.00000  Uiso   1.00
C1291  C     0.83359   0.29070   0.83246   0.00000  Uiso   1.00
C1292  C     0.83436   0.04278   0.83451   0.00000  Uiso   1.00
C1293  C     0.85848   0.19748   0.69314   0.00000  Uiso   1.00
C1294  C     0.80735   0.13618   0.97334   0.00000  Uiso   1.00
C1295  C     0.85840   0.19732   0.97856   0.00000  Uiso   1.00
C1296  C     0.80723   0.13654   0.68798   0.00000  Uiso   1.00
H1297  H     0.99177   0.15960   0.78081   0.00000  Uiso   1.00
H1298  H     0.67512   0.16734   0.88648   0.00000  Uiso   1.00
H1299  H     0.87841   0.22186   0.96243   0.00000  Uiso   1.00
H1300  H     0.78601   0.11277   0.70408   0.00000  Uiso   1.00
N1301  N     0.83332   0.16666   0.95240   0.00000  Uiso   1.00
N1302  N     0.83335   0.16668   0.71427   0.00000  Uiso   1.00
O1303  O     0.83333   0.10558   0.87154   0.00000  Uiso   1.00
O1304  O     0.83334   0.22775   0.79513   0.00000  Uiso   1.00
O1305  O     0.83333   0.10559   0.79510   0.00000  Uiso   1.00
O1306  O     0.83334   0.22774   0.87157   0.00000  Uiso   1.00
O1307  O     0.75725   0.16666   0.86261   0.00000  Uiso   1.00
O1308  O     0.90942   0.16667   0.80405   0.00000  Uiso   1.00
O1309  O     0.75725   0.16667   0.78617   0.00000  Uiso   1.00
O1310  O     0.90942   0.16666   0.88050   0.00000  Uiso   1.00
Zn1311 Zn    0.83333   0.16666   0.88437   0.00000  Uiso   1.00
Zn1312 Zn    0.83333   0.16667   0.78229   0.00000  Uiso   1.00
O1313  O     0.74014   0.04399   0.83500   0.00000  Uiso   1.00
C1314  C     0.71698   0.05600   0.79049   0.00000  Uiso   1.00
H1315  H     0.73943   0.08135   0.77642   0.00000  Uiso   1.00
H1316  H     0.67710   0.06849   0.79204   0.00000  Uiso   1.00
H1317  H     0.71285   0.02935   0.76661   0.00000  Uiso   1.00
O1318  O     0.92644   0.28918   0.82749   0.00000  Uiso   1.00
C1319  C     0.95440   0.27798   0.87057   0.00000  Uiso   1.00
H1320  H     0.98152   0.25187   0.86601   0.00000  Uiso   1.00
H1321  H     0.92865   0.26695   0.89536   0.00000  Uiso   1.00
H1322  H     0.97908   0.30437   0.88477   0.00000  Uiso   1.00
O1323  O     0.73976   0.29080   0.83388   0.00000  Uiso   1.00
C1324  C     0.71799   0.27938   0.78919   0.00000  Uiso   1.00
H1325  H     0.71235   0.24507   0.78852   0.00000  Uiso   1.00
H1326  H     0.74185   0.28773   0.76184   0.00000  Uiso   1.00
H1327  H     0.67892   0.29452   0.78049   0.00000  Uiso   1.00
O1328  O     0.92906   0.04239   0.83535   0.00000  Uiso   1.00
C1329  C     0.94834   0.05477   0.88029   0.00000  Uiso   1.00
H1330  H     0.94085   0.03148   0.90698   0.00000  Uiso   1.00
H1331  H     0.93132   0.08535   0.88763   0.00000  Uiso   1.00
H1332  H     0.99140   0.05887   0.88325   0.00000  Uiso   1.00
N1333  N     0.88327   0.23063   0.71909   0.00000  Uiso   1.00
H1334  H     0.86749   0.25978   0.70952   0.00000  Uiso   1.00
C1335  C     0.93999   0.22996   0.72545   0.00000  Uiso   1.00
H1336  H     0.95486   0.25608   0.70573   0.00000  Uiso   1.00
H1337  H     0.95583   0.19991   0.71443   0.00000  Uiso   1.00
H1338  H     0.95454   0.23398   0.76214   0.00000  Uiso   1.00
N1339  N     0.77876   0.10505   0.94667   0.00000  Uiso   1.00
H1340  H     0.73908   0.10656   0.94821   0.00000  Uiso   1.00
C1341  C     0.79934   0.06286   0.95500   0.00000  Uiso   1.00
H1342  H     0.77729   0.04131   0.93020   0.00000  Uiso   1.00
H1343  H     0.79496   0.05186   0.98997   0.00000  Uiso   1.00
H1344  H     0.84143   0.06165   0.95069   0.00000  Uiso   1.00
C1345  C     0.16753   0.42018   0.83376   0.00000  Uiso   1.00
C1346  C     0.16665   0.57986   0.83303   0.00000  Uiso   1.00
C1347  C     0.06715   0.49866   0.82149   0.00000  Uiso   1.00
C1348  C     0.26625   0.49939   0.84527   0.00000  Uiso   1.00
C1349  C     0.01220   0.49610   0.81532   0.00000  Uiso   1.00
C1350  C     0.32132   0.49830   0.85180   0.00000  Uiso   1.00
C1351  C     0.11959   0.35549   0.83277   0.00000  Uiso   1.00
C1352  C     0.21486   0.64461   0.83314   0.00000  Uiso   1.00
C1353  C     0.11946   0.64548   0.83268   0.00000  Uiso   1.00
C1354  C     0.21552   0.35465   0.83530   0.00000  Uiso   1.00
C1355  C     0.16693   0.62403   0.83246   0.00000  Uiso   1.00
C1356  C     0.16769   0.37611   0.83451   0.00000  Uiso   1.00
C1357  C     0.19181   0.53081   0.69314   0.00000  Uiso   1.00
C1358  C     0.14068   0.46952   0.97334   0.00000  Uiso   1.00
C1359  C     0.19173   0.53066   0.97856   0.00000  Uiso   1.00
C1360  C     0.14057   0.46988   0.68798   0.00000  Uiso   1.00
H1361  H     0.32511   0.49294   0.78081   0.00000  Uiso   1.00
H1362  H     0.00845   0.50067   0.88648   0.00000  Uiso   1.00
H1363  H     0.21175   0.55519   0.96243   0.00000  Uiso   1.00
H1364  H     0.11934   0.44611   0.70408   0.00000  Uiso   1.00
N1365  N     0.16665   0.49999   0.95240   0.00000  Uiso   1.00
N1366  N     0.16668   0.50001   0.71427   0.00000  Uiso   1.00
O1367  O     0.16666   0.43892   0.87154   0.00000  Uiso   1.00
O1368  O     0.16667   0.56108   0.79513   0.00000  Uiso   1.00
O1369  O     0.16666   0.43893   0.79510   0.00000  Uiso   1.00
O1370  O     0.16667   0.56107   0.87157   0.00000  Uiso   1.00
O1371  O     0.09058   0.50000   0.86261   0.00000  Uiso   1.00
O1372  O     0.24275   0.50000   0.80405   0.00000  Uiso   1.00
O1373  O     0.09058   0.50000   0.78617   0.00000  Uiso   1.00
O1374  O     0.24275   0.50000   0.88050   0.00000  Uiso   1.00
Zn1375 Zn    0.16667   0.49999   0.88437   0.00000  Uiso   1.00
Zn1376 Zn    0.16667   0.50001   0.78229   0.00000  Uiso   1.00
O1377  O     0.07347   0.37732   0.83500   0.00000  Uiso   1.00
C1378  C     0.05032   0.38933   0.79049   0.00000  Uiso   1.00
H1379  H     0.07276   0.41469   0.77642   0.00000  Uiso   1.00
H1380  H     0.01043   0.40183   0.79204   0.00000  Uiso   1.00
H1381  H     0.04619   0.36269   0.76661   0.00000  Uiso   1.00
O1382  O     0.25977   0.62251   0.82749   0.00000  Uiso   1.00
C1383  C     0.28773   0.61131   0.87057   0.00000  Uiso   1.00
H1384  H     0.31486   0.58521   0.86601   0.00000  Uiso   1.00
H1385  H     0.26198   0.60029   0.89536   0.00000  Uiso   1.00
H1386  H     0.31241   0.63771   0.88477   0.00000  Uiso   1.00
O1387  O     0.07309   0.62413   0.83388   0.00000  Uiso   1.00
C1388  C     0.05132   0.61271   0.78919   0.00000  Uiso   1.00
H1389  H     0.04569   0.57841   0.78852   0.00000  Uiso   1.00
H1390  H     0.07518   0.62106   0.76184   0.00000  Uiso   1.00
H1391  H     0.01225   0.62785   0.78049   0.00000  Uiso   1.00
O1392  O     0.26240   0.37573   0.83535   0.00000  Uiso   1.00
C1393  C     0.28167   0.38810   0.88029   0.00000  Uiso   1.00
H1394  H     0.27418   0.36481   0.90698   0.00000  Uiso   1.00
H1395  H     0.26466   0.41868   0.88763   0.00000  Uiso   1.00
H1396  H     0.32474   0.39221   0.88325   0.00000  Uiso   1.00
N1397  N     0.21660   0.56396   0.71909   0.00000  Uiso   1.00
H1398  H     0.20082   0.59311   0.70952   0.00000  Uiso   1.00
C1399  C     0.27333   0.56330   0.72545   0.00000  Uiso   1.00
H1400  H     0.28819   0.58941   0.70573   0.00000  Uiso   1.00
H1401  H     0.28916   0.53324   0.71443   0.00000  Uiso   1.00
H1402  H     0.28788   0.56732   0.76214   0.00000  Uiso   1.00
N1403  N     0.11209   0.43838   0.94667   0.00000  Uiso   1.00
H1404  H     0.07242   0.43989   0.94821   0.00000  Uiso   1.00
C1405  C     0.13267   0.39620   0.95500   0.00000  Uiso   1.00
H1406  H     0.11063   0.37464   0.93020   0.00000  Uiso   1.00
H1407  H     0.12830   0.38519   0.98997   0.00000  Uiso   1.00
H1408  H     0.17476   0.39498   0.95069   0.00000  Uiso   1.00
C1409  C     0.50086   0.42018   0.83376   0.00000  Uiso   1.00
C1410  C     0.49998   0.57986   0.83303   0.00000  Uiso   1.00
C1411  C     0.40048   0.49866   0.82149   0.00000  Uiso   1.00
C1412  C     0.59959   0.49939   0.84527   0.00000  Uiso   1.00
C1413  C     0.34553   0.49610   0.81532   0.00000  Uiso   1.00
C1414  C     0.65465   0.49830   0.85180   0.00000  Uiso   1.00
C1415  C     0.45293   0.35549   0.83277   0.00000  Uiso   1.00
C1416  C     0.54820   0.64461   0.83314   0.00000  Uiso   1.00
C1417  C     0.45280   0.64548   0.83268   0.00000  Uiso   1.00
C1418  C     0.54885   0.35465   0.83530   0.00000  Uiso   1.00
C1419  C     0.50026   0.62403   0.83246   0.00000  Uiso   1.00
C1420  C     0.50103   0.37611   0.83451   0.00000  Uiso   1.00
C1421  C     0.52514   0.53081   0.69314   0.00000  Uiso   1.00
C1422  C     0.47402   0.46952   0.97334   0.00000  Uiso   1.00
C1423  C     0.52507   0.53066   0.97856   0.00000  Uiso   1.00
C1424  C     0.47390   0.46988   0.68798   0.00000  Uiso   1.00
H1425  H     0.65844   0.49294   0.78081   0.00000  Uiso   1.00
H1426  H     0.34178   0.50067   0.88648   0.00000  Uiso   1.00
H1427  H     0.54508   0.55519   0.96243   0.00000  Uiso   1.00
H1428  H     0.45268   0.44611   0.70408   0.00000  Uiso   1.00
N1429  N     0.49999   0.49999   0.95240   0.00000  Uiso   1.00
N1430  N     0.50001   0.50001   0.71427   0.00000  Uiso   1.00
O1431  O     0.50000   0.43892   0.87154   0.00000  Uiso   1.00
O1432  O     0.50000   0.56108   0.79513   0.00000  Uiso   1.00
O1433  O     0.50000   0.43893   0.79510   0.00000  Uiso   1.00
O1434  O     0.50000   0.56107   0.87157   0.00000  Uiso   1.00
O1435  O     0.42392   0.50000   0.86261   0.00000  Uiso   1.00
O1436  O     0.57608   0.50000   0.80405   0.00000  Uiso   1.00
O1437  O     0.42392   0.50000   0.78617   0.00000  Uiso   1.00
O1438  O     0.57608   0.50000   0.88050   0.00000  Uiso   1.00
Zn1439 Zn    0.50000   0.49999   0.88437   0.00000  Uiso   1.00
Zn1440 Zn    0.50000   0.50001   0.78229   0.00000  Uiso   1.00
O1441  O     0.40680   0.37732   0.83500   0.00000  Uiso   1.00
C1442  C     0.38365   0.38933   0.79049   0.00000  Uiso   1.00
H1443  H     0.40609   0.41469   0.77642   0.00000  Uiso   1.00
H1444  H     0.34377   0.40183   0.79204   0.00000  Uiso   1.00
H1445  H     0.37952   0.36269   0.76661   0.00000  Uiso   1.00
O1446  O     0.59310   0.62251   0.82749   0.00000  Uiso   1.00
C1447  C     0.62106   0.61131   0.87057   0.00000  Uiso   1.00
H1448  H     0.64819   0.58521   0.86601   0.00000  Uiso   1.00
H1449  H     0.59531   0.60029   0.89536   0.00000  Uiso   1.00
H1450  H     0.64575   0.63771   0.88477   0.00000  Uiso   1.00
O1451  O     0.40642   0.62413   0.83388   0.00000  Uiso   1.00
C1452  C     0.38465   0.61271   0.78919   0.00000  Uiso   1.00
H1453  H     0.37902   0.57841   0.78852   0.00000  Uiso   1.00
H1454  H     0.40852   0.62106   0.76184   0.00000  Uiso   1.00
H1455  H     0.34558   0.62785   0.78049   0.00000  Uiso   1.00
O1456  O     0.59573   0.37573   0.83535   0.00000  Uiso   1.00
C1457  C     0.61501   0.38810   0.88029   0.00000  Uiso   1.00
H1458  H     0.60752   0.36481   0.90698   0.00000  Uiso   1.00
H1459  H     0.59799   0.41868   0.88763   0.00000  Uiso   1.00
H1460  H     0.65807   0.39221   0.88325   0.00000  Uiso   1.00
N1461  N     0.54994   0.56396   0.71909   0.00000  Uiso   1.00
H1462  H     0.53416   0.59311   0.70952   0.00000  Uiso   1.00
C1463  C     0.60666   0.56330   0.72545   0.00000  Uiso   1.00
H1464  H     0.62152   0.58941   0.70573   0.00000  Uiso   1.00
H1465  H     0.62250   0.53324   0.71443   0.00000  Uiso   1.00
H1466  H     0.62121   0.56732   0.76214   0.00000  Uiso   1.00
N1467  N     0.44543   0.43838   0.94667   0.00000  Uiso   1.00
H1468  H     0.40575   0.43989   0.94821   0.00000  Uiso   1.00
C1469  C     0.46601   0.39620   0.95500   0.00000  Uiso   1.00
H1470  H     0.44396   0.37464   0.93020   0.00000  Uiso   1.00
H1471  H     0.46163   0.38519   0.98997   0.00000  Uiso   1.00
H1472  H     0.50809   0.39498   0.95069   0.00000  Uiso   1.00
C1473  C     0.83419   0.42018   0.83376   0.00000  Uiso   1.00
C1474  C     0.83332   0.57986   0.83303   0.00000  Uiso   1.00
C1475  C     0.73382   0.49866   0.82149   0.00000  Uiso   1.00
C1476  C     0.93292   0.49939   0.84527   0.00000  Uiso   1.00
C1477  C     0.67887   0.49610   0.81532   0.00000  Uiso   1.00
C1478  C     0.98799   0.49830   0.85180   0.00000  Uiso   1.00
C1479  C     0.78626   0.35549   0.83277   0.00000  Uiso   1.00
C1480  C     0.88153   0.64461   0.83314   0.00000  Uiso   1.00
C1481  C     0.78613   0.64548   0.83268   0.00000  Uiso   1.00
C1482  C     0.88219   0.35465   0.83530   0.00000  Uiso   1.00
C1483  C     0.83359   0.62403   0.83246   0.00000  Uiso   1.00
C1484  C     0.83436   0.37611   0.83451   0.00000  Uiso   1.00
C1485  C     0.85848   0.53081   0.69314   0.00000  Uiso   1.00
C1486  C     0.80735   0.46952   0.97334   0.00000  Uiso   1.00
C1487  C     0.85840   0.53066   0.97856   0.00000  Uiso   1.00
C1488  C     0.80723   0.46988   0.68798   0.00000  Uiso   1.00
H1489  H     0.99177   0.49294   0.78081   0.00000  Uiso   1.00
H1490  H     0.67512   0.50067   0.88648   0.00000  Uiso   1.00
H1491  H     0.87841   0.55519   0.96243   0.00000  Uiso   1.00
H1492  H     0.78601   0.44611   0.70408   0.00000  Uiso   1.00
N1493  N     0.83332   0.49999   0.95240   0.00000  Uiso   1.00
N1494  N     0.83335   0.50001   0.71427   0.00000  Uiso   1.00
O1495  O     0.83333   0.43892   0.87154   0.00000  Uiso   1.00
O1496  O     0.83334   0.56108   0.79513   0.00000  Uiso   1.00
O1497  O     0.83333   0.43893   0.79510   0.00000  Uiso   1.00
O1498  O     0.83334   0.56107   0.87157   0.00000  Uiso   1.00
O1499  O     0.75725   0.50000   0.86261   0.00000  Uiso   1.00
O1500  O     0.90942   0.50000   0.80405   0.00000  Uiso   1.00
O1501  O     0.75725   0.50000   0.78617   0.00000  Uiso   1.00
O1502  O     0.90942   0.50000   0.88050   0.00000  Uiso   1.00
Zn1503 Zn    0.83333   0.49999   0.88437   0.00000  Uiso   1.00
Zn1504 Zn    0.83333   0.50001   0.78229   0.00000  Uiso   1.00
O1505  O     0.74014   0.37732   0.83500   0.00000  Uiso   1.00
C1506  C     0.71698   0.38933   0.79049   0.00000  Uiso   1.00
H1507  H     0.73943   0.41469   0.77642   0.00000  Uiso   1.00
H1508  H     0.67710   0.40183   0.79204   0.00000  Uiso   1.00
H1509  H     0.71285   0.36269   0.76661   0.00000  Uiso   1.00
O1510  O     0.92644   0.62251   0.82749   0.00000  Uiso   1.00
C1511  C     0.95440   0.61131   0.87057   0.00000  Uiso   1.00
H1512  H     0.98152   0.58521   0.86601   0.00000  Uiso   1.00
H1513  H     0.92865   0.60029   0.89536   0.00000  Uiso   1.00
H1514  H     0.97908   0.63771   0.88477   0.00000  Uiso   1.00
O1515  O     0.73976   0.62413   0.83388   0.00000  Uiso   1.00
C1516  C     0.71799   0.61271   0.78919   0.00000  Uiso   1.00
H1517  H     0.71235   0.57841   0.78852   0.00000  Uiso   1.00
H1518  H     0.74185   0.62106   0.76184   0.00000  Uiso   1.00
H1519  H     0.67892   0.62785   0.78049   0.00000  Uiso   1.00
O1520  O     0.92906   0.37573   0.83535   0.00000  Uiso   1.00
C1521  C     0.94834   0.38810   0.88029   0.00000  Uiso   1.00
H1522  H     0.94085   0.36481   0.90698   0.00000  Uiso   1.00
H1523  H     0.93132   0.41868   0.88763   0.00000  Uiso   1.00
H1524  H     0.99140   0.39221   0.88325   0.00000  Uiso   1.00
N1525  N     0.88327   0.56396   0.71909   0.00000  Uiso   1.00
H1526  H     0.86749   0.59311   0.70952   0.00000  Uiso   1.00
C1527  C     0.93999   0.56330   0.72545   0.00000  Uiso   1.00
H1528  H     0.95486   0.58941   0.70573   0.00000  Uiso   1.00
H1529  H     0.95583   0.53324   0.71443   0.00000  Uiso   1.00
H1530  H     0.95454   0.56732   0.76214   0.00000  Uiso   1.00
N1531  N     0.77876   0.43838   0.94667   0.00000  Uiso   1.00
H1532  H     0.73908   0.43989   0.94821   0.00000  Uiso   1.00
C1533  C     0.79934   0.39620   0.95500   0.00000  Uiso   1.00
H1534  H     0.77729   0.37464   0.93020   0.00000  Uiso   1.00
H1535  H     0.79496   0.38519   0.98997   0.00000  Uiso   1.00
H1536  H     0.84143   0.39498   0.95069   0.00000  Uiso   1.00
C1537  C     0.16753   0.75351   0.83376   0.00000  Uiso   1.00
C1538  C     0.16665   0.91320   0.83303   0.00000  Uiso   1.00
C1539  C     0.06715   0.83199   0.82149   0.00000  Uiso   1.00
C1540  C     0.26625   0.83272   0.84527   0.00000  Uiso   1.00
C1541  C     0.01220   0.82944   0.81532   0.00000  Uiso   1.00
C1542  C     0.32132   0.83164   0.85180   0.00000  Uiso   1.00
C1543  C     0.11959   0.68883   0.83277   0.00000  Uiso   1.00
C1544  C     0.21486   0.97794   0.83314   0.00000  Uiso   1.00
C1545  C     0.11946   0.97881   0.83268   0.00000  Uiso   1.00
C1546  C     0.21552   0.68799   0.83530   0.00000  Uiso   1.00
C1547  C     0.16693   0.95737   0.83246   0.00000  Uiso   1.00
C1548  C     0.16769   0.70944   0.83451   0.00000  Uiso   1.00
C1549  C     0.19181   0.86415   0.69314   0.00000  Uiso   1.00
C1550  C     0.14068   0.80285   0.97334   0.00000  Uiso   1.00
C1551  C     0.19173   0.86399   0.97856   0.00000  Uiso   1.00
C1552  C     0.14057   0.80321   0.68798   0.00000  Uiso   1.00
H1553  H     0.32511   0.82627   0.78081   0.00000  Uiso   1.00
H1554  H     0.00845   0.83401   0.88648   0.00000  Uiso   1.00
H1555  H     0.21175   0.88853   0.96243   0.00000  Uiso   1.00
H1556  H     0.11934   0.77944   0.70408   0.00000  Uiso   1.00
N1557  N     0.16665   0.83332   0.95240   0.00000  Uiso   1.00
N1558  N     0.16668   0.83334   0.71427   0.00000  Uiso   1.00
O1559  O     0.16666   0.77225   0.87154   0.00000  Uiso   1.00
O1560  O     0.16667   0.89442   0.79513   0.00000  Uiso   1.00
O1561  O     0.16666   0.77226   0.79510   0.00000  Uiso   1.00
O1562  O     0.16667   0.89441   0.87157   0.00000  Uiso   1.00
O1563  O     0.09058   0.83333   0.86261   0.00000  Uiso   1.00
O1564  O     0.24275   0.83334   0.80405   0.00000  Uiso   1.00
O1565  O     0.09058   0.83334   0.78617   0.00000  Uiso   1.00
O1566  O     0.24275   0.83333   0.88050   0.00000  Uiso   1.00
Zn1567 Zn    0.16667   0.83333   0.88437   0.00000  Uiso   1.00
Zn1568 Zn    0.16667   0.83334   0.78229   0.00000  Uiso   1.00
O1569  O     0.07347   0.71066   0.83500   0.00000  Uiso   1.00
C1570  C     0.05032   0.72267   0.79049   0.00000  Uiso   1.00
H1571  H     0.07276   0.74802   0.77642   0.00000  Uiso   1.00
H1572  H     0.01043   0.73516   0.79204   0.00000  Uiso   1.00
H1573  H     0.04619   0.69602   0.76661   0.00000  Uiso   1.00
O1574  O     0.25977   0.95585   0.82749   0.00000  Uiso   1.00
C1575  C     0.28773   0.94464   0.87057   0.00000  Uiso   1.00
H1576  H     0.31486   0.91854   0.86601   0.00000  Uiso   1.00
H1577  H     0.26198   0.93362   0.89536   0.00000  Uiso   1.00
H1578  H     0.31241   0.97104   0.88477   0.00000  Uiso   1.00
O1579  O     0.07309   0.95747   0.83388   0.00000  Uiso   1.00
C1580  C     0.05132   0.94605   0.78919   0.00000  Uiso   1.00
H1581  H     0.04569   0.91174   0.78852   0.00000  Uiso   1.00
H1582  H     0.07518   0.95440   0.76184   0.00000  Uiso   1.00
H1583  H     0.01225   0.96119   0.78049   0.00000  Uiso   1.00
O1584  O     0.26240   0.70906   0.83535   0.00000  Uiso   1.00
C1585  C     0.28167   0.72144   0.88029   0.00000  Uiso   1.00
H1586  H     0.27418   0.69815   0.90698   0.00000  Uiso   1.00
H1587  H     0.26466   0.75202   0.88763   0.00000  Uiso   1.00
H1588  H     0.32474   0.72554   0.88325   0.00000  Uiso   1.00
N1589  N     0.21660   0.89730   0.71909   0.00000  Uiso   1.00
H1590  H     0.20082   0.92644   0.70952   0.00000  Uiso   1.00
C1591  C     0.27333   0.89663   0.72545   0.00000  Uiso   1.00
H1592  H     0.28819   0.92274   0.70573   0.00000  Uiso   1.00
H1593  H     0.28916   0.86657   0.71443   0.00000  Uiso   1.00
H1594  H     0.28788   0.90065   0.76214   0.00000  Uiso   1.00
N1595  N     0.11209   0.77171   0.94667   0.00000  Uiso   1.00
H1596  H     0.07242   0.77323   0.94821   0.00000  Uiso   1.00
C1597  C     0.13267   0.72953   0.95500   0.00000  Uiso   1.00
H1598  H     0.11063   0.70797   0.93020   0.00000  Uiso   1.00
H1599  H     0.12830   0.71852   0.98997   0.00000  Uiso   1.00
H1600  H     0.17476   0.72832   0.95069   0.00000  Uiso   1.00
C1601  C     0.50086   0.75351   0.83376   0.00000  Uiso   1.00
C1602  C     0.49998   0.91320   0.83303   0.00000  Uiso   1.00
C1603  C     0.40048   0.83199   0.82149   0.00000  Uiso   1.00
C1604  C     0.59959   0.83272   0.84527   0.00000  Uiso   1.00
C1605  C     0.34553   0.82944   0.81532   0.00000  Uiso   1.00
C1606  C     0.65465   0.83164   0.85180   0.00000  Uiso   1.00
C1607  C     0.45293   0.68883   0.83277   0.00000  Uiso   1.00
C1608  C     0.54820   0.97794   0.83314   0.00000  Uiso   1.00
C1609  C     0.45280   0.97881   0.83268   0.00000  Uiso   1.00
C1610  C     0.54885   0.68799   0.83530   0.00000  Uiso   1.00
C1611  C     0.50026   0.95737   0.83246   0.00000  Uiso   1.00
C1612  C     0.50103   0.70944   0.83451   0.00000  Uiso   1.00
C1613  C     0.52514   0.86415   0.69314   0.00000  Uiso   1.00
C1614  C     0.47402   0.80285   0.97334   0.00000  Uiso   1.00
C1615  C     0.52507   0.86399   0.97856   0.00000  Uiso   1.00
C1616  C     0.47390   0.80321   0.68798   0.00000  Uiso   1.00
H1617  H     0.65844   0.82627   0.78081   0.00000  Uiso   1.00
H1618  H     0.34178   0.83401   0.88648   0.00000  Uiso   1.00
H1619  H     0.54508   0.88853   0.96243   0.00000  Uiso   1.00
H1620  H     0.45268   0.77944   0.70408   0.00000  Uiso   1.00
N1621  N     0.49999   0.83332   0.95240   0.00000  Uiso   1.00
N1622  N     0.50001   0.83334   0.71427   0.00000  Uiso   1.00
O1623  O     0.50000   0.77225   0.87154   0.00000  Uiso   1.00
O1624  O     0.50000   0.89442   0.79513   0.00000  Uiso   1.00
O1625  O     0.50000   0.77226   0.79510   0.00000  Uiso   1.00
O1626  O     0.50000   0.89441   0.87157   0.00000  Uiso   1.00
O1627  O     0.42392   0.83333   0.86261   0.00000  Uiso   1.00
O1628  O     0.57608   0.83334   0.80405   0.00000  Uiso   1.00
O1629  O     0.42392   0.83334   0.78617   0.00000  Uiso   1.00
O1630  O     0.57608   0.83333   0.88050   0.00000  Uiso   1.00
Zn1631 Zn    0.50000   0.83333   0.88437   0.00000  Uiso   1.00
Zn1632 Zn    0.50000   0.83334   0.78229   0.00000  Uiso   1.00
O1633  O     0.40680   0.71066   0.83500   0.00000  Uiso   1.00
C1634  C     0.38365   0.72267   0.79049   0.00000  Uiso   1.00
H1635  H     0.40609   0.74802   0.77642   0.00000  Uiso   1.00
H1636  H     0.34377   0.73516   0.79204   0.00000  Uiso   1.00
H1637  H     0.37952   0.69602   0.76661   0.00000  Uiso   1.00
O1638  O     0.59310   0.95585   0.82749   0.00000  Uiso   1.00
C1639  C     0.62106   0.94464   0.87057   0.00000  Uiso   1.00
H1640  H     0.64819   0.91854   0.86601   0.00000  Uiso   1.00
H1641  H     0.59531   0.93362   0.89536   0.00000  Uiso   1.00
H1642  H     0.64575   0.97104   0.88477   0.00000  Uiso   1.00
O1643  O     0.40642   0.95747   0.83388   0.00000  Uiso   1.00
C1644  C     0.38465   0.94605   0.78919   0.00000  Uiso   1.00
H1645  H     0.37902   0.91174   0.78852   0.00000  Uiso   1.00
H1646  H     0.40852   0.95440   0.76184   0.00000  Uiso   1.00
H1647  H     0.34558   0.96119   0.78049   0.00000  Uiso   1.00
O1648  O     0.59573   0.70906   0.83535   0.00000  Uiso   1.00
C1649  C     0.61501   0.72144   0.88029   0.00000  Uiso   1.00
H1650  H     0.60752   0.69815   0.90698   0.00000  Uiso   1.00
H1651  H     0.59799   0.75202   0.88763   0.00000  Uiso   1.00
H1652  H     0.65807   0.72554   0.88325   0.00000  Uiso   1.00
N1653  N     0.54994   0.89730   0.71909   0.00000  Uiso   1.00
H1654  H     0.53416   0.92644   0.70952   0.00000  Uiso   1.00
C1655  C     0.60666   0.89663   0.72545   0.00000  Uiso   1.00
H1656  H     0.62152   0.92274   0.70573   0.00000  Uiso   1.00
H1657  H     0.62250   0.86657   0.71443   0.00000  Uiso   1.00
H1658  H     0.62121   0.90065   0.76214   0.00000  Uiso   1.00
N1659  N     0.44543   0.77171   0.94667   0.00000  Uiso   1.00
H1660  H     0.40575   0.77323   0.94821   0.00000  Uiso   1.00
C1661  C     0.46601   0.72953   0.95500   0.00000  Uiso   1.00
H1662  H     0.44396   0.70797   0.93020   0.00000  Uiso   1.00
H1663  H     0.46163   0.71852   0.98997   0.00000  Uiso   1.00
H1664  H     0.50809   0.72832   0.95069   0.00000  Uiso   1.00
C1665  C     0.83419   0.75351   0.83376   0.00000  Uiso   1.00
C1666  C     0.83332   0.91320   0.83303   0.00000  Uiso   1.00
C1667  C     0.73382   0.83199   0.82149   0.00000  Uiso   1.00
C1668  C     0.93292   0.83272   0.84527   0.00000  Uiso   1.00
C1669  C     0.67887   0.82944   0.81532   0.00000  Uiso   1.00
C1670  C     0.98799   0.83164   0.85180   0.00000  Uiso   1.00
C1671  C     0.78626   0.68883   0.83277   0.00000  Uiso   1.00
C1672  C     0.88153   0.97794   0.83314   0.00000  Uiso   1.00
C1673  C     0.78613   0.97881   0.83268   0.00000  Uiso   1.00
C1674  C     0.88219   0.68799   0.83530   0.00000  Uiso   1.00
C1675  C     0.83359   0.95737   0.83246   0.00000  Uiso   1.00
C1676  C     0.83436   0.70944   0.83451   0.00000  Uiso   1.00
C1677  C     0.85848   0.86415   0.69314   0.00000  Uiso   1.00
C1678  C     0.80735   0.80285   0.97334   0.00000  Uiso   1.00
C1679  C     0.85840   0.86399   0.97856   0.00000  Uiso   1.00
C1680  C     0.80723   0.80321   0.68798   0.00000  Uiso   1.00
H1681  H     0.99177   0.82627   0.78081   0.00000  Uiso   1.00
H1682  H     0.67512   0.83401   0.88648   0.00000  Uiso   1.00
H1683  H     0.87841   0.88853   0.96243   0.00000  Uiso   1.00
H1684  H     0.78601   0.77944   0.70408   0.00000  Uiso   1.00
N1685  N     0.83332   0.83332   0.95240   0.00000  Uiso   1.00
N1686  N     0.83335   0.83334   0.71427   0.00000  Uiso   1.00
O1687  O     0.83333   0.77225   0.87154   0.00000  Uiso   1.00
O1688  O     0.83334   0.89442   0.79513   0.00000  Uiso   1.00
O1689  O     0.83333   0.77226   0.79510   0.00000  Uiso   1.00
O1690  O     0.83334   0.89441   0.87157   0.00000  Uiso   1.00
O1691  O     0.75725   0.83333   0.86261   0.00000  Uiso   1.00
O1692  O     0.90942   0.83334   0.80405   0.00000  Uiso   1.00
O1693  O     0.75725   0.83334   0.78617   0.00000  Uiso   1.00
O1694  O     0.90942   0.83333   0.88050   0.00000  Uiso   1.00
Zn1695 Zn    0.83333   0.83333   0.88437   0.00000  Uiso   1.00
Zn1696 Zn    0.83333   0.83334   0.78229   0.00000  Uiso   1.00
O1697  O     0.74014   0.71066   0.83500   0.00000  Uiso   1.00
C1698  C     0.71698   0.72267   0.79049   0.00000  Uiso   1.00
H1699  H     0.73943   0.74802   0.77642   0.00000  Uiso   1.00
H1700  H     0.67710   0.73516   0.79204   0.00000  Uiso   1.00
H1701  H     0.71285   0.69602   0.76661   0.00000  Uiso   1.00
O1702  O     0.92644   0.95585   0.82749   0.00000  Uiso   1.00
C1703  C     0.95440   0.94464   0.87057   0.00000  Uiso   1.00
H1704  H     0.98152   0.91854   0.86601   0.00000  Uiso   1.00
H1705  H     0.92865   0.93362   0.89536   0.00000  Uiso   1.00
H1706  H     0.97908   0.97104   0.88477   0.00000  Uiso   1.00
O1707  O     0.73976   0.95747   0.83388   0.00000  Uiso   1.00
C1708  C     0.71799   0.94605   0.78919   0.00000  Uiso   1.00
H1709  H     0.71235   0.91174   0.78852   0.00000  Uiso   1.00
H1710  H     0.74185   0.95440   0.76184   0.00000  Uiso   1.00
H1711  H     0.67892   0.96119   0.78049   0.00000  Uiso   1.00
O1712  O     0.92906   0.70906   0.83535   0.00000  Uiso   1.00
C1713  C     0.94834   0.72144   0.88029   0.00000  Uiso   1.00
H1714  H     0.94085   0.69815   0.90698   0.00000  Uiso   1.00
H1715  H     0.93132   0.75202   0.88763   0.00000  Uiso   1.00
H1716  H     0.99140   0.72554   0.88325   0.00000  Uiso   1.00
N1717  N     0.88327   0.89730   0.71909   0.00000  Uiso   1.00
H1718  H     0.86749   0.92644   0.70952   0.00000  Uiso   1.00
C1719  C     0.93999   0.89663   0.72545   0.00000  Uiso   1.00
H1720  H     0.95486   0.92274   0.70573   0.00000  Uiso   1.00
H1721  H     0.95583   0.86657   0.71443   0.00000  Uiso   1.00
H1722  H     0.95454   0.90065   0.76214   0.00000  Uiso   1.00
N1723  N     0.77876   0.77171   0.94667   0.00000  Uiso   1.00
H1724  H     0.73908   0.77323   0.94821   0.00000  Uiso   1.00
C1725  C     0.79934   0.72953   0.95500   0.00000  Uiso   1.00
H1726  H     0.77729   0.70797   0.93020   0.00000  Uiso   1.00
H1727  H     0.79496   0.71852   0.98997   0.00000  Uiso   1.00
H1728  H     0.84143   0.72832   0.95069   0.00000  Uiso   1.00
loop_
_geom_bond_atom_site_label_1
_geom_bond_atom_site_label_2
_geom_bond_distance
_geom_bond_site_symmetry_2
_ccdc_geom_bond_type
C1     O25     1.282   .     A
C1     C12     1.405   .     S
C1     O23     1.281   .     A
C2     O24     1.282   .     A
C2     O26     1.282   .     A
C2     C11     1.408   .     S
C3     O27     1.280   .     A
C3     O29     1.284   .     A
C3     C5      1.404   .     S
C4     C6      1.404   .     S
C4     O28     1.281   .     A
C4     O30     1.283   .     A
C5     C134    1.329   1_455 S
C5     H145    1.086   1_455 S
C6     C69     1.329   .     S
C6     H82     1.088   .     S
C7     C12     1.400   .     A
C7     O33     1.386   .     S
C7     C393    1.382   1_545 S
C8     O38     1.385   .     S
C8     C11     1.399   .     A
C8     C202    1.386   .     S
C9     C11     1.400   .     A
C9     O43     1.383   .     S
C9     C199    1.382   .     S
C10    C12     1.404   .     A
C10    O48     1.385   .     S
C10    C392    1.386   1_545 S
C13    N22     1.372   .     A
C13    N53     1.415   .     S
C13    C1167   1.420   1_554 S
C14    N59     1.419   .     S
C14    N21     1.374   .     A
C14    C592    1.423   .     S
C15    H19     1.082   .     S
C15    N21     1.363   .     A
C15    C589    1.420   .     S
C16    H20     1.082   .     S
C16    N22     1.363   .     A
C16    C1166   1.423   1_554 S
H17    C69     1.086   .     S
H18    C134    1.088   1_455 S
N21    Zn31    2.017   .     S
N22    Zn32    2.017   .     S
O23    Zn31    1.990   .     S
O24    Zn32    1.990   .     S
O25    Zn32    1.978   .     S
O26    Zn31    1.978   .     S
O27    Zn31    1.972   .     S
O28    Zn32    1.972   .     S
O29    Zn32    1.981   .     S
O30    Zn31    1.981   .     S
O33    C34     1.412   .     S
C34    H35     1.107   .     S
C34    H37     1.110   .     S
C34    H36     1.108   .     S
O38    C39     1.411   .     S
C39    H42     1.108   .     S
C39    H41     1.114   .     S
C39    H40     1.107   .     S
O43    C44     1.414   .     S
C44    H47     1.109   .     S
C44    H46     1.117   .     S
C44    H45     1.104   .     S
O48    C49     1.414   .     S
C49    H52     1.109   .     S
C49    H50     1.115   .     S
C49    H51     1.105   .     S
N53    H54     1.032   .     S
N53    C55     1.446   .     S
C55    H56     1.111   .     S
C55    H57     1.112   .     S
C55    H58     1.107   .     S
N59    H60     1.031   .     S
N59    C61     1.448   .     S
C61    H64     1.112   .     S
C61    H62     1.110   .     S
C61    H63     1.111   .     S
C65    O89     1.282   .     A
C65    C76     1.405   .     S
C65    O87     1.281   .     A
C66    O88     1.282   .     A
C66    O90     1.282   .     A
C66    C75     1.408   .     S
C67    O91     1.280   .     A
C67    O93     1.284   .     A
C67    C69     1.404   .     S
C68    C70     1.404   .     S
C68    O92     1.281   .     A
C68    O94     1.283   .     A
C70    C133    1.329   .     S
C70    H146    1.088   .     S
C71    C76     1.400   .     A
C71    O97     1.386   .     S
C71    C457    1.382   1_545 S
C72    O102    1.385   .     S
C72    C75     1.399   .     A
C72    C266    1.386   .     S
C73    C75     1.400   .     A
C73    O107    1.383   .     S
C73    C263    1.382   .     S
C74    C76     1.404   .     A
C74    O112    1.385   .     S
C74    C456    1.386   1_545 S
C77    N86     1.372   .     A
C77    N117    1.415   .     S
C77    C1231   1.420   1_554 S
C78    N123    1.419   .     S
C78    N85     1.374   .     A
C78    C656    1.423   .     S
C79    H83     1.082   .     S
C79    N85     1.363   .     A
C79    C653    1.420   .     S
C80    H84     1.082   .     S
C80    N86     1.363   .     A
C80    C1230   1.423   1_554 S
H81    C133    1.086   .     S
N85    Zn95    2.017   .     S
N86    Zn96    2.017   .     S
O87    Zn95    1.990   .     S
O88    Zn96    1.990   .     S
O89    Zn96    1.978   .     S
O90    Zn95    1.978   .     S
O91    Zn95    1.972   .     S
O92    Zn96    1.972   .     S
O93    Zn96    1.981   .     S
O94    Zn95    1.981   .     S
O97    C98     1.412   .     S
C98    H99     1.107   .     S
C98    H101    1.110   .     S
C98    H100    1.108   .     S
O102   C103    1.411   .     S
C103   H106    1.108   .     S
C103   H105    1.114   .     S
C103   H104    1.107   .     S
O107   C108    1.414   .     S
C108   H111    1.109   .     S
C108   H110    1.117   .     S
C108   H109    1.104   .     S
O112   C113    1.414   .     S
C113   H116    1.109   .     S
C113   H114    1.115   .     S
C113   H115    1.105   .     S
N117   H118    1.032   .     S
N117   C119    1.446   .     S
C119   H120    1.111   .     S
C119   H121    1.112   .     S
C119   H122    1.107   .     S
N123   H124    1.031   .     S
N123   C125    1.448   .     S
C125   H128    1.112   .     S
C125   H126    1.110   .     S
C125   H127    1.111   .     S
C129   O153    1.282   .     A
C129   C140    1.405   .     S
C129   O151    1.281   .     A
C130   O152    1.282   .     A
C130   O154    1.282   .     A
C130   C139    1.408   .     S
C131   O155    1.280   .     A
C131   O157    1.284   .     A
C131   C133    1.404   .     S
C132   C134    1.404   .     S
C132   O156    1.281   .     A
C132   O158    1.283   .     A
C134   C5      1.329   1_655 S
C134   H18     1.088   1_655 S
C135   C140    1.400   .     A
C135   O161    1.386   .     S
C135   C521    1.382   1_545 S
C136   O166    1.385   .     S
C136   C139    1.399   .     A
C136   C330    1.386   .     S
C137   C139    1.400   .     A
C137   O171    1.383   .     S
C137   C327    1.382   .     S
C138   C140    1.404   .     A
C138   O176    1.385   .     S
C138   C520    1.386   1_545 S
C141   N150    1.372   .     A
C141   N181    1.415   .     S
C141   C1295   1.420   1_554 S
C142   N187    1.419   .     S
C142   N149    1.374   .     A
C142   C720    1.423   .     S
C143   H147    1.082   .     S
C143   N149    1.363   .     A
C143   C717    1.420   .     S
C144   H148    1.082   .     S
C144   N150    1.363   .     A
C144   C1294   1.423   1_554 S
H145   C5      1.086   1_655 S
N149   Zn159   2.017   .     S
N150   Zn160   2.017   .     S
O151   Zn159   1.990   .     S
O152   Zn160   1.990   .     S
O153   Zn160   1.978   .     S
O154   Zn159   1.978   .     S
O155   Zn159   1.972   .     S
O156   Zn160   1.972   .     S
O157   Zn160   1.981   .     S
O158   Zn159   1.981   .     S
O161   C162    1.412   .     S
C162   H163    1.107   .     S
C162   H165    1.110   .     S
C162   H164    1.108   .     S
O166   C167    1.411   .     S
C167   H170    1.108   .     S
C167   H169    1.114   .     S
C167   H168    1.107   .     S
O171   C172    1.414   .     S
C172   H175    1.109   .     S
C172   H174    1.117   .     S
C172   H173    1.104   .     S
O176   C177    1.414   .     S
C177   H180    1.109   .     S
C177   H178    1.115   .     S
C177   H179    1.105   .     S
N181   H182    1.032   .     S
N181   C183    1.446   .     S
C183   H184    1.111   .     S
C183   H185    1.112   .     S
C183   H186    1.107   .     S
N187   H188    1.031   .     S
N187   C189    1.448   .     S
C189   H192    1.112   .     S
C189   H190    1.110   .     S
C189   H191    1.111   .     S
C193   O217    1.282   .     A
C193   C204    1.405   .     S
C193   O215    1.281   .     A
C194   O216    1.282   .     A
C194   O218    1.282   .     A
C194   C203    1.408   .     S
C195   O219    1.280   .     A
C195   O221    1.284   .     A
C195   C197    1.404   .     S
C196   C198    1.404   .     S
C196   O220    1.281   .     A
C196   O222    1.283   .     A
C197   C326    1.329   1_455 S
C197   H337    1.086   1_455 S
C198   C261    1.329   .     S
C198   H274    1.088   .     S
C199   C204    1.400   .     A
C199   O225    1.386   .     S
C200   O230    1.385   .     S
C200   C203    1.399   .     A
C200   C394    1.386   .     S
C201   C203    1.400   .     A
C201   O235    1.383   .     S
C201   C391    1.382   .     S
C202   C204    1.404   .     A
C202   O240    1.385   .     S
C205   N214    1.372   .     A
C205   N245    1.415   .     S
C205   C1359   1.420   1_554 S
C206   N251    1.419   .     S
C206   N213    1.374   .     A
C206   C784    1.423   .     S
C207   H211    1.082   .     S
C207   N213    1.363   .     A
C207   C781    1.420   .     S
C208   H212    1.082   .     S
C208   N214    1.363   .     A
C208   C1358   1.423   1_554 S
H209   C261    1.086   .     S
H210   C326    1.088   1_455 S
N213   Zn223   2.017   .     S
N214   Zn224   2.017   .     S
O215   Zn223   1.990   .     S
O216   Zn224   1.990   .     S
O217   Zn224   1.978   .     S
O218   Zn223   1.978   .     S
O219   Zn223   1.972   .     S
O220   Zn224   1.972   .     S
O221   Zn224   1.981   .     S
O222   Zn223   1.981   .     S
O225   C226    1.412   .     S
C226   H227    1.107   .     S
C226   H229    1.110   .     S
C226   H228    1.108   .     S
O230   C231    1.411   .     S
C231   H234    1.108   .     S
C231   H233    1.114   .     S
C231   H232    1.107   .     S
O235   C236    1.414   .     S
C236   H239    1.109   .     S
C236   H238    1.117   .     S
C236   H237    1.104   .     S
O240   C241    1.414   .     S
C241   H244    1.109   .     S
C241   H242    1.115   .     S
C241   H243    1.105   .     S
N245   H246    1.032   .     S
N245   C247    1.446   .     S
C247   H248    1.111   .     S
C247   H249    1.112   .     S
C247   H250    1.107   .     S
N251   H252    1.031   .     S
N251   C253    1.448   .     S
C253   H256    1.112   .     S
C253   H254    1.110   .     S
C253   H255    1.111   .     S
C257   O281    1.282   .     A
C257   C268    1.405   .     S
C257   O279    1.281   .     A
C258   O280    1.282   .     A
C258   O282    1.282   .     A
C258   C267    1.408   .     S
C259   O283    1.280   .     A
C259   O285    1.284   .     A
C259   C261    1.404   .     S
C260   C262    1.404   .     S
C260   O284    1.281   .     A
C260   O286    1.283   .     A
C262   C325    1.329   .     S
C262   H338    1.088   .     S
C263   C268    1.400   .     A
C263   O289    1.386   .     S
C264   O294    1.385   .     S
C264   C267    1.399   .     A
C264   C458    1.386   .     S
C265   C267    1.400   .     A
C265   O299    1.383   .     S
C265   C455    1.382   .     S
C266   C268    1.404   .     A
C266   O304    1.385   .     S
C269   N278    1.372   .     A
C269   N309    1.415   .     S
C269   C1423   1.420   1_554 S
C270   N315    1.419   .     S
C270   N277    1.374   .     A
C270   C848    1.423   .     S
C271   H275    1.082   .     S
C271   N277    1.363   .     A
C271   C845    1.420   .     S
C272   H276    1.082   .     S
C272   N278    1.363   .     A
C272   C1422   1.423   1_554 S
H273   C325    1.086   .     S
N277   Zn287   2.017   .     S
N278   Zn288   2.017   .     S
O279   Zn287   1.990   .     S
O280   Zn288   1.990   .     S
O281   Zn288   1.978   .     S
O282   Zn287   1.978   .     S
O283   Zn287   1.972   .     S
O284   Zn288   1.972   .     S
O285   Zn288   1.981   .     S
O286   Zn287   1.981   .     S
O289   C290    1.412   .     S
C290   H291    1.107   .     S
C290   H293    1.110   .     S
C290   H292    1.108   .     S
O294   C295    1.411   .     S
C295   H298    1.108   .     S
C295   H297    1.114   .     S
C295   H296    1.107   .     S
O299   C300    1.414   .     S
C300   H303    1.109   .     S
C300   H302    1.117   .     S
C300   H301    1.104   .     S
O304   C305    1.414   .     S
C305   H308    1.109   .     S
C305   H306    1.115   .     S
C305   H307    1.105   .     S
N309   H310    1.032   .     S
N309   C311    1.446   .     S
C311   H312    1.111   .     S
C311   H313    1.112   .     S
C311   H314    1.107   .     S
N315   H316    1.031   .     S
N315   C317    1.448   .     S
C317   H320    1.112   .     S
C317   H318    1.110   .     S
C317   H319    1.111   .     S
C321   O345    1.282   .     A
C321   C332    1.405   .     S
C321   O343    1.281   .     A
C322   O344    1.282   .     A
C322   O346    1.282   .     A
C322   C331    1.408   .     S
C323   O347    1.280   .     A
C323   O349    1.284   .     A
C323   C325    1.404   .     S
C324   C326    1.404   .     S
C324   O348    1.281   .     A
C324   O350    1.283   .     A
C326   C197    1.329   1_655 S
C326   H210    1.088   1_655 S
C327   C332    1.400   .     A
C327   O353    1.386   .     S
C328   O358    1.385   .     S
C328   C331    1.399   .     A
C328   C522    1.386   .     S
C329   C331    1.400   .     A
C329   O363    1.383   .     S
C329   C519    1.382   .     S
C330   C332    1.404   .     A
C330   O368    1.385   .     S
C333   N342    1.372   .     A
C333   N373    1.415   .     S
C333   C1487   1.420   1_554 S
C334   N379    1.419   .     S
C334   N341    1.374   .     A
C334   C912    1.423   .     S
C335   H339    1.082   .     S
C335   N341    1.363   .     A
C335   C909    1.420   .     S
C336   H340    1.082   .     S
C336   N342    1.363   .     A
C336   C1486   1.423   1_554 S
H337   C197    1.086   1_655 S
N341   Zn351   2.017   .     S
N342   Zn352   2.017   .     S
O343   Zn351   1.990   .     S
O344   Zn352   1.990   .     S
O345   Zn352   1.978   .     S
O346   Zn351   1.978   .     S
O347   Zn351   1.972   .     S
O348   Zn352   1.972   .     S
O349   Zn352   1.981   .     S
O350   Zn351   1.981   .     S
O353   C354    1.412   .     S
C354   H355    1.107   .     S
C354   H357    1.110   .     S
C354   H356    1.108   .     S
O358   C359    1.411   .     S
C359   H362    1.108   .     S
C359   H361    1.114   .     S
C359   H360    1.107   .     S
O363   C364    1.414   .     S
C364   H367    1.109   .     S
C364   H366    1.117   .     S
C364   H365    1.104   .     S
O368   C369    1.414   .     S
C369   H372    1.109   .     S
C369   H370    1.115   .     S
C369   H371    1.105   .     S
N373   H374    1.032   .     S
N373   C375    1.446   .     S
C375   H376    1.111   .     S
C375   H377    1.112   .     S
C375   H378    1.107   .     S
N379   H380    1.031   .     S
N379   C381    1.448   .     S
C381   H384    1.112   .     S
C381   H382    1.110   .     S
C381   H383    1.111   .     S
C385   O409    1.282   .     A
C385   C396    1.405   .     S
C385   O407    1.281   .     A
C386   O408    1.282   .     A
C386   O410    1.282   .     A
C386   C395    1.408   .     S
C387   O411    1.280   .     A
C387   O413    1.284   .     A
C387   C389    1.404   .     S
C388   C390    1.404   .     S
C388   O412    1.281   .     A
C388   O414    1.283   .     A
C389   C518    1.329   1_455 S
C389   H529    1.086   1_455 S
C390   C453    1.329   .     S
C390   H466    1.088   .     S
C391   C396    1.400   .     A
C391   O417    1.386   .     S
C392   O422    1.385   .     S
C392   C395    1.399   .     A
C392   C10     1.386   1_565 S
C393   C395    1.400   .     A
C393   O427    1.383   .     S
C393   C7      1.382   1_565 S
C394   C396    1.404   .     A
C394   O432    1.385   .     S
C397   N406    1.372   .     A
C397   N437    1.415   .     S
C397   C1551   1.420   1_554 S
C398   N443    1.419   .     S
C398   N405    1.374   .     A
C398   C976    1.423   .     S
C399   H403    1.082   .     S
C399   N405    1.363   .     A
C399   C973    1.420   .     S
C400   H404    1.082   .     S
C400   N406    1.363   .     A
C400   C1550   1.423   1_554 S
H401   C453    1.086   .     S
H402   C518    1.088   1_455 S
N405   Zn415   2.017   .     S
N406   Zn416   2.017   .     S
O407   Zn415   1.990   .     S
O408   Zn416   1.990   .     S
O409   Zn416   1.978   .     S
O410   Zn415   1.978   .     S
O411   Zn415   1.972   .     S
O412   Zn416   1.972   .     S
O413   Zn416   1.981   .     S
O414   Zn415   1.981   .     S
O417   C418    1.412   .     S
C418   H419    1.107   .     S
C418   H421    1.110   .     S
C418   H420    1.108   .     S
O422   C423    1.411   .     S
C423   H426    1.108   .     S
C423   H425    1.114   .     S
C423   H424    1.107   .     S
O427   C428    1.414   .     S
C428   H431    1.109   .     S
C428   H430    1.117   .     S
C428   H429    1.104   .     S
O432   C433    1.414   .     S
C433   H436    1.109   .     S
C433   H434    1.115   .     S
C433   H435    1.105   .     S
N437   H438    1.032   .     S
N437   C439    1.446   .     S
C439   H440    1.111   .     S
C439   H441    1.112   .     S
C439   H442    1.107   .     S
N443   H444    1.031   .     S
N443   C445    1.448   .     S
C445   H448    1.112   .     S
C445   H446    1.110   .     S
C445   H447    1.111   .     S
C449   O473    1.282   .     A
C449   C460    1.405   .     S
C449   O471    1.281   .     A
C450   O472    1.282   .     A
C450   O474    1.282   .     A
C450   C459    1.408   .     S
C451   O475    1.280   .     A
C451   O477    1.284   .     A
C451   C453    1.404   .     S
C452   C454    1.404   .     S
C452   O476    1.281   .     A
C452   O478    1.283   .     A
C454   C517    1.329   .     S
C454   H530    1.088   .     S
C455   C460    1.400   .     A
C455   O481    1.386   .     S
C456   O486    1.385   .     S
C456   C459    1.399   .     A
C456   C74     1.386   1_565 S
C457   C459    1.400   .     A
C457   O491    1.383   .     S
C457   C71     1.382   1_565 S
C458   C460    1.404   .     A
C458   O496    1.385   .     S
C461   N470    1.372   .     A
C461   N501    1.415   .     S
C461   C1615   1.420   1_554 S
C462   N507    1.419   .     S
C462   N469    1.374   .     A
C462   C1040   1.423   .     S
C463   H467    1.082   .     S
C463   N469    1.363   .     A
C463   C1037   1.420   .     S
C464   H468    1.082   .     S
C464   N470    1.363   .     A
C464   C1614   1.423   1_554 S
H465   C517    1.086   .     S
N469   Zn479   2.017   .     S
N470   Zn480   2.017   .     S
O471   Zn479   1.990   .     S
O472   Zn480   1.990   .     S
O473   Zn480   1.978   .     S
O474   Zn479   1.978   .     S
O475   Zn479   1.972   .     S
O476   Zn480   1.972   .     S
O477   Zn480   1.981   .     S
O478   Zn479   1.981   .     S
O481   C482    1.412   .     S
C482   H483    1.107   .     S
C482   H485    1.110   .     S
C482   H484    1.108   .     S
O486   C487    1.411   .     S
C487   H490    1.108   .     S
C487   H489    1.114   .     S
C487   H488    1.107   .     S
O491   C492    1.414   .     S
C492   H495    1.109   .     S
C492   H494    1.117   .     S
C492   H493    1.104   .     S
O496   C497    1.414   .     S
C497   H500    1.109   .     S
C497   H498    1.115   .     S
C497   H499    1.105   .     S
N501   H502    1.032   .     S
N501   C503    1.446   .     S
C503   H504    1.111   .     S
C503   H505    1.112   .     S
C503   H506    1.107   .     S
N507   H508    1.031   .     S
N507   C509    1.448   .     S
C509   H512    1.112   .     S
C509   H510    1.110   .     S
C509   H511    1.111   .     S
C513   O537    1.282   .     A
C513   C524    1.405   .     S
C513   O535    1.281   .     A
C514   O536    1.282   .     A
C514   O538    1.282   .     A
C514   C523    1.408   .     S
C515   O539    1.280   .     A
C515   O541    1.284   .     A
C515   C517    1.404   .     S
C516   C518    1.404   .     S
C516   O540    1.281   .     A
C516   O542    1.283   .     A
C518   C389    1.329   1_655 S
C518   H402    1.088   1_655 S
C519   C524    1.400   .     A
C519   O545    1.386   .     S
C520   O550    1.385   .     S
C520   C523    1.399   .     A
C520   C138    1.386   1_565 S
C521   C523    1.400   .     A
C521   O555    1.383   .     S
C521   C135    1.382   1_565 S
C522   C524    1.404   .     A
C522   O560    1.385   .     S
C525   N534    1.372   .     A
C525   N565    1.415   .     S
C525   C1679   1.420   1_554 S
C526   N571    1.419   .     S
C526   N533    1.374   .     A
C526   C1104   1.423   .     S
C527   H531    1.082   .     S
C527   N533    1.363   .     A
C527   C1101   1.420   .     S
C528   H532    1.082   .     S
C528   N534    1.363   .     A
C528   C1678   1.423   1_554 S
H529   C389    1.086   1_655 S
N533   Zn543   2.017   .     S
N534   Zn544   2.017   .     S
O535   Zn543   1.990   .     S
O536   Zn544   1.990   .     S
O537   Zn544   1.978   .     S
O538   Zn543   1.978   .     S
O539   Zn543   1.972   .     S
O540   Zn544   1.972   .     S
O541   Zn544   1.981   .     S
O542   Zn543   1.981   .     S
O545   C546    1.412   .     S
C546   H547    1.107   .     S
C546   H549    1.110   .     S
C546   H548    1.108   .     S
O550   C551    1.411   .     S
C551   H554    1.108   .     S
C551   H553    1.114   .     S
C551   H552    1.107   .     S
O555   C556    1.414   .     S
C556   H559    1.109   .     S
C556   H558    1.117   .     S
C556   H557    1.104   .     S
O560   C561    1.414   .     S
C561   H564    1.109   .     S
C561   H562    1.115   .     S
C561   H563    1.105   .     S
N565   H566    1.032   .     S
N565   C567    1.446   .     S
C567   H568    1.111   .     S
C567   H569    1.112   .     S
C567   H570    1.107   .     S
N571   H572    1.031   .     S
N571   C573    1.448   .     S
C573   H576    1.112   .     S
C573   H574    1.110   .     S
C573   H575    1.111   .     S
C577   O601    1.282   .     A
C577   C588    1.405   .     S
C577   O599    1.281   .     A
C578   O600    1.282   .     A
C578   O602    1.282   .     A
C578   C587    1.408   .     S
C579   O603    1.280   .     A
C579   O605    1.284   .     A
C579   C581    1.404   .     S
C580   C582    1.404   .     S
C580   O604    1.281   .     A
C580   O606    1.283   .     A
C581   C710    1.329   1_455 S
C581   H721    1.086   1_455 S
C582   C645    1.329   .     S
C582   H658    1.088   .     S
C583   C588    1.400   .     A
C583   O609    1.386   .     S
C583   C969    1.382   1_545 S
C584   O614    1.385   .     S
C584   C587    1.399   .     A
C584   C778    1.386   .     S
C585   C587    1.400   .     A
C585   O619    1.383   .     S
C585   C775    1.382   .     S
C586   C588    1.404   .     A
C586   O624    1.385   .     S
C586   C968    1.386   1_545 S
C589   N598    1.372   .     A
C589   N629    1.415   .     S
C590   N635    1.419   .     S
C590   N597    1.374   .     A
C590   C1168   1.423   .     S
C591   H595    1.082   .     S
C591   N597    1.363   .     A
C591   C1165   1.420   .     S
C592   H596    1.082   .     S
C592   N598    1.363   .     A
H593   C645    1.086   .     S
H594   C710    1.088   1_455 S
N597   Zn607   2.017   .     S
N598   Zn608   2.017   .     S
O599   Zn607   1.990   .     S
O600   Zn608   1.990   .     S
O601   Zn608   1.978   .     S
O602   Zn607   1.978   .     S
O603   Zn607   1.972   .     S
O604   Zn608   1.972   .     S
O605   Zn608   1.981   .     S
O606   Zn607   1.981   .     S
O609   C610    1.412   .     S
C610   H611    1.107   .     S
C610   H613    1.110   .     S
C610   H612    1.108   .     S
O614   C615    1.411   .     S
C615   H618    1.108   .     S
C615   H617    1.114   .     S
C615   H616    1.107   .     S
O619   C620    1.414   .     S
C620   H623    1.109   .     S
C620   H622    1.117   .     S
C620   H621    1.104   .     S
O624   C625    1.414   .     S
C625   H628    1.109   .     S
C625   H626    1.115   .     S
C625   H627    1.105   .     S
N629   H630    1.032   .     S
N629   C631    1.446   .     S
C631   H632    1.111   .     S
C631   H633    1.112   .     S
C631   H634    1.107   .     S
N635   H636    1.031   .     S
N635   C637    1.448   .     S
C637   H640    1.112   .     S
C637   H638    1.110   .     S
C637   H639    1.111   .     S
C641   O665    1.282   .     A
C641   C652    1.405   .     S
C641   O663    1.281   .     A
C642   O664    1.282   .     A
C642   O666    1.282   .     A
C642   C651    1.408   .     S
C643   O667    1.280   .     A
C643   O669    1.284   .     A
C643   C645    1.404   .     S
C644   C646    1.404   .     S
C644   O668    1.281   .     A
C644   O670    1.283   .     A
C646   C709    1.329   .     S
C646   H722    1.088   .     S
C647   C652    1.400   .     A
C647   O673    1.386   .     S
C647   C1033   1.382   1_545 S
C648   O678    1.385   .     S
C648   C651    1.399   .     A
C648   C842    1.386   .     S
C649   C651    1.400   .     A
C649   O683    1.383   .     S
C649   C839    1.382   .     S
C650   C652    1.404   .     A
C650   O688    1.385   .     S
C650   C1032   1.386   1_545 S
C653   N662    1.372   .     A
C653   N693    1.415   .     S
C654   N699    1.419   .     S
C654   N661    1.374   .     A
C654   C1232   1.423   .     S
C655   H659    1.082   .     S
C655   N661    1.363   .     A
C655   C1229   1.420   .     S
C656   H660    1.082   .     S
C656   N662    1.363   .     A
H657   C709    1.086   .     S
N661   Zn671   2.017   .     S
N662   Zn672   2.017   .     S
O663   Zn671   1.990   .     S
O664   Zn672   1.990   .     S
O665   Zn672   1.978   .     S
O666   Zn671   1.978   .     S
O667   Zn671   1.972   .     S
O668   Zn672   1.972   .     S
O669   Zn672   1.981   .     S
O670   Zn671   1.981   .     S
O673   C674    1.412   .     S
C674   H675    1.107   .     S
C674   H677    1.110   .     S
C674   H676    1.108   .     S
O678   C679    1.411   .     S
C679   H682    1.108   .     S
C679   H681    1.114   .     S
C679   H680    1.107   .     S
O683   C684    1.414   .     S
C684   H687    1.109   .     S
C684   H686    1.117   .     S
C684   H685    1.104   .     S
O688   C689    1.414   .     S
C689   H692    1.109   .     S
C689   H690    1.115   .     S
C689   H691    1.105   .     S
N693   H694    1.032   .     S
N693   C695    1.446   .     S
C695   H696    1.111   .     S
C695   H697    1.112   .     S
C695   H698    1.107   .     S
N699   H700    1.031   .     S
N699   C701    1.448   .     S
C701   H704    1.112   .     S
C701   H702    1.110   .     S
C701   H703    1.111   .     S
C705   O729    1.282   .     A
C705   C716    1.405   .     S
C705   O727    1.281   .     A
C706   O728    1.282   .     A
C706   O730    1.282   .     A
C706   C715    1.408   .     S
C707   O731    1.280   .     A
C707   O733    1.284   .     A
C707   C709    1.404   .     S
C708   C710    1.404   .     S
C708   O732    1.281   .     A
C708   O734    1.283   .     A
C710   C581    1.329   1_655 S
C710   H594    1.088   1_655 S
C711   C716    1.400   .     A
C711   O737    1.386   .     S
C711   C1097   1.382   1_545 S
C712   O742    1.385   .     S
C712   C715    1.399   .     A
C712   C906    1.386   .     S
C713   C715    1.400   .     A
C713   O747    1.383   .     S
C713   C903    1.382   .     S
C714   C716    1.404   .     A
C714   O752    1.385   .     S
C714   C1096   1.386   1_545 S
C717   N726    1.372   .     A
C717   N757    1.415   .     S
C718   N763    1.419   .     S
C718   N725    1.374   .     A
C718   C1296   1.423   .     S
C719   H723    1.082   .     S
C719   N725    1.363   .     A
C719   C1293   1.420   .     S
C720   H724    1.082   .     S
C720   N726    1.363   .     A
H721   C581    1.086   1_655 S
N725   Zn735   2.017   .     S
N726   Zn736   2.017   .     S
O727   Zn735   1.990   .     S
O728   Zn736   1.990   .     S
O729   Zn736   1.978   .     S
O730   Zn735   1.978   .     S
O731   Zn735   1.972   .     S
O732   Zn736   1.972   .     S
O733   Zn736   1.981   .     S
O734   Zn735   1.981   .     S
O737   C738    1.412   .     S
C738   H739    1.107   .     S
C738   H741    1.110   .     S
C738   H740    1.108   .     S
O742   C743    1.411   .     S
C743   H746    1.108   .     S
C743   H745    1.114   .     S
C743   H744    1.107   .     S
O747   C748    1.414   .     S
C748   H751    1.109   .     S
C748   H750    1.117   .     S
C748   H749    1.104   .     S
O752   C753    1.414   .     S
C753   H756    1.109   .     S
C753   H754    1.115   .     S
C753   H755    1.105   .     S
N757   H758    1.032   .     S
N757   C759    1.446   .     S
C759   H760    1.111   .     S
C759   H761    1.112   .     S
C759   H762    1.107   .     S
N763   H764    1.031   .     S
N763   C765    1.448   .     S
C765   H768    1.112   .     S
C765   H766    1.110   .     S
C765   H767    1.111   .     S
C769   O793    1.282   .     A
C769   C780    1.405   .     S
C769   O791    1.281   .     A
C770   O792    1.282   .     A
C770   O794    1.282   .     A
C770   C779    1.408   .     S
C771   O795    1.280   .     A
C771   O797    1.284   .     A
C771   C773    1.404   .     S
C772   C774    1.404   .     S
C772   O796    1.281   .     A
C772   O798    1.283   .     A
C773   C902    1.329   1_455 S
C773   H913    1.086   1_455 S
C774   C837    1.329   .     S
C774   H850    1.088   .     S
C775   C780    1.400   .     A
C775   O801    1.386   .     S
C776   O806    1.385   .     S
C776   C779    1.399   .     A
C776   C970    1.386   .     S
C777   C779    1.400   .     A
C777   O811    1.383   .     S
C777   C967    1.382   .     S
C778   C780    1.404   .     A
C778   O816    1.385   .     S
C781   N790    1.372   .     A
C781   N821    1.415   .     S
C782   N827    1.419   .     S
C782   N789    1.374   .     A
C782   C1360   1.423   .     S
C783   H787    1.082   .     S
C783   N789    1.363   .     A
C783   C1357   1.420   .     S
C784   H788    1.082   .     S
C784   N790    1.363   .     A
H785   C837    1.086   .     S
H786   C902    1.088   1_455 S
N789   Zn799   2.017   .     S
N790   Zn800   2.017   .     S
O791   Zn799   1.990   .     S
O792   Zn800   1.990   .     S
O793   Zn800   1.978   .     S
O794   Zn799   1.978   .     S
O795   Zn799   1.972   .     S
O796   Zn800   1.972   .     S
O797   Zn800   1.981   .     S
O798   Zn799   1.981   .     S
O801   C802    1.412   .     S
C802   H803    1.107   .     S
C802   H805    1.110   .     S
C802   H804    1.108   .     S
O806   C807    1.411   .     S
C807   H810    1.108   .     S
C807   H809    1.114   .     S
C807   H808    1.107   .     S
O811   C812    1.414   .     S
C812   H815    1.109   .     S
C812   H814    1.117   .     S
C812   H813    1.104   .     S
O816   C817    1.414   .     S
C817   H820    1.109   .     S
C817   H818    1.115   .     S
C817   H819    1.105   .     S
N821   H822    1.032   .     S
N821   C823    1.446   .     S
C823   H824    1.111   .     S
C823   H825    1.112   .     S
C823   H826    1.107   .     S
N827   H828    1.031   .     S
N827   C829    1.448   .     S
C829   H832    1.112   .     S
C829   H830    1.110   .     S
C829   H831    1.111   .     S
C833   O857    1.282   .     A
C833   C844    1.405   .     S
C833   O855    1.281   .     A
C834   O856    1.282   .     A
C834   O858    1.282   .     A
C834   C843    1.408   .     S
C835   O859    1.280   .     A
C835   O861    1.284   .     A
C835   C837    1.404   .     S
C836   C838    1.404   .     S
C836   O860    1.281   .     A
C836   O862    1.283   .     A
C838   C901    1.329   .     S
C838   H914    1.088   .     S
C839   C844    1.400   .     A
C839   O865    1.386   .     S
C840   O870    1.385   .     S
C840   C843    1.399   .     A
C840   C1034   1.386   .     S
C841   C843    1.400   .     A
C841   O875    1.383   .     S
C841   C1031   1.382   .     S
C842   C844    1.404   .     A
C842   O880    1.385   .     S
C845   N854    1.372   .     A
C845   N885    1.415   .     S
C846   N891    1.419   .     S
C846   N853    1.374   .     A
C846   C1424   1.423   .     S
C847   H851    1.082   .     S
C847   N853    1.363   .     A
C847   C1421   1.420   .     S
C848   H852    1.082   .     S
C848   N854    1.363   .     A
H849   C901    1.086   .     S
N853   Zn863   2.017   .     S
N854   Zn864   2.017   .     S
O855   Zn863   1.990   .     S
O856   Zn864   1.990   .     S
O857   Zn864   1.978   .     S
O858   Zn863   1.978   .     S
O859   Zn863   1.972   .     S
O860   Zn864   1.972   .     S
O861   Zn864   1.981   .     S
O862   Zn863   1.981   .     S
O865   C866    1.412   .     S
C866   H867    1.107   .     S
C866   H869    1.110   .     S
C866   H868    1.108   .     S
O870   C871    1.411   .     S
C871   H874    1.108   .     S
C871   H873    1.114   .     S
C871   H872    1.107   .     S
O875   C876    1.414   .     S
C876   H879    1.109   .     S
C876   H878    1.117   .     S
C876   H877    1.104   .     S
O880   C881    1.414   .     S
C881   H884    1.109   .     S
C881   H882    1.115   .     S
C881   H883    1.105   .     S
N885   H886    1.032   .     S
N885   C887    1.446   .     S
C887   H888    1.111   .     S
C887   H889    1.112   .     S
C887   H890    1.107   .     S
N891   H892    1.031   .     S
N891   C893    1.448   .     S
C893   H896    1.112   .     S
C893   H894    1.110   .     S
C893   H895    1.111   .     S
C897   O921    1.282   .     A
C897   C908    1.405   .     S
C897   O919    1.281   .     A
C898   O920    1.282   .     A
C898   O922    1.282   .     A
C898   C907    1.408   .     S
C899   O923    1.280   .     A
C899   O925    1.284   .     A
C899   C901    1.404   .     S
C900   C902    1.404   .     S
C900   O924    1.281   .     A
C900   O926    1.283   .     A
C902   C773    1.329   1_655 S
C902   H786    1.088   1_655 S
C903   C908    1.400   .     A
C903   O929    1.386   .     S
C904   O934    1.385   .     S
C904   C907    1.399   .     A
C904   C1098   1.386   .     S
C905   C907    1.400   .     A
C905   O939    1.383   .     S
C905   C1095   1.382   .     S
C906   C908    1.404   .     A
C906   O944    1.385   .     S
C909   N918    1.372   .     A
C909   N949    1.415   .     S
C910   N955    1.419   .     S
C910   N917    1.374   .     A
C910   C1488   1.423   .     S
C911   H915    1.082   .     S
C911   N917    1.363   .     A
C911   C1485   1.420   .     S
C912   H916    1.082   .     S
C912   N918    1.363   .     A
H913   C773    1.086   1_655 S
N917   Zn927   2.017   .     S
N918   Zn928   2.017   .     S
O919   Zn927   1.990   .     S
O920   Zn928   1.990   .     S
O921   Zn928   1.978   .     S
O922   Zn927   1.978   .     S
O923   Zn927   1.972   .     S
O924   Zn928   1.972   .     S
O925   Zn928   1.981   .     S
O926   Zn927   1.981   .     S
O929   C930    1.412   .     S
C930   H931    1.107   .     S
C930   H933    1.110   .     S
C930   H932    1.108   .     S
O934   C935    1.411   .     S
C935   H938    1.108   .     S
C935   H937    1.114   .     S
C935   H936    1.107   .     S
O939   C940    1.414   .     S
C940   H943    1.109   .     S
C940   H942    1.117   .     S
C940   H941    1.104   .     S
O944   C945    1.414   .     S
C945   H948    1.109   .     S
C945   H946    1.115   .     S
C945   H947    1.105   .     S
N949   H950    1.032   .     S
N949   C951    1.446   .     S
C951   H952    1.111   .     S
C951   H953    1.112   .     S
C951   H954    1.107   .     S
N955   H956    1.031   .     S
N955   C957    1.448   .     S
C957   H960    1.112   .     S
C957   H958    1.110   .     S
C957   H959    1.111   .     S
C961   O985    1.282   .     A
C961   C972    1.405   .     S
C961   O983    1.281   .     A
C962   O984    1.282   .     A
C962   O986    1.282   .     A
C962   C971    1.408   .     S
C963   O987    1.280   .     A
C963   O989    1.284   .     A
C963   C965    1.404   .     S
C964   C966    1.404   .     S
C964   O988    1.281   .     A
C964   O990    1.283   .     A
C965   C1094   1.329   1_455 S
C965   H1105   1.086   1_455 S
C966   C1029   1.329   .     S
C966   H1042   1.088   .     S
C967   C972    1.400   .     A
C967   O993    1.386   .     S
C968   O998    1.385   .     S
C968   C971    1.399   .     A
C968   C586    1.386   1_565 S
C969   C971    1.400   .     A
C969   O1003   1.383   .     S
C969   C583    1.382   1_565 S
C970   C972    1.404   .     A
C970   O1008   1.385   .     S
C973   N982    1.372   .     A
C973   N1013   1.415   .     S
C974   N1019   1.419   .     S
C974   N981    1.374   .     A
C974   C1552   1.423   .     S
C975   H979    1.082   .     S
C975   N981    1.363   .     A
C975   C1549   1.420   .     S
C976   H980    1.082   .     S
C976   N982    1.363   .     A
H977   C1029   1.086   .     S
H978   C1094   1.088   1_455 S
N981   Zn991   2.017   .     S
N982   Zn992   2.017   .     S
O983   Zn991   1.990   .     S
O984   Zn992   1.990   .     S
O985   Zn992   1.978   .     S
O986   Zn991   1.978   .     S
O987   Zn991   1.972   .     S
O988   Zn992   1.972   .     S
O989   Zn992   1.981   .     S
O990   Zn991   1.981   .     S
O993   C994    1.412   .     S
C994   H995    1.107   .     S
C994   H997    1.110   .     S
C994   H996    1.108   .     S
O998   C999    1.411   .     S
C999   H1002   1.108   .     S
C999   H1001   1.114   .     S
C999   H1000   1.107   .     S
O1003  C1004   1.414   .     S
C1004  H1007   1.109   .     S
C1004  H1006   1.117   .     S
C1004  H1005   1.104   .     S
O1008  C1009   1.414   .     S
C1009  H1012   1.109   .     S
C1009  H1010   1.115   .     S
C1009  H1011   1.105   .     S
N1013  H1014   1.032   .     S
N1013  C1015   1.446   .     S
C1015  H1016   1.111   .     S
C1015  H1017   1.112   .     S
C1015  H1018   1.107   .     S
N1019  H1020   1.031   .     S
N1019  C1021   1.448   .     S
C1021  H1024   1.112   .     S
C1021  H1022   1.110   .     S
C1021  H1023   1.111   .     S
C1025  O1049   1.282   .     A
C1025  C1036   1.405   .     S
C1025  O1047   1.281   .     A
C1026  O1048   1.282   .     A
C1026  O1050   1.282   .     A
C1026  C1035   1.408   .     S
C1027  O1051   1.280   .     A
C1027  O1053   1.284   .     A
C1027  C1029   1.404   .     S
C1028  C1030   1.404   .     S
C1028  O1052   1.281   .     A
C1028  O1054   1.283   .     A
C1030  C1093   1.329   .     S
C1030  H1106   1.088   .     S
C1031  C1036   1.400   .     A
C1031  O1057   1.386   .     S
C1032  O1062   1.385   .     S
C1032  C1035   1.399   .     A
C1032  C650    1.386   1_565 S
C1033  C1035   1.400   .     A
C1033  O1067   1.383   .     S
C1033  C647    1.382   1_565 S
C1034  C1036   1.404   .     A
C1034  O1072   1.385   .     S
C1037  N1046   1.372   .     A
C1037  N1077   1.415   .     S
C1038  N1083   1.419   .     S
C1038  N1045   1.374   .     A
C1038  C1616   1.423   .     S
C1039  H1043   1.082   .     S
C1039  N1045   1.363   .     A
C1039  C1613   1.420   .     S
C1040  H1044   1.082   .     S
C1040  N1046   1.363   .     A
H1041  C1093   1.086   .     S
N1045  Zn1055  2.017   .     S
N1046  Zn1056  2.017   .     S
O1047  Zn1055  1.990   .     S
O1048  Zn1056  1.990   .     S
O1049  Zn1056  1.978   .     S
O1050  Zn1055  1.978   .     S
O1051  Zn1055  1.972   .     S
O1052  Zn1056  1.972   .     S
O1053  Zn1056  1.981   .     S
O1054  Zn1055  1.981   .     S
O1057  C1058   1.412   .     S
C1058  H1059   1.107   .     S
C1058  H1061   1.110   .     S
C1058  H1060   1.108   .     S
O1062  C1063   1.411   .     S
C1063  H1066   1.108   .     S
C1063  H1065   1.114   .     S
C1063  H1064   1.107   .     S
O1067  C1068   1.414   .     S
C1068  H1071   1.109   .     S
C1068  H1070   1.117   .     S
C1068  H1069   1.104   .     S
O1072  C1073   1.414   .     S
C1073  H1076   1.109   .     S
C1073  H1074   1.115   .     S
C1073  H1075   1.105   .     S
N1077  H1078   1.032   .     S
N1077  C1079   1.446   .     S
C1079  H1080   1.111   .     S
C1079  H1081   1.112   .     S
C1079  H1082   1.107   .     S
N1083  H1084   1.031   .     S
N1083  C1085   1.448   .     S
C1085  H1088   1.112   .     S
C1085  H1086   1.110   .     S
C1085  H1087   1.111   .     S
C1089  O1113   1.282   .     A
C1089  C1100   1.405   .     S
C1089  O1111   1.281   .     A
C1090  O1112   1.282   .     A
C1090  O1114   1.282   .     A
C1090  C1099   1.408   .     S
C1091  O1115   1.280   .     A
C1091  O1117   1.284   .     A
C1091  C1093   1.404   .     S
C1092  C1094   1.404   .     S
C1092  O1116   1.281   .     A
C1092  O1118   1.283   .     A
C1094  C965    1.329   1_655 S
C1094  H978    1.088   1_655 S
C1095  C1100   1.400   .     A
C1095  O1121   1.386   .     S
C1096  O1126   1.385   .     S
C1096  C1099   1.399   .     A
C1096  C714    1.386   1_565 S
C1097  C1099   1.400   .     A
C1097  O1131   1.383   .     S
C1097  C711    1.382   1_565 S
C1098  C1100   1.404   .     A
C1098  O1136   1.385   .     S
C1101  N1110   1.372   .     A
C1101  N1141   1.415   .     S
C1102  N1147   1.419   .     S
C1102  N1109   1.374   .     A
C1102  C1680   1.423   .     S
C1103  H1107   1.082   .     S
C1103  N1109   1.363   .     A
C1103  C1677   1.420   .     S
C1104  H1108   1.082   .     S
C1104  N1110   1.363   .     A
H1105  C965    1.086   1_655 S
N1109  Zn1119  2.017   .     S
N1110  Zn1120  2.017   .     S
O1111  Zn1119  1.990   .     S
O1112  Zn1120  1.990   .     S
O1113  Zn1120  1.978   .     S
O1114  Zn1119  1.978   .     S
O1115  Zn1119  1.972   .     S
O1116  Zn1120  1.972   .     S
O1117  Zn1120  1.981   .     S
O1118  Zn1119  1.981   .     S
O1121  C1122   1.412   .     S
C1122  H1123   1.107   .     S
C1122  H1125   1.110   .     S
C1122  H1124   1.108   .     S
O1126  C1127   1.411   .     S
C1127  H1130   1.108   .     S
C1127  H1129   1.114   .     S
C1127  H1128   1.107   .     S
O1131  C1132   1.414   .     S
C1132  H1135   1.109   .     S
C1132  H1134   1.117   .     S
C1132  H1133   1.104   .     S
O1136  C1137   1.414   .     S
C1137  H1140   1.109   .     S
C1137  H1138   1.115   .     S
C1137  H1139   1.105   .     S
N1141  H1142   1.032   .     S
N1141  C1143   1.446   .     S
C1143  H1144   1.111   .     S
C1143  H1145   1.112   .     S
C1143  H1146   1.107   .     S
N1147  H1148   1.031   .     S
N1147  C1149   1.448   .     S
C1149  H1152   1.112   .     S
C1149  H1150   1.110   .     S
C1149  H1151   1.111   .     S
C1153  O1177   1.282   .     A
C1153  C1164   1.405   .     S
C1153  O1175   1.281   .     A
C1154  O1176   1.282   .     A
C1154  O1178   1.282   .     A
C1154  C1163   1.408   .     S
C1155  O1179   1.280   .     A
C1155  O1181   1.284   .     A
C1155  C1157   1.404   .     S
C1156  C1158   1.404   .     S
C1156  O1180   1.281   .     A
C1156  O1182   1.283   .     A
C1157  C1286   1.329   1_455 S
C1157  H1297   1.086   1_455 S
C1158  C1221   1.329   .     S
C1158  H1234   1.088   .     S
C1159  C1164   1.400   .     A
C1159  O1185   1.386   .     S
C1159  C1545   1.382   1_545 S
C1160  O1190   1.385   .     S
C1160  C1163   1.399   .     A
C1160  C1354   1.386   .     S
C1161  C1163   1.400   .     A
C1161  O1195   1.383   .     S
C1161  C1351   1.382   .     S
C1162  C1164   1.404   .     A
C1162  O1200   1.385   .     S
C1162  C1544   1.386   1_545 S
C1165  N1174   1.372   .     A
C1165  N1205   1.415   .     S
C1166  N1211   1.419   .     S
C1166  N1173   1.374   .     A
C1166  C16     1.423   1_556 S
C1167  H1171   1.082   .     S
C1167  N1173   1.363   .     A
C1167  C13     1.420   1_556 S
C1168  H1172   1.082   .     S
C1168  N1174   1.363   .     A
H1169  C1221   1.086   .     S
H1170  C1286   1.088   1_455 S
N1173  Zn1183  2.017   .     S
N1174  Zn1184  2.017   .     S
O1175  Zn1183  1.990   .     S
O1176  Zn1184  1.990   .     S
O1177  Zn1184  1.978   .     S
O1178  Zn1183  1.978   .     S
O1179  Zn1183  1.972   .     S
O1180  Zn1184  1.972   .     S
O1181  Zn1184  1.981   .     S
O1182  Zn1183  1.981   .     S
O1185  C1186   1.412   .     S
C1186  H1187   1.107   .     S
C1186  H1189   1.110   .     S
C1186  H1188   1.108   .     S
O1190  C1191   1.411   .     S
C1191  H1194   1.108   .     S
C1191  H1193   1.114   .     S
C1191  H1192   1.107   .     S
O1195  C1196   1.414   .     S
C1196  H1199   1.109   .     S
C1196  H1198   1.117   .     S
C1196  H1197   1.104   .     S
O1200  C1201   1.414   .     S
C1201  H1204   1.109   .     S
C1201  H1202   1.115   .     S
C1201  H1203   1.105   .     S
N1205  H1206   1.032   .     S
N1205  C1207   1.446   .     S
C1207  H1208   1.111   .     S
C1207  H1209   1.112   .     S
C1207  H1210   1.107   .     S
N1211  H1212   1.031   .     S
N1211  C1213   1.448   .     S
C1213  H1216   1.112   .     S
C1213  H1214   1.110   .     S
C1213  H1215   1.111   .     S
C1217  O1241   1.282   .     A
C1217  C1228   1.405   .     S
C1217  O1239   1.281   .     A
C1218  O1240   1.282   .     A
C1218  O1242   1.282   .     A
C1218  C1227   1.408   .     S
C1219  O1243   1.280   .     A
C1219  O1245   1.284   .     A
C1219  C1221   1.404   .     S
C1220  C1222   1.404   .     S
C1220  O1244   1.281   .     A
C1220  O1246   1.283   .     A
C1222  C1285   1.329   .     S
C1222  H1298   1.088   .     S
C1223  C1228   1.400   .     A
C1223  O1249   1.386   .     S
C1223  C1609   1.382   1_545 S
C1224  O1254   1.385   .     S
C1224  C1227   1.399   .     A
C1224  C1418   1.386   .     S
C1225  C1227   1.400   .     A
C1225  O1259   1.383   .     S
C1225  C1415   1.382   .     S
C1226  C1228   1.404   .     A
C1226  O1264   1.385   .     S
C1226  C1608   1.386   1_545 S
C1229  N1238   1.372   .     A
C1229  N1269   1.415   .     S
C1230  N1275   1.419   .     S
C1230  N1237   1.374   .     A
C1230  C80     1.423   1_556 S
C1231  H1235   1.082   .     S
C1231  N1237   1.363   .     A
C1231  C77     1.420   1_556 S
C1232  H1236   1.082   .     S
C1232  N1238   1.363   .     A
H1233  C1285   1.086   .     S
N1237  Zn1247  2.017   .     S
N1238  Zn1248  2.017   .     S
O1239  Zn1247  1.990   .     S
O1240  Zn1248  1.990   .     S
O1241  Zn1248  1.978   .     S
O1242  Zn1247  1.978   .     S
O1243  Zn1247  1.972   .     S
O1244  Zn1248  1.972   .     S
O1245  Zn1248  1.981   .     S
O1246  Zn1247  1.981   .     S
O1249  C1250   1.412   .     S
C1250  H1251   1.107   .     S
C1250  H1253   1.110   .     S
C1250  H1252   1.108   .     S
O1254  C1255   1.411   .     S
C1255  H1258   1.108   .     S
C1255  H1257   1.114   .     S
C1255  H1256   1.107   .     S
O1259  C1260   1.414   .     S
C1260  H1263   1.109   .     S
C1260  H1262   1.117   .     S
C1260  H1261   1.104   .     S
O1264  C1265   1.414   .     S
C1265  H1268   1.109   .     S
C1265  H1266   1.115   .     S
C1265  H1267   1.105   .     S
N1269  H1270   1.032   .     S
N1269  C1271   1.446   .     S
C1271  H1272   1.111   .     S
C1271  H1273   1.112   .     S
C1271  H1274   1.107   .     S
N1275  H1276   1.031   .     S
N1275  C1277   1.448   .     S
C1277  H1280   1.112   .     S
C1277  H1278   1.110   .     S
C1277  H1279   1.111   .     S
C1281  O1305   1.282   .     A
C1281  C1292   1.405   .     S
C1281  O1303   1.281   .     A
C1282  O1304   1.282   .     A
C1282  O1306   1.282   .     A
C1282  C1291   1.408   .     S
C1283  O1307   1.280   .     A
C1283  O1309   1.284   .     A
C1283  C1285   1.404   .     S
C1284  C1286   1.404   .     S
C1284  O1308   1.281   .     A
C1284  O1310   1.283   .     A
C1286  C1157   1.329   1_655 S
C1286  H1170   1.088   1_655 S
C1287  C1292   1.400   .     A
C1287  O1313   1.386   .     S
C1287  C1673   1.382   1_545 S
C1288  O1318   1.385   .     S
C1288  C1291   1.399   .     A
C1288  C1482   1.386   .     S
C1289  C1291   1.400   .     A
C1289  O1323   1.383   .     S
C1289  C1479   1.382   .     S
C1290  C1292   1.404   .     A
C1290  O1328   1.385   .     S
C1290  C1672   1.386   1_545 S
C1293  N1302   1.372   .     A
C1293  N1333   1.415   .     S
C1294  N1339   1.419   .     S
C1294  N1301   1.374   .     A
C1294  C144    1.423   1_556 S
C1295  H1299   1.082   .     S
C1295  N1301   1.363   .     A
C1295  C141    1.420   1_556 S
C1296  H1300   1.082   .     S
C1296  N1302   1.363   .     A
H1297  C1157   1.086   1_655 S
N1301  Zn1311  2.017   .     S
N1302  Zn1312  2.017   .     S
O1303  Zn1311  1.990   .     S
O1304  Zn1312  1.990   .     S
O1305  Zn1312  1.978   .     S
O1306  Zn1311  1.978   .     S
O1307  Zn1311  1.972   .     S
O1308  Zn1312  1.972   .     S
O1309  Zn1312  1.981   .     S
O1310  Zn1311  1.981   .     S
O1313  C1314   1.412   .     S
C1314  H1315   1.107   .     S
C1314  H1317   1.110   .     S
C1314  H1316   1.108   .     S
O1318  C1319   1.411   .     S
C1319  H1322   1.108   .     S
C1319  H1321   1.114   .     S
C1319  H1320   1.107   .     S
O1323  C1324   1.414   .     S
C1324  H1327   1.109   .     S
C1324  H1326   1.117   .     S
C1324  H1325   1.104   .     S
O1328  C1329   1.414   .     S
C1329  H1332   1.109   .     S
C1329  H1330   1.115   .     S
C1329  H1331   1.105   .     S
N1333  H1334   1.032   .     S
N1333  C1335   1.446   .     S
C1335  H1336   1.111   .     S
C1335  H1337   1.112   .     S
C1335  H1338   1.107   .     S
N1339  H1340   1.031   .     S
N1339  C1341   1.448   .     S
C1341  H1344   1.112   .     S
C1341  H1342   1.110   .     S
C1341  H1343   1.111   .     S
C1345  O1369   1.282   .     A
C1345  C1356   1.405   .     S
C1345  O1367   1.281   .     A
C1346  O1368   1.282   .     A
C1346  O1370   1.282   .     A
C1346  C1355   1.408   .     S
C1347  O1371   1.280   .     A
C1347  O1373   1.284   .     A
C1347  C1349   1.404   .     S
C1348  C1350   1.404   .     S
C1348  O1372   1.281   .     A
C1348  O1374   1.283   .     A
C1349  C1478   1.329   1_455 S
C1349  H1489   1.086   1_455 S
C1350  C1413   1.329   .     S
C1350  H1426   1.088   .     S
C1351  C1356   1.400   .     A
C1351  O1377   1.386   .     S
C1352  O1382   1.385   .     S
C1352  C1355   1.399   .     A
C1352  C1546   1.386   .     S
C1353  C1355   1.400   .     A
C1353  O1387   1.383   .     S
C1353  C1543   1.382   .     S
C1354  C1356   1.404   .     A
C1354  O1392   1.385   .     S
C1357  N1366   1.372   .     A
C1357  N1397   1.415   .     S
C1358  N1403   1.419   .     S
C1358  N1365   1.374   .     A
C1358  C208    1.423   1_556 S
C1359  H1363   1.082   .     S
C1359  N1365   1.363   .     A
C1359  C205    1.420   1_556 S
C1360  H1364   1.082   .     S
C1360  N1366   1.363   .     A
H1361  C1413   1.086   .     S
H1362  C1478   1.088   1_455 S
N1365  Zn1375  2.017   .     S
N1366  Zn1376  2.017   .     S
O1367  Zn1375  1.990   .     S
O1368  Zn1376  1.990   .     S
O1369  Zn1376  1.978   .     S
O1370  Zn1375  1.978   .     S
O1371  Zn1375  1.972   .     S
O1372  Zn1376  1.972   .     S
O1373  Zn1376  1.981   .     S
O1374  Zn1375  1.981   .     S
O1377  C1378   1.412   .     S
C1378  H1379   1.107   .     S
C1378  H1381   1.110   .     S
C1378  H1380   1.108   .     S
O1382  C1383   1.411   .     S
C1383  H1386   1.108   .     S
C1383  H1385   1.114   .     S
C1383  H1384   1.107   .     S
O1387  C1388   1.414   .     S
C1388  H1391   1.109   .     S
C1388  H1390   1.117   .     S
C1388  H1389   1.104   .     S
O1392  C1393   1.414   .     S
C1393  H1396   1.109   .     S
C1393  H1394   1.115   .     S
C1393  H1395   1.105   .     S
N1397  H1398   1.032   .     S
N1397  C1399   1.446   .     S
C1399  H1400   1.111   .     S
C1399  H1401   1.112   .     S
C1399  H1402   1.107   .     S
N1403  H1404   1.031   .     S
N1403  C1405   1.448   .     S
C1405  H1408   1.112   .     S
C1405  H1406   1.110   .     S
C1405  H1407   1.111   .     S
C1409  O1433   1.282   .     A
C1409  C1420   1.405   .     S
C1409  O1431   1.281   .     A
C1410  O1432   1.282   .     A
C1410  O1434   1.282   .     A
C1410  C1419   1.408   .     S
C1411  O1435   1.280   .     A
C1411  O1437   1.284   .     A
C1411  C1413   1.404   .     S
C1412  C1414   1.404   .     S
C1412  O1436   1.281   .     A
C1412  O1438   1.283   .     A
C1414  C1477   1.329   .     S
C1414  H1490   1.088   .     S
C1415  C1420   1.400   .     A
C1415  O1441   1.386   .     S
C1416  O1446   1.385   .     S
C1416  C1419   1.399   .     A
C1416  C1610   1.386   .     S
C1417  C1419   1.400   .     A
C1417  O1451   1.383   .     S
C1417  C1607   1.382   .     S
C1418  C1420   1.404   .     A
C1418  O1456   1.385   .     S
C1421  N1430   1.372   .     A
C1421  N1461   1.415   .     S
C1422  N1467   1.419   .     S
C1422  N1429   1.374   .     A
C1422  C272    1.423   1_556 S
C1423  H1427   1.082   .     S
C1423  N1429   1.363   .     A
C1423  C269    1.420   1_556 S
C1424  H1428   1.082   .     S
C1424  N1430   1.363   .     A
H1425  C1477   1.086   .     S
N1429  Zn1439  2.017   .     S
N1430  Zn1440  2.017   .     S
O1431  Zn1439  1.990   .     S
O1432  Zn1440  1.990   .     S
O1433  Zn1440  1.978   .     S
O1434  Zn1439  1.978   .     S
O1435  Zn1439  1.972   .     S
O1436  Zn1440  1.972   .     S
O1437  Zn1440  1.981   .     S
O1438  Zn1439  1.981   .     S
O1441  C1442   1.412   .     S
C1442  H1443   1.107   .     S
C1442  H1445   1.110   .     S
C1442  H1444   1.108   .     S
O1446  C1447   1.411   .     S
C1447  H1450   1.108   .     S
C1447  H1449   1.114   .     S
C1447  H1448   1.107   .     S
O1451  C1452   1.414   .     S
C1452  H1455   1.109   .     S
C1452  H1454   1.117   .     S
C1452  H1453   1.104   .     S
O1456  C1457   1.414   .     S
C1457  H1460   1.109   .     S
C1457  H1458   1.115   .     S
C1457  H1459   1.105   .     S
N1461  H1462   1.032   .     S
N1461  C1463   1.446   .     S
C1463  H1464   1.111   .     S
C1463  H1465   1.112   .     S
C1463  H1466   1.107   .     S
N1467  H1468   1.031   .     S
N1467  C1469   1.448   .     S
C1469  H1472   1.112   .     S
C1469  H1470   1.110   .     S
C1469  H1471   1.111   .     S
C1473  O1497   1.282   .     A
C1473  C1484   1.405   .     S
C1473  O1495   1.281   .     A
C1474  O1496   1.282   .     A
C1474  O1498   1.282   .     A
C1474  C1483   1.408   .     S
C1475  O1499   1.280   .     A
C1475  O1501   1.284   .     A
C1475  C1477   1.404   .     S
C1476  C1478   1.404   .     S
C1476  O1500   1.281   .     A
C1476  O1502   1.283   .     A
C1478  C1349   1.329   1_655 S
C1478  H1362   1.088   1_655 S
C1479  C1484   1.400   .     A
C1479  O1505   1.386   .     S
C1480  O1510   1.385   .     S
C1480  C1483   1.399   .     A
C1480  C1674   1.386   .     S
C1481  C1483   1.400   .     A
C1481  O1515   1.383   .     S
C1481  C1671   1.382   .     S
C1482  C1484   1.404   .     A
C1482  O1520   1.385   .     S
C1485  N1494   1.372   .     A
C1485  N1525   1.415   .     S
C1486  N1531   1.419   .     S
C1486  N1493   1.374   .     A
C1486  C336    1.423   1_556 S
C1487  H1491   1.082   .     S
C1487  N1493   1.363   .     A
C1487  C333    1.420   1_556 S
C1488  H1492   1.082   .     S
C1488  N1494   1.363   .     A
H1489  C1349   1.086   1_655 S
N1493  Zn1503  2.017   .     S
N1494  Zn1504  2.017   .     S
O1495  Zn1503  1.990   .     S
O1496  Zn1504  1.990   .     S
O1497  Zn1504  1.978   .     S
O1498  Zn1503  1.978   .     S
O1499  Zn1503  1.972   .     S
O1500  Zn1504  1.972   .     S
O1501  Zn1504  1.981   .     S
O1502  Zn1503  1.981   .     S
O1505  C1506   1.412   .     S
C1506  H1507   1.107   .     S
C1506  H1509   1.110   .     S
C1506  H1508   1.108   .     S
O1510  C1511   1.411   .     S
C1511  H1514   1.108   .     S
C1511  H1513   1.114   .     S
C1511  H1512   1.107   .     S
O1515  C1516   1.414   .     S
C1516  H1519   1.109   .     S
C1516  H1518   1.117   .     S
C1516  H1517   1.104   .     S
O1520  C1521   1.414   .     S
C1521  H1524   1.109   .     S
C1521  H1522   1.115   .     S
C1521  H1523   1.105   .     S
N1525  H1526   1.032   .     S
N1525  C1527   1.446   .     S
C1527  H1528   1.111   .     S
C1527  H1529   1.112   .     S
C1527  H1530   1.107   .     S
N1531  H1532   1.031   .     S
N1531  C1533   1.448   .     S
C1533  H1536   1.112   .     S
C1533  H1534   1.110   .     S
C1533  H1535   1.111   .     S
C1537  O1561   1.282   .     A
C1537  C1548   1.405   .     S
C1537  O1559   1.281   .     A
C1538  O1560   1.282   .     A
C1538  O1562   1.282   .     A
C1538  C1547   1.408   .     S
C1539  O1563   1.280   .     A
C1539  O1565   1.284   .     A
C1539  C1541   1.404   .     S
C1540  C1542   1.404   .     S
C1540  O1564   1.281   .     A
C1540  O1566   1.283   .     A
C1541  C1670   1.329   1_455 S
C1541  H1681   1.086   1_455 S
C1542  C1605   1.329   .     S
C1542  H1618   1.088   .     S
C1543  C1548   1.400   .     A
C1543  O1569   1.386   .     S
C1544  O1574   1.385   .     S
C1544  C1547   1.399   .     A
C1544  C1162   1.386   1_565 S
C1545  C1547   1.400   .     A
C1545  O1579   1.383   .     S
C1545  C1159   1.382   1_565 S
C1546  C1548   1.404   .     A
C1546  O1584   1.385   .     S
C1549  N1558   1.372   .     A
C1549  N1589   1.415   .     S
C1550  N1595   1.419   .     S
C1550  N1557   1.374   .     A
C1550  C400    1.423   1_556 S
C1551  H1555   1.082   .     S
C1551  N1557   1.363   .     A
C1551  C397    1.420   1_556 S
C1552  H1556   1.082   .     S
C1552  N1558   1.363   .     A
H1553  C1605   1.086   .     S
H1554  C1670   1.088   1_455 S
N1557  Zn1567  2.017   .     S
N1558  Zn1568  2.017   .     S
O1559  Zn1567  1.990   .     S
O1560  Zn1568  1.990   .     S
O1561  Zn1568  1.978   .     S
O1562  Zn1567  1.978   .     S
O1563  Zn1567  1.972   .     S
O1564  Zn1568  1.972   .     S
O1565  Zn1568  1.981   .     S
O1566  Zn1567  1.981   .     S
O1569  C1570   1.412   .     S
C1570  H1571   1.107   .     S
C1570  H1573   1.110   .     S
C1570  H1572   1.108   .     S
O1574  C1575   1.411   .     S
C1575  H1578   1.108   .     S
C1575  H1577   1.114   .     S
C1575  H1576   1.107   .     S
O1579  C1580   1.414   .     S
C1580  H1583   1.109   .     S
C1580  H1582   1.117   .     S
C1580  H1581   1.104   .     S
O1584  C1585   1.414   .     S
C1585  H1588   1.109   .     S
C1585  H1586   1.115   .     S
C1585  H1587   1.105   .     S
N1589  H1590   1.032   .     S
N1589  C1591   1.446   .     S
C1591  H1592   1.111   .     S
C1591  H1593   1.112   .     S
C1591  H1594   1.107   .     S
N1595  H1596   1.031   .     S
N1595  C1597   1.448   .     S
C1597  H1600   1.112   .     S
C1597  H1598   1.110   .     S
C1597  H1599   1.111   .     S
C1601  O1625   1.282   .     A
C1601  C1612   1.405   .     S
C1601  O1623   1.281   .     A
C1602  O1624   1.282   .     A
C1602  O1626   1.282   .     A
C1602  C1611   1.408   .     S
C1603  O1627   1.280   .     A
C1603  O1629   1.284   .     A
C1603  C1605   1.404   .     S
C1604  C1606   1.404   .     S
C1604  O1628   1.281   .     A
C1604  O1630   1.283   .     A
C1606  C1669   1.329   .     S
C1606  H1682   1.088   .     S
C1607  C1612   1.400   .     A
C1607  O1633   1.386   .     S
C1608  O1638   1.385   .     S
C1608  C1611   1.399   .     A
C1608  C1226   1.386   1_565 S
C1609  C1611   1.400   .     A
C1609  O1643   1.383   .     S
C1609  C1223   1.382   1_565 S
C1610  C1612   1.404   .     A
C1610  O1648   1.385   .     S
C1613  N1622   1.372   .     A
C1613  N1653   1.415   .     S
C1614  N1659   1.419   .     S
C1614  N1621   1.374   .     A
C1614  C464    1.423   1_556 S
C1615  H1619   1.082   .     S
C1615  N1621   1.363   .     A
C1615  C461    1.420   1_556 S
C1616  H1620   1.082   .     S
C1616  N1622   1.363   .     A
H1617  C1669   1.086   .     S
N1621  Zn1631  2.017   .     S
N1622  Zn1632  2.017   .     S
O1623  Zn1631  1.990   .     S
O1624  Zn1632  1.990   .     S
O1625  Zn1632  1.978   .     S
O1626  Zn1631  1.978   .     S
O1627  Zn1631  1.972   .     S
O1628  Zn1632  1.972   .     S
O1629  Zn1632  1.981   .     S
O1630  Zn1631  1.981   .     S
O1633  C1634   1.412   .     S
C1634  H1635   1.107   .     S
C1634  H1637   1.110   .     S
C1634  H1636   1.108   .     S
O1638  C1639   1.411   .     S
C1639  H1642   1.108   .     S
C1639  H1641   1.114   .     S
C1639  H1640   1.107   .     S
O1643  C1644   1.414   .     S
C1644  H1647   1.109   .     S
C1644  H1646   1.117   .     S
C1644  H1645   1.104   .     S
O1648  C1649   1.414   .     S
C1649  H1652   1.109   .     S
C1649  H1650   1.115   .     S
C1649  H1651   1.105   .     S
N1653  H1654   1.032   .     S
N1653  C1655   1.446   .     S
C1655  H1656   1.111   .     S
C1655  H1657   1.112   .     S
C1655  H1658   1.107   .     S
N1659  H1660   1.031   .     S
N1659  C1661   1.448   .     S
C1661  H1664   1.112   .     S
C1661  H1662   1.110   .     S
C1661  H1663   1.111   .     S
C1665  O1689   1.282   .     A
C1665  C1676   1.405   .     S
C1665  O1687   1.281   .     A
C1666  O1688   1.282   .     A
C1666  O1690   1.282   .     A
C1666  C1675   1.408   .     S
C1667  O1691   1.280   .     A
C1667  O1693   1.284   .     A
C1667  C1669   1.404   .     S
C1668  C1670   1.404   .     S
C1668  O1692   1.281   .     A
C1668  O1694   1.283   .     A
C1670  C1541   1.329   1_655 S
C1670  H1554   1.088   1_655 S
C1671  C1676   1.400   .     A
C1671  O1697   1.386   .     S
C1672  O1702   1.385   .     S
C1672  C1675   1.399   .     A
C1672  C1290   1.386   1_565 S
C1673  C1675   1.400   .     A
C1673  O1707   1.383   .     S
C1673  C1287   1.382   1_565 S
C1674  C1676   1.404   .     A
C1674  O1712   1.385   .     S
C1677  N1686   1.372   .     A
C1677  N1717   1.415   .     S
C1678  N1723   1.419   .     S
C1678  N1685   1.374   .     A
C1678  C528    1.423   1_556 S
C1679  H1683   1.082   .     S
C1679  N1685   1.363   .     A
C1679  C525    1.420   1_556 S
C1680  H1684   1.082   .     S
C1680  N1686   1.363   .     A
H1681  C1541   1.086   1_655 S
N1685  Zn1695  2.017   .     S
N1686  Zn1696  2.017   .     S
O1687  Zn1695  1.990   .     S
O1688  Zn1696  1.990   .     S
O1689  Zn1696  1.978   .     S
O1690  Zn1695  1.978   .     S
O1691  Zn1695  1.972   .     S
O1692  Zn1696  1.972   .     S
O1693  Zn1696  1.981   .     S
O1694  Zn1695  1.981   .     S
O1697  C1698   1.412   .     S
C1698  H1699   1.107   .     S
C1698  H1701   1.110   .     S
C1698  H1700   1.108   .     S
O1702  C1703   1.411   .     S
C1703  H1706   1.108   .     S
C1703  H1705   1.114   .     S
C1703  H1704   1.107   .     S
O1707  C1708   1.414   .     S
C1708  H1711   1.109   .     S
C1708  H1710   1.117   .     S
C1708  H1709   1.104   .     S
O1712  C1713   1.414   .     S
C1713  H1716   1.109   .     S
C1713  H1714   1.115   .     S
C1713  H1715   1.105   .     S
N1717  H1718   1.032   .     S
N1717  C1719   1.446   .     S
C1719  H1720   1.111   .     S
C1719  H1721   1.112   .     S
C1719  H1722   1.107   .     S
N1723  H1724   1.031   .     S
N1723  C1725   1.448   .     S
C1725  H1728   1.112   .     S
C1725  H1726   1.110   .     S
C1725  H1727   1.111   .     S
