data_str_m2_o10_o18_pcu_sym.55
_audit_creation_date              2020-01-03
_audit_creation_method            'Materials Studio'
_symmetry_space_group_name_H-M    'P1'
_symmetry_Int_Tables_number       1
_symmetry_cell_setting            triclinic
loop_
_symmetry_equiv_pos_as_xyz
  x,y,z
_cell_length_a                    22.2281
_cell_length_b                    26.1783
_cell_length_c                    31.8387
_cell_angle_alpha                 94.3281
_cell_angle_beta                  75.0156
_cell_angle_gamma                 102.8892
loop_
_atom_site_label
_atom_site_type_symbol
_atom_site_fract_x
_atom_site_fract_y
_atom_site_fract_z
_atom_site_U_iso_or_equiv
_atom_site_adp_type
_atom_site_occupancy
O1     O     0.12815   0.23809   0.24686   0.00000  Uiso   1.00
O2     O     0.20518   0.09524   0.25314   0.00000  Uiso   1.00
O3     O     0.22829   0.24753   0.25503   0.00000  Uiso   1.00
O4     O     0.10504   0.08580   0.24498   0.00000  Uiso   1.00
C5     C     0.18104   0.26655   0.25202   0.00000  Uiso   1.00
C6     C     0.15229   0.06678   0.24798   0.00000  Uiso   1.00
O7     O     0.08851   0.15930   0.30855   0.00000  Uiso   1.00
O8     O     0.24482   0.17403   0.19146   0.00000  Uiso   1.00
O9     O     0.18866   0.16874   0.31671   0.00000  Uiso   1.00
O10    O     0.14468   0.16460   0.18329   0.00000  Uiso   1.00
C11    C     0.12827   0.16474   0.33314   0.00000  Uiso   1.00
C12    C     0.20506   0.16859   0.16686   0.00000  Uiso   1.00
Cu13   Cu    0.10737   0.16108   0.24517   0.00000  Uiso   1.00
Cu14   Cu    0.22596   0.17225   0.25484   0.00000  Uiso   1.00
C15    C     0.10516   0.16083   0.38076   0.00000  Uiso   1.00
C16    C     0.22817   0.17249   0.11924   0.00000  Uiso   1.00
C17    C     0.03183   0.10971   0.43983   0.00000  Uiso   1.00
C18    C     0.30156   0.22356   0.06016   0.00000  Uiso   1.00
C19    C     0.04573   0.12882   0.39818   0.00000  Uiso   1.00
C20    C     0.28764   0.20446   0.10181   0.00000  Uiso   1.00
C21    C     0.14711   0.18107   0.40778   0.00000  Uiso   1.00
C22    C     0.18621   0.15228   0.09222   0.00000  Uiso   1.00
C23    C     0.13160   0.16399   0.45149   0.00000  Uiso   1.00
C24    C     0.20177   0.16933   0.04849   0.00000  Uiso   1.00
C25    C     0.07629   0.12389   0.46501   0.00000  Uiso   1.00
C26    C     0.25710   0.20940   0.03497   0.00000  Uiso   1.00
C27    C     0.17130   0.18147   0.48108   0.00000  Uiso   1.00
C28    C     0.16208   0.15186   0.01891   0.00000  Uiso   1.00
C29    C     0.11438   0.10549   0.02523   0.00000  Uiso   1.00
C30    C     0.21901   0.22784   0.47475   0.00000  Uiso   1.00
C31    C     0.06886   0.09467   0.00140   0.00000  Uiso   1.00
C32    C     0.26455   0.23863   0.49858   0.00000  Uiso   1.00
H33    H     0.03015   0.06069   0.00955   0.00000  Uiso   1.00
H34    H     0.30327   0.27260   0.49043   0.00000  Uiso   1.00
H35    H     0.32045   0.21944   0.12196   0.00000  Uiso   1.00
H36    H     0.01292   0.11381   0.37803   0.00000  Uiso   1.00
H37    H     0.32161   0.08072   0.45110   0.00000  Uiso   1.00
H38    H     0.01180   0.25253   0.04888   0.00000  Uiso   1.00
H39    H     0.11156   0.07624   0.04807   0.00000  Uiso   1.00
H40    H     0.22184   0.25710   0.45193   0.00000  Uiso   1.00
C41    C     0.18436   0.32162   0.25901   0.00000  Uiso   1.00
C42    C     0.14897   0.01171   0.24099   0.00000  Uiso   1.00
N43    N     0.31506   0.18068   0.26212   0.00000  Uiso   1.00
N44    N     0.01827   0.15265   0.23788   0.00000  Uiso   1.00
H45    H     0.00147   0.20494   0.28422   0.00000  Uiso   1.00
H46    H     0.33186   0.12839   0.21578   0.00000  Uiso   1.00
N47    N     0.12457   0.12115   0.11158   0.00000  Uiso   1.00
O48    O     0.07373   0.13995   0.11595   0.00000  Uiso   1.00
O49    O     0.11991   0.07682   0.12942   0.00000  Uiso   1.00
N50    N     0.20868   0.21231   0.38842   0.00000  Uiso   1.00
O51    O     0.21319   0.25662   0.37060   0.00000  Uiso   1.00
O52    O     0.25961   0.19362   0.38401   0.00000  Uiso   1.00
N53    N     0.21715   0.01435   0.29090   0.00000  Uiso   1.00
O54    O     0.27541   0.01057   0.28823   0.00000  Uiso   1.00
O55    O     0.18598   0.03551   0.32567   0.00000  Uiso   1.00
N56    N     0.11618   0.31899   0.20910   0.00000  Uiso   1.00
O57    O     0.05793   0.32276   0.21177   0.00000  Uiso   1.00
O58    O     0.14736   0.29782   0.17433   0.00000  Uiso   1.00
O59    O     0.46148   0.23809   0.24686   0.00000  Uiso   1.00
O60    O     0.53852   0.09524   0.25314   0.00000  Uiso   1.00
O61    O     0.56163   0.24753   0.25503   0.00000  Uiso   1.00
O62    O     0.43837   0.08580   0.24498   0.00000  Uiso   1.00
C63    C     0.51437   0.26655   0.25202   0.00000  Uiso   1.00
C64    C     0.48563   0.06678   0.24798   0.00000  Uiso   1.00
O65    O     0.42185   0.15930   0.30855   0.00000  Uiso   1.00
O66    O     0.57815   0.17403   0.19146   0.00000  Uiso   1.00
O67    O     0.52199   0.16874   0.31671   0.00000  Uiso   1.00
O68    O     0.47801   0.16460   0.18329   0.00000  Uiso   1.00
C69    C     0.46160   0.16474   0.33314   0.00000  Uiso   1.00
C70    C     0.53840   0.16859   0.16686   0.00000  Uiso   1.00
Cu71   Cu    0.44071   0.16108   0.24517   0.00000  Uiso   1.00
Cu72   Cu    0.55929   0.17225   0.25484   0.00000  Uiso   1.00
C73    C     0.43849   0.16083   0.38076   0.00000  Uiso   1.00
C74    C     0.56151   0.17249   0.11924   0.00000  Uiso   1.00
C75    C     0.36516   0.10971   0.43983   0.00000  Uiso   1.00
C76    C     0.63490   0.22356   0.06016   0.00000  Uiso   1.00
C77    C     0.37906   0.12882   0.39818   0.00000  Uiso   1.00
C78    C     0.62097   0.20446   0.10181   0.00000  Uiso   1.00
C79    C     0.48045   0.18107   0.40778   0.00000  Uiso   1.00
C80    C     0.51955   0.15228   0.09222   0.00000  Uiso   1.00
C81    C     0.46494   0.16399   0.45149   0.00000  Uiso   1.00
C82    C     0.53510   0.16933   0.04849   0.00000  Uiso   1.00
C83    C     0.40962   0.12389   0.46501   0.00000  Uiso   1.00
C84    C     0.59044   0.20940   0.03497   0.00000  Uiso   1.00
C85    C     0.50463   0.18147   0.48108   0.00000  Uiso   1.00
C86    C     0.49542   0.15186   0.01891   0.00000  Uiso   1.00
C87    C     0.44771   0.10549   0.02523   0.00000  Uiso   1.00
C88    C     0.55235   0.22784   0.47475   0.00000  Uiso   1.00
C89    C     0.40219   0.09467   0.00140   0.00000  Uiso   1.00
C90    C     0.59789   0.23863   0.49858   0.00000  Uiso   1.00
H91    H     0.36349   0.06069   0.00955   0.00000  Uiso   1.00
H92    H     0.63660   0.27260   0.49043   0.00000  Uiso   1.00
H93    H     0.65378   0.21944   0.12196   0.00000  Uiso   1.00
H94    H     0.34626   0.11381   0.37803   0.00000  Uiso   1.00
H95    H     0.65494   0.08072   0.45110   0.00000  Uiso   1.00
H96    H     0.34514   0.25253   0.04888   0.00000  Uiso   1.00
H97    H     0.44489   0.07624   0.04807   0.00000  Uiso   1.00
H98    H     0.55518   0.25710   0.45193   0.00000  Uiso   1.00
C99    C     0.51770   0.32162   0.25901   0.00000  Uiso   1.00
C100   C     0.48230   0.01171   0.24099   0.00000  Uiso   1.00
N101   N     0.64839   0.18068   0.26212   0.00000  Uiso   1.00
N102   N     0.35161   0.15265   0.23788   0.00000  Uiso   1.00
H103   H     0.33480   0.20494   0.28422   0.00000  Uiso   1.00
H104   H     0.66520   0.12839   0.21578   0.00000  Uiso   1.00
N105   N     0.45791   0.12115   0.11158   0.00000  Uiso   1.00
O106   O     0.40706   0.13995   0.11595   0.00000  Uiso   1.00
O107   O     0.45324   0.07682   0.12942   0.00000  Uiso   1.00
N108   N     0.54201   0.21231   0.38842   0.00000  Uiso   1.00
O109   O     0.54652   0.25662   0.37060   0.00000  Uiso   1.00
O110   O     0.59295   0.19362   0.38401   0.00000  Uiso   1.00
N111   N     0.55049   0.01435   0.29090   0.00000  Uiso   1.00
O112   O     0.60874   0.01057   0.28823   0.00000  Uiso   1.00
O113   O     0.51931   0.03551   0.32567   0.00000  Uiso   1.00
N114   N     0.44951   0.31899   0.20910   0.00000  Uiso   1.00
O115   O     0.39126   0.32276   0.21177   0.00000  Uiso   1.00
O116   O     0.48069   0.29782   0.17433   0.00000  Uiso   1.00
O117   O     0.79482   0.23809   0.24686   0.00000  Uiso   1.00
O118   O     0.87185   0.09524   0.25314   0.00000  Uiso   1.00
O119   O     0.89496   0.24753   0.25503   0.00000  Uiso   1.00
O120   O     0.77171   0.08580   0.24498   0.00000  Uiso   1.00
C121   C     0.84771   0.26655   0.25202   0.00000  Uiso   1.00
C122   C     0.81896   0.06678   0.24798   0.00000  Uiso   1.00
O123   O     0.75518   0.15930   0.30855   0.00000  Uiso   1.00
O124   O     0.91149   0.17403   0.19146   0.00000  Uiso   1.00
O125   O     0.85532   0.16874   0.31671   0.00000  Uiso   1.00
O126   O     0.81134   0.16460   0.18329   0.00000  Uiso   1.00
C127   C     0.79493   0.16474   0.33314   0.00000  Uiso   1.00
C128   C     0.87173   0.16859   0.16686   0.00000  Uiso   1.00
Cu129  Cu    0.77404   0.16108   0.24517   0.00000  Uiso   1.00
Cu130  Cu    0.89263   0.17225   0.25484   0.00000  Uiso   1.00
C131   C     0.77183   0.16083   0.38076   0.00000  Uiso   1.00
C132   C     0.89484   0.17249   0.11924   0.00000  Uiso   1.00
C133   C     0.69850   0.10971   0.43983   0.00000  Uiso   1.00
C134   C     0.96823   0.22356   0.06016   0.00000  Uiso   1.00
C135   C     0.71240   0.12882   0.39818   0.00000  Uiso   1.00
C136   C     0.95430   0.20446   0.10181   0.00000  Uiso   1.00
C137   C     0.81378   0.18107   0.40778   0.00000  Uiso   1.00
C138   C     0.85288   0.15228   0.09222   0.00000  Uiso   1.00
C139   C     0.79827   0.16399   0.45149   0.00000  Uiso   1.00
C140   C     0.86843   0.16933   0.04849   0.00000  Uiso   1.00
C141   C     0.74296   0.12389   0.46501   0.00000  Uiso   1.00
C142   C     0.92377   0.20940   0.03497   0.00000  Uiso   1.00
C143   C     0.83796   0.18147   0.48108   0.00000  Uiso   1.00
C144   C     0.82875   0.15186   0.01891   0.00000  Uiso   1.00
C145   C     0.78105   0.10549   0.02523   0.00000  Uiso   1.00
C146   C     0.88568   0.22784   0.47475   0.00000  Uiso   1.00
C147   C     0.73552   0.09467   0.00140   0.00000  Uiso   1.00
C148   C     0.93122   0.23863   0.49858   0.00000  Uiso   1.00
H149   H     0.69682   0.06069   0.00955   0.00000  Uiso   1.00
H150   H     0.96993   0.27260   0.49043   0.00000  Uiso   1.00
H151   H     0.98712   0.21944   0.12196   0.00000  Uiso   1.00
H152   H     0.67959   0.11381   0.37803   0.00000  Uiso   1.00
H153   H     0.98828   0.08072   0.45110   0.00000  Uiso   1.00
H154   H     0.67847   0.25253   0.04888   0.00000  Uiso   1.00
H155   H     0.77822   0.07624   0.04807   0.00000  Uiso   1.00
H156   H     0.88851   0.25710   0.45193   0.00000  Uiso   1.00
C157   C     0.85103   0.32162   0.25901   0.00000  Uiso   1.00
C158   C     0.81564   0.01171   0.24099   0.00000  Uiso   1.00
N159   N     0.98173   0.18068   0.26212   0.00000  Uiso   1.00
N160   N     0.68494   0.15265   0.23788   0.00000  Uiso   1.00
H161   H     0.66814   0.20494   0.28422   0.00000  Uiso   1.00
H162   H     0.99853   0.12839   0.21578   0.00000  Uiso   1.00
N163   N     0.79124   0.12115   0.11158   0.00000  Uiso   1.00
O164   O     0.74039   0.13995   0.11595   0.00000  Uiso   1.00
O165   O     0.78658   0.07682   0.12942   0.00000  Uiso   1.00
N166   N     0.87534   0.21231   0.38842   0.00000  Uiso   1.00
O167   O     0.87985   0.25662   0.37060   0.00000  Uiso   1.00
O168   O     0.92628   0.19362   0.38401   0.00000  Uiso   1.00
N169   N     0.88382   0.01435   0.29090   0.00000  Uiso   1.00
O170   O     0.94207   0.01057   0.28823   0.00000  Uiso   1.00
O171   O     0.85264   0.03551   0.32567   0.00000  Uiso   1.00
N172   N     0.78285   0.31899   0.20910   0.00000  Uiso   1.00
O173   O     0.72459   0.32276   0.21177   0.00000  Uiso   1.00
O174   O     0.81402   0.29782   0.17433   0.00000  Uiso   1.00
O175   O     0.12815   0.57142   0.24686   0.00000  Uiso   1.00
O176   O     0.20518   0.42858   0.25314   0.00000  Uiso   1.00
O177   O     0.22829   0.58086   0.25503   0.00000  Uiso   1.00
O178   O     0.10504   0.41914   0.24498   0.00000  Uiso   1.00
C179   C     0.18104   0.59988   0.25202   0.00000  Uiso   1.00
C180   C     0.15229   0.40012   0.24798   0.00000  Uiso   1.00
O181   O     0.08851   0.49263   0.30855   0.00000  Uiso   1.00
O182   O     0.24482   0.50737   0.19146   0.00000  Uiso   1.00
O183   O     0.18866   0.50207   0.31671   0.00000  Uiso   1.00
O184   O     0.14468   0.49793   0.18329   0.00000  Uiso   1.00
C185   C     0.12827   0.49807   0.33314   0.00000  Uiso   1.00
C186   C     0.20506   0.50192   0.16686   0.00000  Uiso   1.00
Cu187  Cu    0.10737   0.49441   0.24517   0.00000  Uiso   1.00
Cu188  Cu    0.22596   0.50559   0.25484   0.00000  Uiso   1.00
C189   C     0.10516   0.49416   0.38076   0.00000  Uiso   1.00
C190   C     0.22817   0.50583   0.11924   0.00000  Uiso   1.00
C191   C     0.03183   0.44305   0.43983   0.00000  Uiso   1.00
C192   C     0.30156   0.55689   0.06016   0.00000  Uiso   1.00
C193   C     0.04573   0.46215   0.39818   0.00000  Uiso   1.00
C194   C     0.28764   0.53779   0.10181   0.00000  Uiso   1.00
C195   C     0.14711   0.51440   0.40778   0.00000  Uiso   1.00
C196   C     0.18621   0.48561   0.09222   0.00000  Uiso   1.00
C197   C     0.13160   0.49733   0.45149   0.00000  Uiso   1.00
C198   C     0.20177   0.50266   0.04849   0.00000  Uiso   1.00
C199   C     0.07629   0.45723   0.46501   0.00000  Uiso   1.00
C200   C     0.25710   0.54274   0.03497   0.00000  Uiso   1.00
C201   C     0.17130   0.51480   0.48108   0.00000  Uiso   1.00
C202   C     0.16208   0.48519   0.01891   0.00000  Uiso   1.00
C203   C     0.11438   0.43882   0.02523   0.00000  Uiso   1.00
C204   C     0.21901   0.56117   0.47475   0.00000  Uiso   1.00
C205   C     0.06886   0.42800   0.00140   0.00000  Uiso   1.00
C206   C     0.26455   0.57197   0.49858   0.00000  Uiso   1.00
H207   H     0.03015   0.39402   0.00955   0.00000  Uiso   1.00
H208   H     0.30327   0.60593   0.49043   0.00000  Uiso   1.00
H209   H     0.32045   0.55277   0.12196   0.00000  Uiso   1.00
H210   H     0.01292   0.44715   0.37803   0.00000  Uiso   1.00
H211   H     0.32161   0.41405   0.45110   0.00000  Uiso   1.00
H212   H     0.01180   0.58586   0.04888   0.00000  Uiso   1.00
H213   H     0.11156   0.40957   0.04807   0.00000  Uiso   1.00
H214   H     0.22184   0.59043   0.45193   0.00000  Uiso   1.00
C215   C     0.18436   0.65496   0.25901   0.00000  Uiso   1.00
C216   C     0.14897   0.34504   0.24099   0.00000  Uiso   1.00
N217   N     0.31506   0.51401   0.26212   0.00000  Uiso   1.00
N218   N     0.01827   0.48599   0.23788   0.00000  Uiso   1.00
H219   H     0.00147   0.53827   0.28422   0.00000  Uiso   1.00
H220   H     0.33186   0.46173   0.21578   0.00000  Uiso   1.00
N221   N     0.12457   0.45448   0.11158   0.00000  Uiso   1.00
O222   O     0.07373   0.47329   0.11595   0.00000  Uiso   1.00
O223   O     0.11991   0.41015   0.12942   0.00000  Uiso   1.00
N224   N     0.20868   0.54565   0.38842   0.00000  Uiso   1.00
O225   O     0.21319   0.58995   0.37060   0.00000  Uiso   1.00
O226   O     0.25961   0.52696   0.38401   0.00000  Uiso   1.00
N227   N     0.21715   0.34768   0.29090   0.00000  Uiso   1.00
O228   O     0.27541   0.34391   0.28823   0.00000  Uiso   1.00
O229   O     0.18598   0.36885   0.32567   0.00000  Uiso   1.00
N230   N     0.11618   0.65232   0.20910   0.00000  Uiso   1.00
O231   O     0.05793   0.65609   0.21177   0.00000  Uiso   1.00
O232   O     0.14736   0.63116   0.17433   0.00000  Uiso   1.00
O233   O     0.46148   0.57142   0.24686   0.00000  Uiso   1.00
O234   O     0.53852   0.42858   0.25314   0.00000  Uiso   1.00
O235   O     0.56163   0.58086   0.25503   0.00000  Uiso   1.00
O236   O     0.43837   0.41914   0.24498   0.00000  Uiso   1.00
C237   C     0.51437   0.59988   0.25202   0.00000  Uiso   1.00
C238   C     0.48563   0.40012   0.24798   0.00000  Uiso   1.00
O239   O     0.42185   0.49263   0.30855   0.00000  Uiso   1.00
O240   O     0.57815   0.50737   0.19146   0.00000  Uiso   1.00
O241   O     0.52199   0.50207   0.31671   0.00000  Uiso   1.00
O242   O     0.47801   0.49793   0.18329   0.00000  Uiso   1.00
C243   C     0.46160   0.49807   0.33314   0.00000  Uiso   1.00
C244   C     0.53840   0.50192   0.16686   0.00000  Uiso   1.00
Cu245  Cu    0.44071   0.49441   0.24517   0.00000  Uiso   1.00
Cu246  Cu    0.55929   0.50559   0.25484   0.00000  Uiso   1.00
C247   C     0.43849   0.49416   0.38076   0.00000  Uiso   1.00
C248   C     0.56151   0.50583   0.11924   0.00000  Uiso   1.00
C249   C     0.36516   0.44305   0.43983   0.00000  Uiso   1.00
C250   C     0.63490   0.55689   0.06016   0.00000  Uiso   1.00
C251   C     0.37906   0.46215   0.39818   0.00000  Uiso   1.00
C252   C     0.62097   0.53779   0.10181   0.00000  Uiso   1.00
C253   C     0.48045   0.51440   0.40778   0.00000  Uiso   1.00
C254   C     0.51955   0.48561   0.09222   0.00000  Uiso   1.00
C255   C     0.46494   0.49733   0.45149   0.00000  Uiso   1.00
C256   C     0.53510   0.50266   0.04849   0.00000  Uiso   1.00
C257   C     0.40962   0.45723   0.46501   0.00000  Uiso   1.00
C258   C     0.59044   0.54274   0.03497   0.00000  Uiso   1.00
C259   C     0.50463   0.51480   0.48108   0.00000  Uiso   1.00
C260   C     0.49542   0.48519   0.01891   0.00000  Uiso   1.00
C261   C     0.44771   0.43882   0.02523   0.00000  Uiso   1.00
C262   C     0.55235   0.56117   0.47475   0.00000  Uiso   1.00
C263   C     0.40219   0.42800   0.00140   0.00000  Uiso   1.00
C264   C     0.59789   0.57197   0.49858   0.00000  Uiso   1.00
H265   H     0.36349   0.39402   0.00955   0.00000  Uiso   1.00
H266   H     0.63660   0.60593   0.49043   0.00000  Uiso   1.00
H267   H     0.65378   0.55277   0.12196   0.00000  Uiso   1.00
H268   H     0.34626   0.44715   0.37803   0.00000  Uiso   1.00
H269   H     0.65494   0.41405   0.45110   0.00000  Uiso   1.00
H270   H     0.34514   0.58586   0.04888   0.00000  Uiso   1.00
H271   H     0.44489   0.40957   0.04807   0.00000  Uiso   1.00
H272   H     0.55518   0.59043   0.45193   0.00000  Uiso   1.00
C273   C     0.51770   0.65496   0.25901   0.00000  Uiso   1.00
C274   C     0.48230   0.34504   0.24099   0.00000  Uiso   1.00
N275   N     0.64839   0.51401   0.26212   0.00000  Uiso   1.00
N276   N     0.35161   0.48599   0.23788   0.00000  Uiso   1.00
H277   H     0.33480   0.53827   0.28422   0.00000  Uiso   1.00
H278   H     0.66520   0.46173   0.21578   0.00000  Uiso   1.00
N279   N     0.45791   0.45448   0.11158   0.00000  Uiso   1.00
O280   O     0.40706   0.47329   0.11595   0.00000  Uiso   1.00
O281   O     0.45324   0.41015   0.12942   0.00000  Uiso   1.00
N282   N     0.54201   0.54565   0.38842   0.00000  Uiso   1.00
O283   O     0.54652   0.58995   0.37060   0.00000  Uiso   1.00
O284   O     0.59295   0.52696   0.38401   0.00000  Uiso   1.00
N285   N     0.55049   0.34768   0.29090   0.00000  Uiso   1.00
O286   O     0.60874   0.34391   0.28823   0.00000  Uiso   1.00
O287   O     0.51931   0.36885   0.32567   0.00000  Uiso   1.00
N288   N     0.44951   0.65232   0.20910   0.00000  Uiso   1.00
O289   O     0.39126   0.65609   0.21177   0.00000  Uiso   1.00
O290   O     0.48069   0.63116   0.17433   0.00000  Uiso   1.00
O291   O     0.79482   0.57142   0.24686   0.00000  Uiso   1.00
O292   O     0.87185   0.42858   0.25314   0.00000  Uiso   1.00
O293   O     0.89496   0.58086   0.25503   0.00000  Uiso   1.00
O294   O     0.77171   0.41914   0.24498   0.00000  Uiso   1.00
C295   C     0.84771   0.59988   0.25202   0.00000  Uiso   1.00
C296   C     0.81896   0.40012   0.24798   0.00000  Uiso   1.00
O297   O     0.75518   0.49263   0.30855   0.00000  Uiso   1.00
O298   O     0.91149   0.50737   0.19146   0.00000  Uiso   1.00
O299   O     0.85532   0.50207   0.31671   0.00000  Uiso   1.00
O300   O     0.81134   0.49793   0.18329   0.00000  Uiso   1.00
C301   C     0.79493   0.49807   0.33314   0.00000  Uiso   1.00
C302   C     0.87173   0.50192   0.16686   0.00000  Uiso   1.00
Cu303  Cu    0.77404   0.49441   0.24517   0.00000  Uiso   1.00
Cu304  Cu    0.89263   0.50559   0.25484   0.00000  Uiso   1.00
C305   C     0.77183   0.49416   0.38076   0.00000  Uiso   1.00
C306   C     0.89484   0.50583   0.11924   0.00000  Uiso   1.00
C307   C     0.69850   0.44305   0.43983   0.00000  Uiso   1.00
C308   C     0.96823   0.55689   0.06016   0.00000  Uiso   1.00
C309   C     0.71240   0.46215   0.39818   0.00000  Uiso   1.00
C310   C     0.95430   0.53779   0.10181   0.00000  Uiso   1.00
C311   C     0.81378   0.51440   0.40778   0.00000  Uiso   1.00
C312   C     0.85288   0.48561   0.09222   0.00000  Uiso   1.00
C313   C     0.79827   0.49733   0.45149   0.00000  Uiso   1.00
C314   C     0.86843   0.50266   0.04849   0.00000  Uiso   1.00
C315   C     0.74296   0.45723   0.46501   0.00000  Uiso   1.00
C316   C     0.92377   0.54274   0.03497   0.00000  Uiso   1.00
C317   C     0.83796   0.51480   0.48108   0.00000  Uiso   1.00
C318   C     0.82875   0.48519   0.01891   0.00000  Uiso   1.00
C319   C     0.78105   0.43882   0.02523   0.00000  Uiso   1.00
C320   C     0.88568   0.56117   0.47475   0.00000  Uiso   1.00
C321   C     0.73552   0.42800   0.00140   0.00000  Uiso   1.00
C322   C     0.93122   0.57197   0.49858   0.00000  Uiso   1.00
H323   H     0.69682   0.39402   0.00955   0.00000  Uiso   1.00
H324   H     0.96993   0.60593   0.49043   0.00000  Uiso   1.00
H325   H     0.98712   0.55277   0.12196   0.00000  Uiso   1.00
H326   H     0.67959   0.44715   0.37803   0.00000  Uiso   1.00
H327   H     0.98828   0.41405   0.45110   0.00000  Uiso   1.00
H328   H     0.67847   0.58586   0.04888   0.00000  Uiso   1.00
H329   H     0.77822   0.40957   0.04807   0.00000  Uiso   1.00
H330   H     0.88851   0.59043   0.45193   0.00000  Uiso   1.00
C331   C     0.85103   0.65496   0.25901   0.00000  Uiso   1.00
C332   C     0.81564   0.34504   0.24099   0.00000  Uiso   1.00
N333   N     0.98173   0.51401   0.26212   0.00000  Uiso   1.00
N334   N     0.68494   0.48599   0.23788   0.00000  Uiso   1.00
H335   H     0.66814   0.53827   0.28422   0.00000  Uiso   1.00
H336   H     0.99853   0.46173   0.21578   0.00000  Uiso   1.00
N337   N     0.79124   0.45448   0.11158   0.00000  Uiso   1.00
O338   O     0.74039   0.47329   0.11595   0.00000  Uiso   1.00
O339   O     0.78658   0.41015   0.12942   0.00000  Uiso   1.00
N340   N     0.87534   0.54565   0.38842   0.00000  Uiso   1.00
O341   O     0.87985   0.58995   0.37060   0.00000  Uiso   1.00
O342   O     0.92628   0.52696   0.38401   0.00000  Uiso   1.00
N343   N     0.88382   0.34768   0.29090   0.00000  Uiso   1.00
O344   O     0.94207   0.34391   0.28823   0.00000  Uiso   1.00
O345   O     0.85264   0.36885   0.32567   0.00000  Uiso   1.00
N346   N     0.78285   0.65232   0.20910   0.00000  Uiso   1.00
O347   O     0.72459   0.65609   0.21177   0.00000  Uiso   1.00
O348   O     0.81402   0.63116   0.17433   0.00000  Uiso   1.00
O349   O     0.12815   0.90476   0.24686   0.00000  Uiso   1.00
O350   O     0.20518   0.76191   0.25314   0.00000  Uiso   1.00
O351   O     0.22829   0.91420   0.25503   0.00000  Uiso   1.00
O352   O     0.10504   0.75247   0.24498   0.00000  Uiso   1.00
C353   C     0.18104   0.93322   0.25202   0.00000  Uiso   1.00
C354   C     0.15229   0.73345   0.24798   0.00000  Uiso   1.00
O355   O     0.08851   0.82597   0.30855   0.00000  Uiso   1.00
O356   O     0.24482   0.84070   0.19146   0.00000  Uiso   1.00
O357   O     0.18866   0.83540   0.31671   0.00000  Uiso   1.00
O358   O     0.14468   0.83126   0.18329   0.00000  Uiso   1.00
C359   C     0.12827   0.83141   0.33314   0.00000  Uiso   1.00
C360   C     0.20506   0.83526   0.16686   0.00000  Uiso   1.00
Cu361  Cu    0.10737   0.82775   0.24517   0.00000  Uiso   1.00
Cu362  Cu    0.22596   0.83892   0.25484   0.00000  Uiso   1.00
C363   C     0.10516   0.82749   0.38076   0.00000  Uiso   1.00
C364   C     0.22817   0.83916   0.11924   0.00000  Uiso   1.00
C365   C     0.03183   0.77638   0.43983   0.00000  Uiso   1.00
C366   C     0.30156   0.89023   0.06016   0.00000  Uiso   1.00
C367   C     0.04573   0.79549   0.39818   0.00000  Uiso   1.00
C368   C     0.28764   0.87112   0.10181   0.00000  Uiso   1.00
C369   C     0.14711   0.84774   0.40778   0.00000  Uiso   1.00
C370   C     0.18621   0.81895   0.09222   0.00000  Uiso   1.00
C371   C     0.13160   0.83066   0.45149   0.00000  Uiso   1.00
C372   C     0.20177   0.83600   0.04849   0.00000  Uiso   1.00
C373   C     0.07629   0.79056   0.46501   0.00000  Uiso   1.00
C374   C     0.25710   0.87607   0.03497   0.00000  Uiso   1.00
C375   C     0.17130   0.84814   0.48108   0.00000  Uiso   1.00
C376   C     0.16208   0.81852   0.01891   0.00000  Uiso   1.00
C377   C     0.11438   0.77215   0.02523   0.00000  Uiso   1.00
C378   C     0.21901   0.89450   0.47475   0.00000  Uiso   1.00
C379   C     0.06886   0.76133   0.00140   0.00000  Uiso   1.00
C380   C     0.26455   0.90530   0.49858   0.00000  Uiso   1.00
H381   H     0.03015   0.72736   0.00955   0.00000  Uiso   1.00
H382   H     0.30327   0.93927   0.49043   0.00000  Uiso   1.00
H383   H     0.32045   0.88611   0.12196   0.00000  Uiso   1.00
H384   H     0.01292   0.78048   0.37803   0.00000  Uiso   1.00
H385   H     0.32161   0.74739   0.45110   0.00000  Uiso   1.00
H386   H     0.01180   0.91920   0.04888   0.00000  Uiso   1.00
H387   H     0.11156   0.74290   0.04807   0.00000  Uiso   1.00
H388   H     0.22184   0.92377   0.45193   0.00000  Uiso   1.00
C389   C     0.18436   0.98829   0.25901   0.00000  Uiso   1.00
C390   C     0.14897   0.67838   0.24099   0.00000  Uiso   1.00
N391   N     0.31506   0.84735   0.26212   0.00000  Uiso   1.00
N392   N     0.01827   0.81932   0.23788   0.00000  Uiso   1.00
H393   H     0.00147   0.87161   0.28422   0.00000  Uiso   1.00
H394   H     0.33186   0.79506   0.21578   0.00000  Uiso   1.00
N395   N     0.12457   0.78781   0.11158   0.00000  Uiso   1.00
O396   O     0.07373   0.80662   0.11595   0.00000  Uiso   1.00
O397   O     0.11991   0.74348   0.12942   0.00000  Uiso   1.00
N398   N     0.20868   0.87898   0.38842   0.00000  Uiso   1.00
O399   O     0.21319   0.92328   0.37060   0.00000  Uiso   1.00
O400   O     0.25961   0.86029   0.38401   0.00000  Uiso   1.00
N401   N     0.21715   0.68101   0.29090   0.00000  Uiso   1.00
O402   O     0.27541   0.67724   0.28823   0.00000  Uiso   1.00
O403   O     0.18598   0.70218   0.32567   0.00000  Uiso   1.00
N404   N     0.11618   0.98565   0.20910   0.00000  Uiso   1.00
O405   O     0.05793   0.98943   0.21177   0.00000  Uiso   1.00
O406   O     0.14736   0.96449   0.17433   0.00000  Uiso   1.00
O407   O     0.46148   0.90476   0.24686   0.00000  Uiso   1.00
O408   O     0.53852   0.76191   0.25314   0.00000  Uiso   1.00
O409   O     0.56163   0.91420   0.25503   0.00000  Uiso   1.00
O410   O     0.43837   0.75247   0.24498   0.00000  Uiso   1.00
C411   C     0.51437   0.93322   0.25202   0.00000  Uiso   1.00
C412   C     0.48563   0.73345   0.24798   0.00000  Uiso   1.00
O413   O     0.42185   0.82597   0.30855   0.00000  Uiso   1.00
O414   O     0.57815   0.84070   0.19146   0.00000  Uiso   1.00
O415   O     0.52199   0.83540   0.31671   0.00000  Uiso   1.00
O416   O     0.47801   0.83126   0.18329   0.00000  Uiso   1.00
C417   C     0.46160   0.83141   0.33314   0.00000  Uiso   1.00
C418   C     0.53840   0.83526   0.16686   0.00000  Uiso   1.00
Cu419  Cu    0.44071   0.82775   0.24517   0.00000  Uiso   1.00
Cu420  Cu    0.55929   0.83892   0.25484   0.00000  Uiso   1.00
C421   C     0.43849   0.82749   0.38076   0.00000  Uiso   1.00
C422   C     0.56151   0.83916   0.11924   0.00000  Uiso   1.00
C423   C     0.36516   0.77638   0.43983   0.00000  Uiso   1.00
C424   C     0.63490   0.89023   0.06016   0.00000  Uiso   1.00
C425   C     0.37906   0.79549   0.39818   0.00000  Uiso   1.00
C426   C     0.62097   0.87112   0.10181   0.00000  Uiso   1.00
C427   C     0.48045   0.84774   0.40778   0.00000  Uiso   1.00
C428   C     0.51955   0.81895   0.09222   0.00000  Uiso   1.00
C429   C     0.46494   0.83066   0.45149   0.00000  Uiso   1.00
C430   C     0.53510   0.83600   0.04849   0.00000  Uiso   1.00
C431   C     0.40962   0.79056   0.46501   0.00000  Uiso   1.00
C432   C     0.59044   0.87607   0.03497   0.00000  Uiso   1.00
C433   C     0.50463   0.84814   0.48108   0.00000  Uiso   1.00
C434   C     0.49542   0.81852   0.01891   0.00000  Uiso   1.00
C435   C     0.44771   0.77215   0.02523   0.00000  Uiso   1.00
C436   C     0.55235   0.89450   0.47475   0.00000  Uiso   1.00
C437   C     0.40219   0.76133   0.00140   0.00000  Uiso   1.00
C438   C     0.59789   0.90530   0.49858   0.00000  Uiso   1.00
H439   H     0.36349   0.72736   0.00955   0.00000  Uiso   1.00
H440   H     0.63660   0.93927   0.49043   0.00000  Uiso   1.00
H441   H     0.65378   0.88611   0.12196   0.00000  Uiso   1.00
H442   H     0.34626   0.78048   0.37803   0.00000  Uiso   1.00
H443   H     0.65494   0.74739   0.45110   0.00000  Uiso   1.00
H444   H     0.34514   0.91920   0.04888   0.00000  Uiso   1.00
H445   H     0.44489   0.74290   0.04807   0.00000  Uiso   1.00
H446   H     0.55518   0.92377   0.45193   0.00000  Uiso   1.00
C447   C     0.51770   0.98829   0.25901   0.00000  Uiso   1.00
C448   C     0.48230   0.67838   0.24099   0.00000  Uiso   1.00
N449   N     0.64839   0.84735   0.26212   0.00000  Uiso   1.00
N450   N     0.35161   0.81932   0.23788   0.00000  Uiso   1.00
H451   H     0.33480   0.87161   0.28422   0.00000  Uiso   1.00
H452   H     0.66520   0.79506   0.21578   0.00000  Uiso   1.00
N453   N     0.45791   0.78781   0.11158   0.00000  Uiso   1.00
O454   O     0.40706   0.80662   0.11595   0.00000  Uiso   1.00
O455   O     0.45324   0.74348   0.12942   0.00000  Uiso   1.00
N456   N     0.54201   0.87898   0.38842   0.00000  Uiso   1.00
O457   O     0.54652   0.92328   0.37060   0.00000  Uiso   1.00
O458   O     0.59295   0.86029   0.38401   0.00000  Uiso   1.00
N459   N     0.55049   0.68101   0.29090   0.00000  Uiso   1.00
O460   O     0.60874   0.67724   0.28823   0.00000  Uiso   1.00
O461   O     0.51931   0.70218   0.32567   0.00000  Uiso   1.00
N462   N     0.44951   0.98565   0.20910   0.00000  Uiso   1.00
O463   O     0.39126   0.98943   0.21177   0.00000  Uiso   1.00
O464   O     0.48069   0.96449   0.17433   0.00000  Uiso   1.00
O465   O     0.79482   0.90476   0.24686   0.00000  Uiso   1.00
O466   O     0.87185   0.76191   0.25314   0.00000  Uiso   1.00
O467   O     0.89496   0.91420   0.25503   0.00000  Uiso   1.00
O468   O     0.77171   0.75247   0.24498   0.00000  Uiso   1.00
C469   C     0.84771   0.93322   0.25202   0.00000  Uiso   1.00
C470   C     0.81896   0.73345   0.24798   0.00000  Uiso   1.00
O471   O     0.75518   0.82597   0.30855   0.00000  Uiso   1.00
O472   O     0.91149   0.84070   0.19146   0.00000  Uiso   1.00
O473   O     0.85532   0.83540   0.31671   0.00000  Uiso   1.00
O474   O     0.81134   0.83126   0.18329   0.00000  Uiso   1.00
C475   C     0.79493   0.83141   0.33314   0.00000  Uiso   1.00
C476   C     0.87173   0.83526   0.16686   0.00000  Uiso   1.00
Cu477  Cu    0.77404   0.82775   0.24517   0.00000  Uiso   1.00
Cu478  Cu    0.89263   0.83892   0.25484   0.00000  Uiso   1.00
C479   C     0.77183   0.82749   0.38076   0.00000  Uiso   1.00
C480   C     0.89484   0.83916   0.11924   0.00000  Uiso   1.00
C481   C     0.69850   0.77638   0.43983   0.00000  Uiso   1.00
C482   C     0.96823   0.89023   0.06016   0.00000  Uiso   1.00
C483   C     0.71240   0.79549   0.39818   0.00000  Uiso   1.00
C484   C     0.95430   0.87112   0.10181   0.00000  Uiso   1.00
C485   C     0.81378   0.84774   0.40778   0.00000  Uiso   1.00
C486   C     0.85288   0.81895   0.09222   0.00000  Uiso   1.00
C487   C     0.79827   0.83066   0.45149   0.00000  Uiso   1.00
C488   C     0.86843   0.83600   0.04849   0.00000  Uiso   1.00
C489   C     0.74296   0.79056   0.46501   0.00000  Uiso   1.00
C490   C     0.92377   0.87607   0.03497   0.00000  Uiso   1.00
C491   C     0.83796   0.84814   0.48108   0.00000  Uiso   1.00
C492   C     0.82875   0.81852   0.01891   0.00000  Uiso   1.00
C493   C     0.78105   0.77215   0.02523   0.00000  Uiso   1.00
C494   C     0.88568   0.89450   0.47475   0.00000  Uiso   1.00
C495   C     0.73552   0.76133   0.00140   0.00000  Uiso   1.00
C496   C     0.93122   0.90530   0.49858   0.00000  Uiso   1.00
H497   H     0.69682   0.72736   0.00955   0.00000  Uiso   1.00
H498   H     0.96993   0.93927   0.49043   0.00000  Uiso   1.00
H499   H     0.98712   0.88611   0.12196   0.00000  Uiso   1.00
H500   H     0.67959   0.78048   0.37803   0.00000  Uiso   1.00
H501   H     0.98828   0.74739   0.45110   0.00000  Uiso   1.00
H502   H     0.67847   0.91920   0.04888   0.00000  Uiso   1.00
H503   H     0.77822   0.74290   0.04807   0.00000  Uiso   1.00
H504   H     0.88851   0.92377   0.45193   0.00000  Uiso   1.00
C505   C     0.85103   0.98829   0.25901   0.00000  Uiso   1.00
C506   C     0.81564   0.67838   0.24099   0.00000  Uiso   1.00
N507   N     0.98173   0.84735   0.26212   0.00000  Uiso   1.00
N508   N     0.68494   0.81932   0.23788   0.00000  Uiso   1.00
H509   H     0.66814   0.87161   0.28422   0.00000  Uiso   1.00
H510   H     0.99853   0.79506   0.21578   0.00000  Uiso   1.00
N511   N     0.79124   0.78781   0.11158   0.00000  Uiso   1.00
O512   O     0.74039   0.80662   0.11595   0.00000  Uiso   1.00
O513   O     0.78658   0.74348   0.12942   0.00000  Uiso   1.00
N514   N     0.87534   0.87898   0.38842   0.00000  Uiso   1.00
O515   O     0.87985   0.92328   0.37060   0.00000  Uiso   1.00
O516   O     0.92628   0.86029   0.38401   0.00000  Uiso   1.00
N517   N     0.88382   0.68101   0.29090   0.00000  Uiso   1.00
O518   O     0.94207   0.67724   0.28823   0.00000  Uiso   1.00
O519   O     0.85264   0.70218   0.32567   0.00000  Uiso   1.00
N520   N     0.78285   0.98565   0.20910   0.00000  Uiso   1.00
O521   O     0.72459   0.98943   0.21177   0.00000  Uiso   1.00
O522   O     0.81402   0.96449   0.17433   0.00000  Uiso   1.00
O523   O     0.12815   0.23809   0.74686   0.00000  Uiso   1.00
O524   O     0.20518   0.09524   0.75314   0.00000  Uiso   1.00
O525   O     0.22829   0.24753   0.75503   0.00000  Uiso   1.00
O526   O     0.10504   0.08580   0.74498   0.00000  Uiso   1.00
C527   C     0.18104   0.26655   0.75202   0.00000  Uiso   1.00
C528   C     0.15229   0.06678   0.74798   0.00000  Uiso   1.00
O529   O     0.08851   0.15930   0.80855   0.00000  Uiso   1.00
O530   O     0.24482   0.17403   0.69146   0.00000  Uiso   1.00
O531   O     0.18866   0.16874   0.81671   0.00000  Uiso   1.00
O532   O     0.14468   0.16460   0.68329   0.00000  Uiso   1.00
C533   C     0.12827   0.16474   0.83314   0.00000  Uiso   1.00
C534   C     0.20506   0.16859   0.66686   0.00000  Uiso   1.00
Cu535  Cu    0.10737   0.16108   0.74517   0.00000  Uiso   1.00
Cu536  Cu    0.22596   0.17225   0.75484   0.00000  Uiso   1.00
C537   C     0.10516   0.16083   0.88076   0.00000  Uiso   1.00
C538   C     0.22817   0.17249   0.61924   0.00000  Uiso   1.00
C539   C     0.03183   0.10971   0.93983   0.00000  Uiso   1.00
C540   C     0.30156   0.22356   0.56016   0.00000  Uiso   1.00
C541   C     0.04573   0.12882   0.89818   0.00000  Uiso   1.00
C542   C     0.28764   0.20446   0.60181   0.00000  Uiso   1.00
C543   C     0.14711   0.18107   0.90778   0.00000  Uiso   1.00
C544   C     0.18621   0.15228   0.59222   0.00000  Uiso   1.00
C545   C     0.13160   0.16399   0.95149   0.00000  Uiso   1.00
C546   C     0.20177   0.16933   0.54849   0.00000  Uiso   1.00
C547   C     0.07629   0.12389   0.96501   0.00000  Uiso   1.00
C548   C     0.25710   0.20940   0.53497   0.00000  Uiso   1.00
C549   C     0.17130   0.18147   0.98108   0.00000  Uiso   1.00
C550   C     0.16208   0.15186   0.51891   0.00000  Uiso   1.00
C551   C     0.11438   0.10549   0.52523   0.00000  Uiso   1.00
C552   C     0.21901   0.22784   0.97475   0.00000  Uiso   1.00
C553   C     0.06886   0.09467   0.50140   0.00000  Uiso   1.00
C554   C     0.26455   0.23863   0.99858   0.00000  Uiso   1.00
H555   H     0.03015   0.06069   0.50955   0.00000  Uiso   1.00
H556   H     0.30327   0.27260   0.99043   0.00000  Uiso   1.00
H557   H     0.32045   0.21944   0.62196   0.00000  Uiso   1.00
H558   H     0.01292   0.11381   0.87803   0.00000  Uiso   1.00
H559   H     0.32161   0.08072   0.95110   0.00000  Uiso   1.00
H560   H     0.01180   0.25253   0.54888   0.00000  Uiso   1.00
H561   H     0.11156   0.07624   0.54807   0.00000  Uiso   1.00
H562   H     0.22184   0.25710   0.95193   0.00000  Uiso   1.00
C563   C     0.18436   0.32162   0.75901   0.00000  Uiso   1.00
C564   C     0.14897   0.01171   0.74099   0.00000  Uiso   1.00
N565   N     0.31506   0.18068   0.76212   0.00000  Uiso   1.00
N566   N     0.01827   0.15265   0.73788   0.00000  Uiso   1.00
H567   H     0.00147   0.20494   0.78422   0.00000  Uiso   1.00
H568   H     0.33186   0.12839   0.71578   0.00000  Uiso   1.00
N569   N     0.12457   0.12115   0.61158   0.00000  Uiso   1.00
O570   O     0.07373   0.13995   0.61595   0.00000  Uiso   1.00
O571   O     0.11991   0.07682   0.62942   0.00000  Uiso   1.00
N572   N     0.20868   0.21231   0.88842   0.00000  Uiso   1.00
O573   O     0.21319   0.25662   0.87060   0.00000  Uiso   1.00
O574   O     0.25961   0.19362   0.88401   0.00000  Uiso   1.00
N575   N     0.21715   0.01435   0.79090   0.00000  Uiso   1.00
O576   O     0.27541   0.01057   0.78823   0.00000  Uiso   1.00
O577   O     0.18598   0.03551   0.82567   0.00000  Uiso   1.00
N578   N     0.11618   0.31899   0.70910   0.00000  Uiso   1.00
O579   O     0.05793   0.32276   0.71177   0.00000  Uiso   1.00
O580   O     0.14736   0.29782   0.67433   0.00000  Uiso   1.00
O581   O     0.46148   0.23809   0.74686   0.00000  Uiso   1.00
O582   O     0.53852   0.09524   0.75314   0.00000  Uiso   1.00
O583   O     0.56163   0.24753   0.75503   0.00000  Uiso   1.00
O584   O     0.43837   0.08580   0.74498   0.00000  Uiso   1.00
C585   C     0.51437   0.26655   0.75202   0.00000  Uiso   1.00
C586   C     0.48563   0.06678   0.74798   0.00000  Uiso   1.00
O587   O     0.42185   0.15930   0.80855   0.00000  Uiso   1.00
O588   O     0.57815   0.17403   0.69146   0.00000  Uiso   1.00
O589   O     0.52199   0.16874   0.81671   0.00000  Uiso   1.00
O590   O     0.47801   0.16460   0.68329   0.00000  Uiso   1.00
C591   C     0.46160   0.16474   0.83314   0.00000  Uiso   1.00
C592   C     0.53840   0.16859   0.66686   0.00000  Uiso   1.00
Cu593  Cu    0.44071   0.16108   0.74517   0.00000  Uiso   1.00
Cu594  Cu    0.55929   0.17225   0.75484   0.00000  Uiso   1.00
C595   C     0.43849   0.16083   0.88076   0.00000  Uiso   1.00
C596   C     0.56151   0.17249   0.61924   0.00000  Uiso   1.00
C597   C     0.36516   0.10971   0.93983   0.00000  Uiso   1.00
C598   C     0.63490   0.22356   0.56016   0.00000  Uiso   1.00
C599   C     0.37906   0.12882   0.89818   0.00000  Uiso   1.00
C600   C     0.62097   0.20446   0.60181   0.00000  Uiso   1.00
C601   C     0.48045   0.18107   0.90778   0.00000  Uiso   1.00
C602   C     0.51955   0.15228   0.59222   0.00000  Uiso   1.00
C603   C     0.46494   0.16399   0.95149   0.00000  Uiso   1.00
C604   C     0.53510   0.16933   0.54849   0.00000  Uiso   1.00
C605   C     0.40962   0.12389   0.96501   0.00000  Uiso   1.00
C606   C     0.59044   0.20940   0.53497   0.00000  Uiso   1.00
C607   C     0.50463   0.18147   0.98108   0.00000  Uiso   1.00
C608   C     0.49542   0.15186   0.51891   0.00000  Uiso   1.00
C609   C     0.44771   0.10549   0.52523   0.00000  Uiso   1.00
C610   C     0.55235   0.22784   0.97475   0.00000  Uiso   1.00
C611   C     0.40219   0.09467   0.50140   0.00000  Uiso   1.00
C612   C     0.59789   0.23863   0.99858   0.00000  Uiso   1.00
H613   H     0.36349   0.06069   0.50955   0.00000  Uiso   1.00
H614   H     0.63660   0.27260   0.99043   0.00000  Uiso   1.00
H615   H     0.65378   0.21944   0.62196   0.00000  Uiso   1.00
H616   H     0.34626   0.11381   0.87803   0.00000  Uiso   1.00
H617   H     0.65494   0.08072   0.95110   0.00000  Uiso   1.00
H618   H     0.34514   0.25253   0.54888   0.00000  Uiso   1.00
H619   H     0.44489   0.07624   0.54807   0.00000  Uiso   1.00
H620   H     0.55518   0.25710   0.95193   0.00000  Uiso   1.00
C621   C     0.51770   0.32162   0.75901   0.00000  Uiso   1.00
C622   C     0.48230   0.01171   0.74099   0.00000  Uiso   1.00
N623   N     0.64839   0.18068   0.76212   0.00000  Uiso   1.00
N624   N     0.35161   0.15265   0.73788   0.00000  Uiso   1.00
H625   H     0.33480   0.20494   0.78422   0.00000  Uiso   1.00
H626   H     0.66520   0.12839   0.71578   0.00000  Uiso   1.00
N627   N     0.45791   0.12115   0.61158   0.00000  Uiso   1.00
O628   O     0.40706   0.13995   0.61595   0.00000  Uiso   1.00
O629   O     0.45324   0.07682   0.62942   0.00000  Uiso   1.00
N630   N     0.54201   0.21231   0.88842   0.00000  Uiso   1.00
O631   O     0.54652   0.25662   0.87060   0.00000  Uiso   1.00
O632   O     0.59295   0.19362   0.88401   0.00000  Uiso   1.00
N633   N     0.55049   0.01435   0.79090   0.00000  Uiso   1.00
O634   O     0.60874   0.01057   0.78823   0.00000  Uiso   1.00
O635   O     0.51931   0.03551   0.82567   0.00000  Uiso   1.00
N636   N     0.44951   0.31899   0.70910   0.00000  Uiso   1.00
O637   O     0.39126   0.32276   0.71177   0.00000  Uiso   1.00
O638   O     0.48069   0.29782   0.67433   0.00000  Uiso   1.00
O639   O     0.79482   0.23809   0.74686   0.00000  Uiso   1.00
O640   O     0.87185   0.09524   0.75314   0.00000  Uiso   1.00
O641   O     0.89496   0.24753   0.75503   0.00000  Uiso   1.00
O642   O     0.77171   0.08580   0.74498   0.00000  Uiso   1.00
C643   C     0.84771   0.26655   0.75202   0.00000  Uiso   1.00
C644   C     0.81896   0.06678   0.74798   0.00000  Uiso   1.00
O645   O     0.75518   0.15930   0.80855   0.00000  Uiso   1.00
O646   O     0.91149   0.17403   0.69146   0.00000  Uiso   1.00
O647   O     0.85532   0.16874   0.81671   0.00000  Uiso   1.00
O648   O     0.81134   0.16460   0.68329   0.00000  Uiso   1.00
C649   C     0.79493   0.16474   0.83314   0.00000  Uiso   1.00
C650   C     0.87173   0.16859   0.66686   0.00000  Uiso   1.00
Cu651  Cu    0.77404   0.16108   0.74517   0.00000  Uiso   1.00
Cu652  Cu    0.89263   0.17225   0.75484   0.00000  Uiso   1.00
C653   C     0.77183   0.16083   0.88076   0.00000  Uiso   1.00
C654   C     0.89484   0.17249   0.61924   0.00000  Uiso   1.00
C655   C     0.69850   0.10971   0.93983   0.00000  Uiso   1.00
C656   C     0.96823   0.22356   0.56016   0.00000  Uiso   1.00
C657   C     0.71240   0.12882   0.89818   0.00000  Uiso   1.00
C658   C     0.95430   0.20446   0.60181   0.00000  Uiso   1.00
C659   C     0.81378   0.18107   0.90778   0.00000  Uiso   1.00
C660   C     0.85288   0.15228   0.59222   0.00000  Uiso   1.00
C661   C     0.79827   0.16399   0.95149   0.00000  Uiso   1.00
C662   C     0.86843   0.16933   0.54849   0.00000  Uiso   1.00
C663   C     0.74296   0.12389   0.96501   0.00000  Uiso   1.00
C664   C     0.92377   0.20940   0.53497   0.00000  Uiso   1.00
C665   C     0.83796   0.18147   0.98108   0.00000  Uiso   1.00
C666   C     0.82875   0.15186   0.51891   0.00000  Uiso   1.00
C667   C     0.78105   0.10549   0.52523   0.00000  Uiso   1.00
C668   C     0.88568   0.22784   0.97475   0.00000  Uiso   1.00
C669   C     0.73552   0.09467   0.50140   0.00000  Uiso   1.00
C670   C     0.93122   0.23863   0.99858   0.00000  Uiso   1.00
H671   H     0.69682   0.06069   0.50955   0.00000  Uiso   1.00
H672   H     0.96993   0.27260   0.99043   0.00000  Uiso   1.00
H673   H     0.98712   0.21944   0.62196   0.00000  Uiso   1.00
H674   H     0.67959   0.11381   0.87803   0.00000  Uiso   1.00
H675   H     0.98828   0.08072   0.95110   0.00000  Uiso   1.00
H676   H     0.67847   0.25253   0.54888   0.00000  Uiso   1.00
H677   H     0.77822   0.07624   0.54807   0.00000  Uiso   1.00
H678   H     0.88851   0.25710   0.95193   0.00000  Uiso   1.00
C679   C     0.85103   0.32162   0.75901   0.00000  Uiso   1.00
C680   C     0.81564   0.01171   0.74099   0.00000  Uiso   1.00
N681   N     0.98173   0.18068   0.76212   0.00000  Uiso   1.00
N682   N     0.68494   0.15265   0.73788   0.00000  Uiso   1.00
H683   H     0.66814   0.20494   0.78422   0.00000  Uiso   1.00
H684   H     0.99853   0.12839   0.71578   0.00000  Uiso   1.00
N685   N     0.79124   0.12115   0.61158   0.00000  Uiso   1.00
O686   O     0.74039   0.13995   0.61595   0.00000  Uiso   1.00
O687   O     0.78658   0.07682   0.62942   0.00000  Uiso   1.00
N688   N     0.87534   0.21231   0.88842   0.00000  Uiso   1.00
O689   O     0.87985   0.25662   0.87060   0.00000  Uiso   1.00
O690   O     0.92628   0.19362   0.88401   0.00000  Uiso   1.00
N691   N     0.88382   0.01435   0.79090   0.00000  Uiso   1.00
O692   O     0.94207   0.01057   0.78823   0.00000  Uiso   1.00
O693   O     0.85264   0.03551   0.82567   0.00000  Uiso   1.00
N694   N     0.78285   0.31899   0.70910   0.00000  Uiso   1.00
O695   O     0.72459   0.32276   0.71177   0.00000  Uiso   1.00
O696   O     0.81402   0.29782   0.67433   0.00000  Uiso   1.00
O697   O     0.12815   0.57142   0.74686   0.00000  Uiso   1.00
O698   O     0.20518   0.42858   0.75314   0.00000  Uiso   1.00
O699   O     0.22829   0.58086   0.75503   0.00000  Uiso   1.00
O700   O     0.10504   0.41914   0.74498   0.00000  Uiso   1.00
C701   C     0.18104   0.59988   0.75202   0.00000  Uiso   1.00
C702   C     0.15229   0.40012   0.74798   0.00000  Uiso   1.00
O703   O     0.08851   0.49263   0.80855   0.00000  Uiso   1.00
O704   O     0.24482   0.50737   0.69146   0.00000  Uiso   1.00
O705   O     0.18866   0.50207   0.81671   0.00000  Uiso   1.00
O706   O     0.14468   0.49793   0.68329   0.00000  Uiso   1.00
C707   C     0.12827   0.49807   0.83314   0.00000  Uiso   1.00
C708   C     0.20506   0.50192   0.66686   0.00000  Uiso   1.00
Cu709  Cu    0.10737   0.49441   0.74517   0.00000  Uiso   1.00
Cu710  Cu    0.22596   0.50559   0.75484   0.00000  Uiso   1.00
C711   C     0.10516   0.49416   0.88076   0.00000  Uiso   1.00
C712   C     0.22817   0.50583   0.61924   0.00000  Uiso   1.00
C713   C     0.03183   0.44305   0.93983   0.00000  Uiso   1.00
C714   C     0.30156   0.55689   0.56016   0.00000  Uiso   1.00
C715   C     0.04573   0.46215   0.89818   0.00000  Uiso   1.00
C716   C     0.28764   0.53779   0.60181   0.00000  Uiso   1.00
C717   C     0.14711   0.51440   0.90778   0.00000  Uiso   1.00
C718   C     0.18621   0.48561   0.59222   0.00000  Uiso   1.00
C719   C     0.13160   0.49733   0.95149   0.00000  Uiso   1.00
C720   C     0.20177   0.50266   0.54849   0.00000  Uiso   1.00
C721   C     0.07629   0.45723   0.96501   0.00000  Uiso   1.00
C722   C     0.25710   0.54274   0.53497   0.00000  Uiso   1.00
C723   C     0.17130   0.51480   0.98108   0.00000  Uiso   1.00
C724   C     0.16208   0.48519   0.51891   0.00000  Uiso   1.00
C725   C     0.11438   0.43882   0.52523   0.00000  Uiso   1.00
C726   C     0.21901   0.56117   0.97475   0.00000  Uiso   1.00
C727   C     0.06886   0.42800   0.50140   0.00000  Uiso   1.00
C728   C     0.26455   0.57197   0.99858   0.00000  Uiso   1.00
H729   H     0.03015   0.39402   0.50955   0.00000  Uiso   1.00
H730   H     0.30327   0.60593   0.99043   0.00000  Uiso   1.00
H731   H     0.32045   0.55277   0.62196   0.00000  Uiso   1.00
H732   H     0.01292   0.44715   0.87803   0.00000  Uiso   1.00
H733   H     0.32161   0.41405   0.95110   0.00000  Uiso   1.00
H734   H     0.01180   0.58586   0.54888   0.00000  Uiso   1.00
H735   H     0.11156   0.40957   0.54807   0.00000  Uiso   1.00
H736   H     0.22184   0.59043   0.95193   0.00000  Uiso   1.00
C737   C     0.18436   0.65496   0.75901   0.00000  Uiso   1.00
C738   C     0.14897   0.34504   0.74099   0.00000  Uiso   1.00
N739   N     0.31506   0.51401   0.76212   0.00000  Uiso   1.00
N740   N     0.01827   0.48599   0.73788   0.00000  Uiso   1.00
H741   H     0.00147   0.53827   0.78422   0.00000  Uiso   1.00
H742   H     0.33186   0.46173   0.71578   0.00000  Uiso   1.00
N743   N     0.12457   0.45448   0.61158   0.00000  Uiso   1.00
O744   O     0.07373   0.47329   0.61595   0.00000  Uiso   1.00
O745   O     0.11991   0.41015   0.62942   0.00000  Uiso   1.00
N746   N     0.20868   0.54565   0.88842   0.00000  Uiso   1.00
O747   O     0.21319   0.58995   0.87060   0.00000  Uiso   1.00
O748   O     0.25961   0.52696   0.88401   0.00000  Uiso   1.00
N749   N     0.21715   0.34768   0.79090   0.00000  Uiso   1.00
O750   O     0.27541   0.34391   0.78823   0.00000  Uiso   1.00
O751   O     0.18598   0.36885   0.82567   0.00000  Uiso   1.00
N752   N     0.11618   0.65232   0.70910   0.00000  Uiso   1.00
O753   O     0.05793   0.65609   0.71177   0.00000  Uiso   1.00
O754   O     0.14736   0.63116   0.67433   0.00000  Uiso   1.00
O755   O     0.46148   0.57142   0.74686   0.00000  Uiso   1.00
O756   O     0.53852   0.42858   0.75314   0.00000  Uiso   1.00
O757   O     0.56163   0.58086   0.75503   0.00000  Uiso   1.00
O758   O     0.43837   0.41914   0.74498   0.00000  Uiso   1.00
C759   C     0.51437   0.59988   0.75202   0.00000  Uiso   1.00
C760   C     0.48563   0.40012   0.74798   0.00000  Uiso   1.00
O761   O     0.42185   0.49263   0.80855   0.00000  Uiso   1.00
O762   O     0.57815   0.50737   0.69146   0.00000  Uiso   1.00
O763   O     0.52199   0.50207   0.81671   0.00000  Uiso   1.00
O764   O     0.47801   0.49793   0.68329   0.00000  Uiso   1.00
C765   C     0.46160   0.49807   0.83314   0.00000  Uiso   1.00
C766   C     0.53840   0.50192   0.66686   0.00000  Uiso   1.00
Cu767  Cu    0.44071   0.49441   0.74517   0.00000  Uiso   1.00
Cu768  Cu    0.55929   0.50559   0.75484   0.00000  Uiso   1.00
C769   C     0.43849   0.49416   0.88076   0.00000  Uiso   1.00
C770   C     0.56151   0.50583   0.61924   0.00000  Uiso   1.00
C771   C     0.36516   0.44305   0.93983   0.00000  Uiso   1.00
C772   C     0.63490   0.55689   0.56016   0.00000  Uiso   1.00
C773   C     0.37906   0.46215   0.89818   0.00000  Uiso   1.00
C774   C     0.62097   0.53779   0.60181   0.00000  Uiso   1.00
C775   C     0.48045   0.51440   0.90778   0.00000  Uiso   1.00
C776   C     0.51955   0.48561   0.59222   0.00000  Uiso   1.00
C777   C     0.46494   0.49733   0.95149   0.00000  Uiso   1.00
C778   C     0.53510   0.50266   0.54849   0.00000  Uiso   1.00
C779   C     0.40962   0.45723   0.96501   0.00000  Uiso   1.00
C780   C     0.59044   0.54274   0.53497   0.00000  Uiso   1.00
C781   C     0.50463   0.51480   0.98108   0.00000  Uiso   1.00
C782   C     0.49542   0.48519   0.51891   0.00000  Uiso   1.00
C783   C     0.44771   0.43882   0.52523   0.00000  Uiso   1.00
C784   C     0.55235   0.56117   0.97475   0.00000  Uiso   1.00
C785   C     0.40219   0.42800   0.50140   0.00000  Uiso   1.00
C786   C     0.59789   0.57197   0.99858   0.00000  Uiso   1.00
H787   H     0.36349   0.39402   0.50955   0.00000  Uiso   1.00
H788   H     0.63660   0.60593   0.99043   0.00000  Uiso   1.00
H789   H     0.65378   0.55277   0.62196   0.00000  Uiso   1.00
H790   H     0.34626   0.44715   0.87803   0.00000  Uiso   1.00
H791   H     0.65494   0.41405   0.95110   0.00000  Uiso   1.00
H792   H     0.34514   0.58586   0.54888   0.00000  Uiso   1.00
H793   H     0.44489   0.40957   0.54807   0.00000  Uiso   1.00
H794   H     0.55518   0.59043   0.95193   0.00000  Uiso   1.00
C795   C     0.51770   0.65496   0.75901   0.00000  Uiso   1.00
C796   C     0.48230   0.34504   0.74099   0.00000  Uiso   1.00
N797   N     0.64839   0.51401   0.76212   0.00000  Uiso   1.00
N798   N     0.35161   0.48599   0.73788   0.00000  Uiso   1.00
H799   H     0.33480   0.53827   0.78422   0.00000  Uiso   1.00
H800   H     0.66520   0.46173   0.71578   0.00000  Uiso   1.00
N801   N     0.45791   0.45448   0.61158   0.00000  Uiso   1.00
O802   O     0.40706   0.47329   0.61595   0.00000  Uiso   1.00
O803   O     0.45324   0.41015   0.62942   0.00000  Uiso   1.00
N804   N     0.54201   0.54565   0.88842   0.00000  Uiso   1.00
O805   O     0.54652   0.58995   0.87060   0.00000  Uiso   1.00
O806   O     0.59295   0.52696   0.88401   0.00000  Uiso   1.00
N807   N     0.55049   0.34768   0.79090   0.00000  Uiso   1.00
O808   O     0.60874   0.34391   0.78823   0.00000  Uiso   1.00
O809   O     0.51931   0.36885   0.82567   0.00000  Uiso   1.00
N810   N     0.44951   0.65232   0.70910   0.00000  Uiso   1.00
O811   O     0.39126   0.65609   0.71177   0.00000  Uiso   1.00
O812   O     0.48069   0.63116   0.67433   0.00000  Uiso   1.00
O813   O     0.79482   0.57142   0.74686   0.00000  Uiso   1.00
O814   O     0.87185   0.42858   0.75314   0.00000  Uiso   1.00
O815   O     0.89496   0.58086   0.75503   0.00000  Uiso   1.00
O816   O     0.77171   0.41914   0.74498   0.00000  Uiso   1.00
C817   C     0.84771   0.59988   0.75202   0.00000  Uiso   1.00
C818   C     0.81896   0.40012   0.74798   0.00000  Uiso   1.00
O819   O     0.75518   0.49263   0.80855   0.00000  Uiso   1.00
O820   O     0.91149   0.50737   0.69146   0.00000  Uiso   1.00
O821   O     0.85532   0.50207   0.81671   0.00000  Uiso   1.00
O822   O     0.81134   0.49793   0.68329   0.00000  Uiso   1.00
C823   C     0.79493   0.49807   0.83314   0.00000  Uiso   1.00
C824   C     0.87173   0.50192   0.66686   0.00000  Uiso   1.00
Cu825  Cu    0.77404   0.49441   0.74517   0.00000  Uiso   1.00
Cu826  Cu    0.89263   0.50559   0.75484   0.00000  Uiso   1.00
C827   C     0.77183   0.49416   0.88076   0.00000  Uiso   1.00
C828   C     0.89484   0.50583   0.61924   0.00000  Uiso   1.00
C829   C     0.69850   0.44305   0.93983   0.00000  Uiso   1.00
C830   C     0.96823   0.55689   0.56016   0.00000  Uiso   1.00
C831   C     0.71240   0.46215   0.89818   0.00000  Uiso   1.00
C832   C     0.95430   0.53779   0.60181   0.00000  Uiso   1.00
C833   C     0.81378   0.51440   0.90778   0.00000  Uiso   1.00
C834   C     0.85288   0.48561   0.59222   0.00000  Uiso   1.00
C835   C     0.79827   0.49733   0.95149   0.00000  Uiso   1.00
C836   C     0.86843   0.50266   0.54849   0.00000  Uiso   1.00
C837   C     0.74296   0.45723   0.96501   0.00000  Uiso   1.00
C838   C     0.92377   0.54274   0.53497   0.00000  Uiso   1.00
C839   C     0.83796   0.51480   0.98108   0.00000  Uiso   1.00
C840   C     0.82875   0.48519   0.51891   0.00000  Uiso   1.00
C841   C     0.78105   0.43882   0.52523   0.00000  Uiso   1.00
C842   C     0.88568   0.56117   0.97475   0.00000  Uiso   1.00
C843   C     0.73552   0.42800   0.50140   0.00000  Uiso   1.00
C844   C     0.93122   0.57197   0.99858   0.00000  Uiso   1.00
H845   H     0.69682   0.39402   0.50955   0.00000  Uiso   1.00
H846   H     0.96993   0.60593   0.99043   0.00000  Uiso   1.00
H847   H     0.98712   0.55277   0.62196   0.00000  Uiso   1.00
H848   H     0.67959   0.44715   0.87803   0.00000  Uiso   1.00
H849   H     0.98828   0.41405   0.95110   0.00000  Uiso   1.00
H850   H     0.67847   0.58586   0.54888   0.00000  Uiso   1.00
H851   H     0.77822   0.40957   0.54807   0.00000  Uiso   1.00
H852   H     0.88851   0.59043   0.95193   0.00000  Uiso   1.00
C853   C     0.85103   0.65496   0.75901   0.00000  Uiso   1.00
C854   C     0.81564   0.34504   0.74099   0.00000  Uiso   1.00
N855   N     0.98173   0.51401   0.76212   0.00000  Uiso   1.00
N856   N     0.68494   0.48599   0.73788   0.00000  Uiso   1.00
H857   H     0.66814   0.53827   0.78422   0.00000  Uiso   1.00
H858   H     0.99853   0.46173   0.71578   0.00000  Uiso   1.00
N859   N     0.79124   0.45448   0.61158   0.00000  Uiso   1.00
O860   O     0.74039   0.47329   0.61595   0.00000  Uiso   1.00
O861   O     0.78658   0.41015   0.62942   0.00000  Uiso   1.00
N862   N     0.87534   0.54565   0.88842   0.00000  Uiso   1.00
O863   O     0.87985   0.58995   0.87060   0.00000  Uiso   1.00
O864   O     0.92628   0.52696   0.88401   0.00000  Uiso   1.00
N865   N     0.88382   0.34768   0.79090   0.00000  Uiso   1.00
O866   O     0.94207   0.34391   0.78823   0.00000  Uiso   1.00
O867   O     0.85264   0.36885   0.82567   0.00000  Uiso   1.00
N868   N     0.78285   0.65232   0.70910   0.00000  Uiso   1.00
O869   O     0.72459   0.65609   0.71177   0.00000  Uiso   1.00
O870   O     0.81402   0.63116   0.67433   0.00000  Uiso   1.00
O871   O     0.12815   0.90476   0.74686   0.00000  Uiso   1.00
O872   O     0.20518   0.76191   0.75314   0.00000  Uiso   1.00
O873   O     0.22829   0.91420   0.75503   0.00000  Uiso   1.00
O874   O     0.10504   0.75247   0.74498   0.00000  Uiso   1.00
C875   C     0.18104   0.93322   0.75202   0.00000  Uiso   1.00
C876   C     0.15229   0.73345   0.74798   0.00000  Uiso   1.00
O877   O     0.08851   0.82597   0.80855   0.00000  Uiso   1.00
O878   O     0.24482   0.84070   0.69146   0.00000  Uiso   1.00
O879   O     0.18866   0.83540   0.81671   0.00000  Uiso   1.00
O880   O     0.14468   0.83126   0.68329   0.00000  Uiso   1.00
C881   C     0.12827   0.83141   0.83314   0.00000  Uiso   1.00
C882   C     0.20506   0.83526   0.66686   0.00000  Uiso   1.00
Cu883  Cu    0.10737   0.82775   0.74517   0.00000  Uiso   1.00
Cu884  Cu    0.22596   0.83892   0.75484   0.00000  Uiso   1.00
C885   C     0.10516   0.82749   0.88076   0.00000  Uiso   1.00
C886   C     0.22817   0.83916   0.61924   0.00000  Uiso   1.00
C887   C     0.03183   0.77638   0.93983   0.00000  Uiso   1.00
C888   C     0.30156   0.89023   0.56016   0.00000  Uiso   1.00
C889   C     0.04573   0.79549   0.89818   0.00000  Uiso   1.00
C890   C     0.28764   0.87112   0.60181   0.00000  Uiso   1.00
C891   C     0.14711   0.84774   0.90778   0.00000  Uiso   1.00
C892   C     0.18621   0.81895   0.59222   0.00000  Uiso   1.00
C893   C     0.13160   0.83066   0.95149   0.00000  Uiso   1.00
C894   C     0.20177   0.83600   0.54849   0.00000  Uiso   1.00
C895   C     0.07629   0.79056   0.96501   0.00000  Uiso   1.00
C896   C     0.25710   0.87607   0.53497   0.00000  Uiso   1.00
C897   C     0.17130   0.84814   0.98108   0.00000  Uiso   1.00
C898   C     0.16208   0.81852   0.51891   0.00000  Uiso   1.00
C899   C     0.11438   0.77215   0.52523   0.00000  Uiso   1.00
C900   C     0.21901   0.89450   0.97475   0.00000  Uiso   1.00
C901   C     0.06886   0.76133   0.50140   0.00000  Uiso   1.00
C902   C     0.26455   0.90530   0.99858   0.00000  Uiso   1.00
H903   H     0.03015   0.72736   0.50955   0.00000  Uiso   1.00
H904   H     0.30327   0.93927   0.99043   0.00000  Uiso   1.00
H905   H     0.32045   0.88611   0.62196   0.00000  Uiso   1.00
H906   H     0.01292   0.78048   0.87803   0.00000  Uiso   1.00
H907   H     0.32161   0.74739   0.95110   0.00000  Uiso   1.00
H908   H     0.01180   0.91920   0.54888   0.00000  Uiso   1.00
H909   H     0.11156   0.74290   0.54807   0.00000  Uiso   1.00
H910   H     0.22184   0.92377   0.95193   0.00000  Uiso   1.00
C911   C     0.18436   0.98829   0.75901   0.00000  Uiso   1.00
C912   C     0.14897   0.67838   0.74099   0.00000  Uiso   1.00
N913   N     0.31506   0.84735   0.76212   0.00000  Uiso   1.00
N914   N     0.01827   0.81932   0.73788   0.00000  Uiso   1.00
H915   H     0.00147   0.87161   0.78422   0.00000  Uiso   1.00
H916   H     0.33186   0.79506   0.71578   0.00000  Uiso   1.00
N917   N     0.12457   0.78781   0.61158   0.00000  Uiso   1.00
O918   O     0.07373   0.80662   0.61595   0.00000  Uiso   1.00
O919   O     0.11991   0.74348   0.62942   0.00000  Uiso   1.00
N920   N     0.20868   0.87898   0.88842   0.00000  Uiso   1.00
O921   O     0.21319   0.92328   0.87060   0.00000  Uiso   1.00
O922   O     0.25961   0.86029   0.88401   0.00000  Uiso   1.00
N923   N     0.21715   0.68101   0.79090   0.00000  Uiso   1.00
O924   O     0.27541   0.67724   0.78823   0.00000  Uiso   1.00
O925   O     0.18598   0.70218   0.82567   0.00000  Uiso   1.00
N926   N     0.11618   0.98565   0.70910   0.00000  Uiso   1.00
O927   O     0.05793   0.98943   0.71177   0.00000  Uiso   1.00
O928   O     0.14736   0.96449   0.67433   0.00000  Uiso   1.00
O929   O     0.46148   0.90476   0.74686   0.00000  Uiso   1.00
O930   O     0.53852   0.76191   0.75314   0.00000  Uiso   1.00
O931   O     0.56163   0.91420   0.75503   0.00000  Uiso   1.00
O932   O     0.43837   0.75247   0.74498   0.00000  Uiso   1.00
C933   C     0.51437   0.93322   0.75202   0.00000  Uiso   1.00
C934   C     0.48563   0.73345   0.74798   0.00000  Uiso   1.00
O935   O     0.42185   0.82597   0.80855   0.00000  Uiso   1.00
O936   O     0.57815   0.84070   0.69146   0.00000  Uiso   1.00
O937   O     0.52199   0.83540   0.81671   0.00000  Uiso   1.00
O938   O     0.47801   0.83126   0.68329   0.00000  Uiso   1.00
C939   C     0.46160   0.83141   0.83314   0.00000  Uiso   1.00
C940   C     0.53840   0.83526   0.66686   0.00000  Uiso   1.00
Cu941  Cu    0.44071   0.82775   0.74517   0.00000  Uiso   1.00
Cu942  Cu    0.55929   0.83892   0.75484   0.00000  Uiso   1.00
C943   C     0.43849   0.82749   0.88076   0.00000  Uiso   1.00
C944   C     0.56151   0.83916   0.61924   0.00000  Uiso   1.00
C945   C     0.36516   0.77638   0.93983   0.00000  Uiso   1.00
C946   C     0.63490   0.89023   0.56016   0.00000  Uiso   1.00
C947   C     0.37906   0.79549   0.89818   0.00000  Uiso   1.00
C948   C     0.62097   0.87112   0.60181   0.00000  Uiso   1.00
C949   C     0.48045   0.84774   0.90778   0.00000  Uiso   1.00
C950   C     0.51955   0.81895   0.59222   0.00000  Uiso   1.00
C951   C     0.46494   0.83066   0.95149   0.00000  Uiso   1.00
C952   C     0.53510   0.83600   0.54849   0.00000  Uiso   1.00
C953   C     0.40962   0.79056   0.96501   0.00000  Uiso   1.00
C954   C     0.59044   0.87607   0.53497   0.00000  Uiso   1.00
C955   C     0.50463   0.84814   0.98108   0.00000  Uiso   1.00
C956   C     0.49542   0.81852   0.51891   0.00000  Uiso   1.00
C957   C     0.44771   0.77215   0.52523   0.00000  Uiso   1.00
C958   C     0.55235   0.89450   0.97475   0.00000  Uiso   1.00
C959   C     0.40219   0.76133   0.50140   0.00000  Uiso   1.00
C960   C     0.59789   0.90530   0.99858   0.00000  Uiso   1.00
H961   H     0.36349   0.72736   0.50955   0.00000  Uiso   1.00
H962   H     0.63660   0.93927   0.99043   0.00000  Uiso   1.00
H963   H     0.65378   0.88611   0.62196   0.00000  Uiso   1.00
H964   H     0.34626   0.78048   0.87803   0.00000  Uiso   1.00
H965   H     0.65494   0.74739   0.95110   0.00000  Uiso   1.00
H966   H     0.34514   0.91920   0.54888   0.00000  Uiso   1.00
H967   H     0.44489   0.74290   0.54807   0.00000  Uiso   1.00
H968   H     0.55518   0.92377   0.95193   0.00000  Uiso   1.00
C969   C     0.51770   0.98829   0.75901   0.00000  Uiso   1.00
C970   C     0.48230   0.67838   0.74099   0.00000  Uiso   1.00
N971   N     0.64839   0.84735   0.76212   0.00000  Uiso   1.00
N972   N     0.35161   0.81932   0.73788   0.00000  Uiso   1.00
H973   H     0.33480   0.87161   0.78422   0.00000  Uiso   1.00
H974   H     0.66520   0.79506   0.71578   0.00000  Uiso   1.00
N975   N     0.45791   0.78781   0.61158   0.00000  Uiso   1.00
O976   O     0.40706   0.80662   0.61595   0.00000  Uiso   1.00
O977   O     0.45324   0.74348   0.62942   0.00000  Uiso   1.00
N978   N     0.54201   0.87898   0.88842   0.00000  Uiso   1.00
O979   O     0.54652   0.92328   0.87060   0.00000  Uiso   1.00
O980   O     0.59295   0.86029   0.88401   0.00000  Uiso   1.00
N981   N     0.55049   0.68101   0.79090   0.00000  Uiso   1.00
O982   O     0.60874   0.67724   0.78823   0.00000  Uiso   1.00
O983   O     0.51931   0.70218   0.82567   0.00000  Uiso   1.00
N984   N     0.44951   0.98565   0.70910   0.00000  Uiso   1.00
O985   O     0.39126   0.98943   0.71177   0.00000  Uiso   1.00
O986   O     0.48069   0.96449   0.67433   0.00000  Uiso   1.00
O987   O     0.79482   0.90476   0.74686   0.00000  Uiso   1.00
O988   O     0.87185   0.76191   0.75314   0.00000  Uiso   1.00
O989   O     0.89496   0.91420   0.75503   0.00000  Uiso   1.00
O990   O     0.77171   0.75247   0.74498   0.00000  Uiso   1.00
C991   C     0.84771   0.93322   0.75202   0.00000  Uiso   1.00
C992   C     0.81896   0.73345   0.74798   0.00000  Uiso   1.00
O993   O     0.75518   0.82597   0.80855   0.00000  Uiso   1.00
O994   O     0.91149   0.84070   0.69146   0.00000  Uiso   1.00
O995   O     0.85532   0.83540   0.81671   0.00000  Uiso   1.00
O996   O     0.81134   0.83126   0.68329   0.00000  Uiso   1.00
C997   C     0.79493   0.83141   0.83314   0.00000  Uiso   1.00
C998   C     0.87173   0.83526   0.66686   0.00000  Uiso   1.00
Cu999  Cu    0.77404   0.82775   0.74517   0.00000  Uiso   1.00
Cu1000 Cu    0.89263   0.83892   0.75484   0.00000  Uiso   1.00
C1001  C     0.77183   0.82749   0.88076   0.00000  Uiso   1.00
C1002  C     0.89484   0.83916   0.61924   0.00000  Uiso   1.00
C1003  C     0.69850   0.77638   0.93983   0.00000  Uiso   1.00
C1004  C     0.96823   0.89023   0.56016   0.00000  Uiso   1.00
C1005  C     0.71240   0.79549   0.89818   0.00000  Uiso   1.00
C1006  C     0.95430   0.87112   0.60181   0.00000  Uiso   1.00
C1007  C     0.81378   0.84774   0.90778   0.00000  Uiso   1.00
C1008  C     0.85288   0.81895   0.59222   0.00000  Uiso   1.00
C1009  C     0.79827   0.83066   0.95149   0.00000  Uiso   1.00
C1010  C     0.86843   0.83600   0.54849   0.00000  Uiso   1.00
C1011  C     0.74296   0.79056   0.96501   0.00000  Uiso   1.00
C1012  C     0.92377   0.87607   0.53497   0.00000  Uiso   1.00
C1013  C     0.83796   0.84814   0.98108   0.00000  Uiso   1.00
C1014  C     0.82875   0.81852   0.51891   0.00000  Uiso   1.00
C1015  C     0.78105   0.77215   0.52523   0.00000  Uiso   1.00
C1016  C     0.88568   0.89450   0.97475   0.00000  Uiso   1.00
C1017  C     0.73552   0.76133   0.50140   0.00000  Uiso   1.00
C1018  C     0.93122   0.90530   0.99858   0.00000  Uiso   1.00
H1019  H     0.69682   0.72736   0.50955   0.00000  Uiso   1.00
H1020  H     0.96993   0.93927   0.99043   0.00000  Uiso   1.00
H1021  H     0.98712   0.88611   0.62196   0.00000  Uiso   1.00
H1022  H     0.67959   0.78048   0.87803   0.00000  Uiso   1.00
H1023  H     0.98828   0.74739   0.95110   0.00000  Uiso   1.00
H1024  H     0.67847   0.91920   0.54888   0.00000  Uiso   1.00
H1025  H     0.77822   0.74290   0.54807   0.00000  Uiso   1.00
H1026  H     0.88851   0.92377   0.95193   0.00000  Uiso   1.00
C1027  C     0.85103   0.98829   0.75901   0.00000  Uiso   1.00
C1028  C     0.81564   0.67838   0.74099   0.00000  Uiso   1.00
N1029  N     0.98173   0.84735   0.76212   0.00000  Uiso   1.00
N1030  N     0.68494   0.81932   0.73788   0.00000  Uiso   1.00
H1031  H     0.66814   0.87161   0.78422   0.00000  Uiso   1.00
H1032  H     0.99853   0.79506   0.71578   0.00000  Uiso   1.00
N1033  N     0.79124   0.78781   0.61158   0.00000  Uiso   1.00
O1034  O     0.74039   0.80662   0.61595   0.00000  Uiso   1.00
O1035  O     0.78658   0.74348   0.62942   0.00000  Uiso   1.00
N1036  N     0.87534   0.87898   0.88842   0.00000  Uiso   1.00
O1037  O     0.87985   0.92328   0.87060   0.00000  Uiso   1.00
O1038  O     0.92628   0.86029   0.88401   0.00000  Uiso   1.00
N1039  N     0.88382   0.68101   0.79090   0.00000  Uiso   1.00
O1040  O     0.94207   0.67724   0.78823   0.00000  Uiso   1.00
O1041  O     0.85264   0.70218   0.82567   0.00000  Uiso   1.00
N1042  N     0.78285   0.98565   0.70910   0.00000  Uiso   1.00
O1043  O     0.72459   0.98943   0.71177   0.00000  Uiso   1.00
O1044  O     0.81402   0.96449   0.67433   0.00000  Uiso   1.00
loop_
_geom_bond_atom_site_label_1
_geom_bond_atom_site_label_2
_geom_bond_distance
_geom_bond_site_symmetry_2
_ccdc_geom_bond_type
O1     C5      1.286   .     A
O1     Cu13    1.965   .     S
O2     C6      1.286   .     A
O2     Cu14    1.965   .     S
O3     C5      1.286   .     A
O3     Cu14    1.959   .     S
O4     C6      1.286   .     A
O4     Cu13    1.959   .     S
C5     C41     1.430   .     S
C6     C42     1.430   .     S
O7     Cu13    1.954   .     S
O7     C11     1.304   .     A
O8     C12     1.304   .     A
O8     Cu14    1.954   .     S
O9     Cu14    1.930   .     S
O9     C11     1.292   .     A
O10    C12     1.292   .     A
O10    Cu13    1.930   .     S
C11    C15     1.473   .     S
C12    C16     1.473   .     S
Cu13   Cu14    2.682   .     S
Cu13   N44     2.015   .     S
Cu14   N43     2.015   .     S
C15    C21     1.420   .     A
C15    C19     1.397   .     A
C16    C22     1.420   .     A
C16    C20     1.397   .     A
C17    C25     1.399   .     A
C17    C19     1.387   .     A
C17    H153    1.084   1_455 S
C18    C26     1.399   .     A
C18    C20     1.387   .     A
C18    H96     1.084   .     S
C19    H36     1.084   .     S
C20    H35     1.084   .     S
C21    C23     1.426   .     A
C21    N50     1.436   .     S
C22    N47     1.436   .     S
C22    C24     1.426   .     A
C23    C27     1.435   .     A
C23    C25     1.420   .     A
C24    C28     1.435   .     A
C24    C26     1.420   .     A
C25    C553    1.390   .     S
C26    C554    1.390   1_554 S
C27    C30     1.411   .     A
C27    C550    1.427   .     S
C28    C29     1.411   .     A
C28    C549    1.427   1_554 S
C29    H39     1.076   .     S
C29    C31     1.385   .     A
C30    C32     1.385   .     A
C30    H40     1.076   .     S
C31    H33     1.085   .     S
C31    C547    1.390   1_554 S
C32    H34     1.085   .     S
C32    C548    1.390   .     S
H37    C75     1.084   .     S
H38    C134    1.084   1_455 S
C41    C216    1.351   .     S
C41    N227    1.443   .     S
C42    C389    1.351   1_545 S
C42    N404    1.443   1_545 S
N43    N102    1.285   .     S
N43    H103    1.029   .     S
N44    N159    1.285   1_455 S
N44    H162    1.029   1_455 S
H45    N159    1.029   1_455 S
H46    N102    1.029   .     S
N47    O48     1.302   .     A
N47    O49     1.302   .     A
N50    O52     1.302   .     A
N50    O51     1.302   .     A
N53    O55     1.302   .     A
N53    O54     1.301   .     A
N53    C389    1.443   1_545 S
N56    O58     1.302   .     A
N56    O57     1.301   .     A
N56    C216    1.443   .     S
O59    C63     1.286   .     A
O59    Cu71    1.965   .     S
O60    C64     1.286   .     A
O60    Cu72    1.965   .     S
O61    C63     1.286   .     A
O61    Cu72    1.959   .     S
O62    C64     1.286   .     A
O62    Cu71    1.959   .     S
C63    C99     1.430   .     S
C64    C100    1.430   .     S
O65    Cu71    1.954   .     S
O65    C69     1.304   .     A
O66    C70     1.304   .     A
O66    Cu72    1.954   .     S
O67    Cu72    1.930   .     S
O67    C69     1.292   .     A
O68    C70     1.292   .     A
O68    Cu71    1.930   .     S
C69    C73     1.473   .     S
C70    C74     1.473   .     S
Cu71   Cu72    2.682   .     S
Cu71   N102    2.015   .     S
Cu72   N101    2.015   .     S
C73    C79     1.420   .     A
C73    C77     1.397   .     A
C74    C80     1.420   .     A
C74    C78     1.397   .     A
C75    C83     1.399   .     A
C75    C77     1.387   .     A
C76    C84     1.399   .     A
C76    C78     1.387   .     A
C76    H154    1.084   .     S
C77    H94     1.084   .     S
C78    H93     1.084   .     S
C79    C81     1.426   .     A
C79    N108    1.436   .     S
C80    N105    1.436   .     S
C80    C82     1.426   .     A
C81    C85     1.435   .     A
C81    C83     1.420   .     A
C82    C86     1.435   .     A
C82    C84     1.420   .     A
C83    C611    1.390   .     S
C84    C612    1.390   1_554 S
C85    C88     1.411   .     A
C85    C608    1.427   .     S
C86    C87     1.411   .     A
C86    C607    1.427   1_554 S
C87    H97     1.076   .     S
C87    C89     1.385   .     A
C88    C90     1.385   .     A
C88    H98     1.076   .     S
C89    H91     1.085   .     S
C89    C605    1.390   1_554 S
C90    H92     1.085   .     S
C90    C606    1.390   .     S
H95    C133    1.084   .     S
C99    C274    1.351   .     S
C99    N285    1.443   .     S
C100   C447    1.351   1_545 S
C100   N462    1.443   1_545 S
N101   N160    1.285   .     S
N101   H161    1.029   .     S
H104   N160    1.029   .     S
N105   O106    1.302   .     A
N105   O107    1.302   .     A
N108   O110    1.302   .     A
N108   O109    1.302   .     A
N111   O113    1.302   .     A
N111   O112    1.301   .     A
N111   C447    1.443   1_545 S
N114   O116    1.302   .     A
N114   O115    1.301   .     A
N114   C274    1.443   .     S
O117   C121    1.286   .     A
O117   Cu129   1.965   .     S
O118   C122    1.286   .     A
O118   Cu130   1.965   .     S
O119   C121    1.286   .     A
O119   Cu130   1.959   .     S
O120   C122    1.286   .     A
O120   Cu129   1.959   .     S
C121   C157    1.430   .     S
C122   C158    1.430   .     S
O123   Cu129   1.954   .     S
O123   C127    1.304   .     A
O124   C128    1.304   .     A
O124   Cu130   1.954   .     S
O125   Cu130   1.930   .     S
O125   C127    1.292   .     A
O126   C128    1.292   .     A
O126   Cu129   1.930   .     S
C127   C131    1.473   .     S
C128   C132    1.473   .     S
Cu129  Cu130   2.682   .     S
Cu129  N160    2.015   .     S
Cu130  N159    2.015   .     S
C131   C137    1.420   .     A
C131   C135    1.397   .     A
C132   C138    1.420   .     A
C132   C136    1.397   .     A
C133   C141    1.399   .     A
C133   C135    1.387   .     A
C134   C142    1.399   .     A
C134   C136    1.387   .     A
C134   H38     1.084   1_655 S
C135   H152    1.084   .     S
C136   H151    1.084   .     S
C137   C139    1.426   .     A
C137   N166    1.436   .     S
C138   N163    1.436   .     S
C138   C140    1.426   .     A
C139   C143    1.435   .     A
C139   C141    1.420   .     A
C140   C144    1.435   .     A
C140   C142    1.420   .     A
C141   C669    1.390   .     S
C142   C670    1.390   1_554 S
C143   C146    1.411   .     A
C143   C666    1.427   .     S
C144   C145    1.411   .     A
C144   C665    1.427   1_554 S
C145   H155    1.076   .     S
C145   C147    1.385   .     A
C146   C148    1.385   .     A
C146   H156    1.076   .     S
C147   H149    1.085   .     S
C147   C663    1.390   1_554 S
C148   H150    1.085   .     S
C148   C664    1.390   .     S
H153   C17     1.084   1_655 S
C157   C332    1.351   .     S
C157   N343    1.443   .     S
C158   C505    1.351   1_545 S
C158   N520    1.443   1_545 S
N159   N44     1.285   1_655 S
N159   H45     1.029   1_655 S
H162   N44     1.029   1_655 S
N163   O164    1.302   .     A
N163   O165    1.302   .     A
N166   O168    1.302   .     A
N166   O167    1.302   .     A
N169   O171    1.302   .     A
N169   O170    1.301   .     A
N169   C505    1.443   1_545 S
N172   O174    1.302   .     A
N172   O173    1.301   .     A
N172   C332    1.443   .     S
O175   C179    1.286   .     A
O175   Cu187   1.965   .     S
O176   C180    1.286   .     A
O176   Cu188   1.965   .     S
O177   C179    1.286   .     A
O177   Cu188   1.959   .     S
O178   C180    1.286   .     A
O178   Cu187   1.959   .     S
C179   C215    1.430   .     S
C180   C216    1.430   .     S
O181   Cu187   1.954   .     S
O181   C185    1.304   .     A
O182   C186    1.304   .     A
O182   Cu188   1.954   .     S
O183   Cu188   1.930   .     S
O183   C185    1.292   .     A
O184   C186    1.292   .     A
O184   Cu187   1.930   .     S
C185   C189    1.473   .     S
C186   C190    1.473   .     S
Cu187  Cu188   2.682   .     S
Cu187  N218    2.015   .     S
Cu188  N217    2.015   .     S
C189   C195    1.420   .     A
C189   C193    1.397   .     A
C190   C196    1.420   .     A
C190   C194    1.397   .     A
C191   C199    1.399   .     A
C191   C193    1.387   .     A
C191   H327    1.084   1_455 S
C192   C200    1.399   .     A
C192   C194    1.387   .     A
C192   H270    1.084   .     S
C193   H210    1.084   .     S
C194   H209    1.084   .     S
C195   C197    1.426   .     A
C195   N224    1.436   .     S
C196   N221    1.436   .     S
C196   C198    1.426   .     A
C197   C201    1.435   .     A
C197   C199    1.420   .     A
C198   C202    1.435   .     A
C198   C200    1.420   .     A
C199   C727    1.390   .     S
C200   C728    1.390   1_554 S
C201   C204    1.411   .     A
C201   C724    1.427   .     S
C202   C203    1.411   .     A
C202   C723    1.427   1_554 S
C203   H213    1.076   .     S
C203   C205    1.385   .     A
C204   C206    1.385   .     A
C204   H214    1.076   .     S
C205   H207    1.085   .     S
C205   C721    1.390   1_554 S
C206   H208    1.085   .     S
C206   C722    1.390   .     S
H211   C249    1.084   .     S
H212   C308    1.084   1_455 S
C215   C390    1.351   .     S
C215   N401    1.443   .     S
N217   N276    1.285   .     S
N217   H277    1.029   .     S
N218   N333    1.285   1_455 S
N218   H336    1.029   1_455 S
H219   N333    1.029   1_455 S
H220   N276    1.029   .     S
N221   O222    1.302   .     A
N221   O223    1.302   .     A
N224   O226    1.302   .     A
N224   O225    1.302   .     A
N227   O229    1.302   .     A
N227   O228    1.301   .     A
N230   O232    1.302   .     A
N230   O231    1.301   .     A
N230   C390    1.443   .     S
O233   C237    1.286   .     A
O233   Cu245   1.965   .     S
O234   C238    1.286   .     A
O234   Cu246   1.965   .     S
O235   C237    1.286   .     A
O235   Cu246   1.959   .     S
O236   C238    1.286   .     A
O236   Cu245   1.959   .     S
C237   C273    1.430   .     S
C238   C274    1.430   .     S
O239   Cu245   1.954   .     S
O239   C243    1.304   .     A
O240   C244    1.304   .     A
O240   Cu246   1.954   .     S
O241   Cu246   1.930   .     S
O241   C243    1.292   .     A
O242   C244    1.292   .     A
O242   Cu245   1.930   .     S
C243   C247    1.473   .     S
C244   C248    1.473   .     S
Cu245  Cu246   2.682   .     S
Cu245  N276    2.015   .     S
Cu246  N275    2.015   .     S
C247   C253    1.420   .     A
C247   C251    1.397   .     A
C248   C254    1.420   .     A
C248   C252    1.397   .     A
C249   C257    1.399   .     A
C249   C251    1.387   .     A
C250   C258    1.399   .     A
C250   C252    1.387   .     A
C250   H328    1.084   .     S
C251   H268    1.084   .     S
C252   H267    1.084   .     S
C253   C255    1.426   .     A
C253   N282    1.436   .     S
C254   N279    1.436   .     S
C254   C256    1.426   .     A
C255   C259    1.435   .     A
C255   C257    1.420   .     A
C256   C260    1.435   .     A
C256   C258    1.420   .     A
C257   C785    1.390   .     S
C258   C786    1.390   1_554 S
C259   C262    1.411   .     A
C259   C782    1.427   .     S
C260   C261    1.411   .     A
C260   C781    1.427   1_554 S
C261   H271    1.076   .     S
C261   C263    1.385   .     A
C262   C264    1.385   .     A
C262   H272    1.076   .     S
C263   H265    1.085   .     S
C263   C779    1.390   1_554 S
C264   H266    1.085   .     S
C264   C780    1.390   .     S
H269   C307    1.084   .     S
C273   C448    1.351   .     S
C273   N459    1.443   .     S
N275   N334    1.285   .     S
N275   H335    1.029   .     S
H278   N334    1.029   .     S
N279   O280    1.302   .     A
N279   O281    1.302   .     A
N282   O284    1.302   .     A
N282   O283    1.302   .     A
N285   O287    1.302   .     A
N285   O286    1.301   .     A
N288   O290    1.302   .     A
N288   O289    1.301   .     A
N288   C448    1.443   .     S
O291   C295    1.286   .     A
O291   Cu303   1.965   .     S
O292   C296    1.286   .     A
O292   Cu304   1.965   .     S
O293   C295    1.286   .     A
O293   Cu304   1.959   .     S
O294   C296    1.286   .     A
O294   Cu303   1.959   .     S
C295   C331    1.430   .     S
C296   C332    1.430   .     S
O297   Cu303   1.954   .     S
O297   C301    1.304   .     A
O298   C302    1.304   .     A
O298   Cu304   1.954   .     S
O299   Cu304   1.930   .     S
O299   C301    1.292   .     A
O300   C302    1.292   .     A
O300   Cu303   1.930   .     S
C301   C305    1.473   .     S
C302   C306    1.473   .     S
Cu303  Cu304   2.682   .     S
Cu303  N334    2.015   .     S
Cu304  N333    2.015   .     S
C305   C311    1.420   .     A
C305   C309    1.397   .     A
C306   C312    1.420   .     A
C306   C310    1.397   .     A
C307   C315    1.399   .     A
C307   C309    1.387   .     A
C308   C316    1.399   .     A
C308   C310    1.387   .     A
C308   H212    1.084   1_655 S
C309   H326    1.084   .     S
C310   H325    1.084   .     S
C311   C313    1.426   .     A
C311   N340    1.436   .     S
C312   N337    1.436   .     S
C312   C314    1.426   .     A
C313   C317    1.435   .     A
C313   C315    1.420   .     A
C314   C318    1.435   .     A
C314   C316    1.420   .     A
C315   C843    1.390   .     S
C316   C844    1.390   1_554 S
C317   C320    1.411   .     A
C317   C840    1.427   .     S
C318   C319    1.411   .     A
C318   C839    1.427   1_554 S
C319   H329    1.076   .     S
C319   C321    1.385   .     A
C320   C322    1.385   .     A
C320   H330    1.076   .     S
C321   H323    1.085   .     S
C321   C837    1.390   1_554 S
C322   H324    1.085   .     S
C322   C838    1.390   .     S
H327   C191    1.084   1_655 S
C331   C506    1.351   .     S
C331   N517    1.443   .     S
N333   N218    1.285   1_655 S
N333   H219    1.029   1_655 S
H336   N218    1.029   1_655 S
N337   O338    1.302   .     A
N337   O339    1.302   .     A
N340   O342    1.302   .     A
N340   O341    1.302   .     A
N343   O345    1.302   .     A
N343   O344    1.301   .     A
N346   O348    1.302   .     A
N346   O347    1.301   .     A
N346   C506    1.443   .     S
O349   C353    1.286   .     A
O349   Cu361   1.965   .     S
O350   C354    1.286   .     A
O350   Cu362   1.965   .     S
O351   C353    1.286   .     A
O351   Cu362   1.959   .     S
O352   C354    1.286   .     A
O352   Cu361   1.959   .     S
C353   C389    1.430   .     S
C354   C390    1.430   .     S
O355   Cu361   1.954   .     S
O355   C359    1.304   .     A
O356   C360    1.304   .     A
O356   Cu362   1.954   .     S
O357   Cu362   1.930   .     S
O357   C359    1.292   .     A
O358   C360    1.292   .     A
O358   Cu361   1.930   .     S
C359   C363    1.473   .     S
C360   C364    1.473   .     S
Cu361  Cu362   2.682   .     S
Cu361  N392    2.015   .     S
Cu362  N391    2.015   .     S
C363   C369    1.420   .     A
C363   C367    1.397   .     A
C364   C370    1.420   .     A
C364   C368    1.397   .     A
C365   C373    1.399   .     A
C365   C367    1.387   .     A
C365   H501    1.084   1_455 S
C366   C374    1.399   .     A
C366   C368    1.387   .     A
C366   H444    1.084   .     S
C367   H384    1.084   .     S
C368   H383    1.084   .     S
C369   C371    1.426   .     A
C369   N398    1.436   .     S
C370   N395    1.436   .     S
C370   C372    1.426   .     A
C371   C375    1.435   .     A
C371   C373    1.420   .     A
C372   C376    1.435   .     A
C372   C374    1.420   .     A
C373   C901    1.390   .     S
C374   C902    1.390   1_554 S
C375   C378    1.411   .     A
C375   C898    1.427   .     S
C376   C377    1.411   .     A
C376   C897    1.427   1_554 S
C377   H387    1.076   .     S
C377   C379    1.385   .     A
C378   C380    1.385   .     A
C378   H388    1.076   .     S
C379   H381    1.085   .     S
C379   C895    1.390   1_554 S
C380   H382    1.085   .     S
C380   C896    1.390   .     S
H385   C423    1.084   .     S
H386   C482    1.084   1_455 S
C389   C42     1.351   1_565 S
C389   N53     1.443   1_565 S
N391   N450    1.285   .     S
N391   H451    1.029   .     S
N392   N507    1.285   1_455 S
N392   H510    1.029   1_455 S
H393   N507    1.029   1_455 S
H394   N450    1.029   .     S
N395   O396    1.302   .     A
N395   O397    1.302   .     A
N398   O400    1.302   .     A
N398   O399    1.302   .     A
N401   O403    1.302   .     A
N401   O402    1.301   .     A
N404   O406    1.302   .     A
N404   O405    1.301   .     A
N404   C42     1.443   1_565 S
O407   C411    1.286   .     A
O407   Cu419   1.965   .     S
O408   C412    1.286   .     A
O408   Cu420   1.965   .     S
O409   C411    1.286   .     A
O409   Cu420   1.959   .     S
O410   C412    1.286   .     A
O410   Cu419   1.959   .     S
C411   C447    1.430   .     S
C412   C448    1.430   .     S
O413   Cu419   1.954   .     S
O413   C417    1.304   .     A
O414   C418    1.304   .     A
O414   Cu420   1.954   .     S
O415   Cu420   1.930   .     S
O415   C417    1.292   .     A
O416   C418    1.292   .     A
O416   Cu419   1.930   .     S
C417   C421    1.473   .     S
C418   C422    1.473   .     S
Cu419  Cu420   2.682   .     S
Cu419  N450    2.015   .     S
Cu420  N449    2.015   .     S
C421   C427    1.420   .     A
C421   C425    1.397   .     A
C422   C428    1.420   .     A
C422   C426    1.397   .     A
C423   C431    1.399   .     A
C423   C425    1.387   .     A
C424   C432    1.399   .     A
C424   C426    1.387   .     A
C424   H502    1.084   .     S
C425   H442    1.084   .     S
C426   H441    1.084   .     S
C427   C429    1.426   .     A
C427   N456    1.436   .     S
C428   N453    1.436   .     S
C428   C430    1.426   .     A
C429   C433    1.435   .     A
C429   C431    1.420   .     A
C430   C434    1.435   .     A
C430   C432    1.420   .     A
C431   C959    1.390   .     S
C432   C960    1.390   1_554 S
C433   C436    1.411   .     A
C433   C956    1.427   .     S
C434   C435    1.411   .     A
C434   C955    1.427   1_554 S
C435   H445    1.076   .     S
C435   C437    1.385   .     A
C436   C438    1.385   .     A
C436   H446    1.076   .     S
C437   H439    1.085   .     S
C437   C953    1.390   1_554 S
C438   H440    1.085   .     S
C438   C954    1.390   .     S
H443   C481    1.084   .     S
C447   C100    1.351   1_565 S
C447   N111    1.443   1_565 S
N449   N508    1.285   .     S
N449   H509    1.029   .     S
H452   N508    1.029   .     S
N453   O454    1.302   .     A
N453   O455    1.302   .     A
N456   O458    1.302   .     A
N456   O457    1.302   .     A
N459   O461    1.302   .     A
N459   O460    1.301   .     A
N462   O464    1.302   .     A
N462   O463    1.301   .     A
N462   C100    1.443   1_565 S
O465   C469    1.286   .     A
O465   Cu477   1.965   .     S
O466   C470    1.286   .     A
O466   Cu478   1.965   .     S
O467   C469    1.286   .     A
O467   Cu478   1.959   .     S
O468   C470    1.286   .     A
O468   Cu477   1.959   .     S
C469   C505    1.430   .     S
C470   C506    1.430   .     S
O471   Cu477   1.954   .     S
O471   C475    1.304   .     A
O472   C476    1.304   .     A
O472   Cu478   1.954   .     S
O473   Cu478   1.930   .     S
O473   C475    1.292   .     A
O474   C476    1.292   .     A
O474   Cu477   1.930   .     S
C475   C479    1.473   .     S
C476   C480    1.473   .     S
Cu477  Cu478   2.682   .     S
Cu477  N508    2.015   .     S
Cu478  N507    2.015   .     S
C479   C485    1.420   .     A
C479   C483    1.397   .     A
C480   C486    1.420   .     A
C480   C484    1.397   .     A
C481   C489    1.399   .     A
C481   C483    1.387   .     A
C482   C490    1.399   .     A
C482   C484    1.387   .     A
C482   H386    1.084   1_655 S
C483   H500    1.084   .     S
C484   H499    1.084   .     S
C485   C487    1.426   .     A
C485   N514    1.436   .     S
C486   N511    1.436   .     S
C486   C488    1.426   .     A
C487   C491    1.435   .     A
C487   C489    1.420   .     A
C488   C492    1.435   .     A
C488   C490    1.420   .     A
C489   C1017   1.390   .     S
C490   C1018   1.390   1_554 S
C491   C494    1.411   .     A
C491   C1014   1.427   .     S
C492   C493    1.411   .     A
C492   C1013   1.427   1_554 S
C493   H503    1.076   .     S
C493   C495    1.385   .     A
C494   C496    1.385   .     A
C494   H504    1.076   .     S
C495   H497    1.085   .     S
C495   C1011   1.390   1_554 S
C496   H498    1.085   .     S
C496   C1012   1.390   .     S
H501   C365    1.084   1_655 S
C505   C158    1.351   1_565 S
C505   N169    1.443   1_565 S
N507   N392    1.285   1_655 S
N507   H393    1.029   1_655 S
H510   N392    1.029   1_655 S
N511   O512    1.302   .     A
N511   O513    1.302   .     A
N514   O516    1.302   .     A
N514   O515    1.302   .     A
N517   O519    1.302   .     A
N517   O518    1.301   .     A
N520   O522    1.302   .     A
N520   O521    1.301   .     A
N520   C158    1.443   1_565 S
O523   C527    1.286   .     A
O523   Cu535   1.965   .     S
O524   C528    1.286   .     A
O524   Cu536   1.965   .     S
O525   C527    1.286   .     A
O525   Cu536   1.959   .     S
O526   C528    1.286   .     A
O526   Cu535   1.959   .     S
C527   C563    1.430   .     S
C528   C564    1.430   .     S
O529   Cu535   1.954   .     S
O529   C533    1.304   .     A
O530   C534    1.304   .     A
O530   Cu536   1.954   .     S
O531   Cu536   1.930   .     S
O531   C533    1.292   .     A
O532   C534    1.292   .     A
O532   Cu535   1.930   .     S
C533   C537    1.473   .     S
C534   C538    1.473   .     S
Cu535  Cu536   2.682   .     S
Cu535  N566    2.015   .     S
Cu536  N565    2.015   .     S
C537   C543    1.420   .     A
C537   C541    1.397   .     A
C538   C544    1.420   .     A
C538   C542    1.397   .     A
C539   C547    1.399   .     A
C539   C541    1.387   .     A
C539   H675    1.084   1_455 S
C540   C548    1.399   .     A
C540   C542    1.387   .     A
C540   H618    1.084   .     S
C541   H558    1.084   .     S
C542   H557    1.084   .     S
C543   C545    1.426   .     A
C543   N572    1.436   .     S
C544   N569    1.436   .     S
C544   C546    1.426   .     A
C545   C549    1.435   .     A
C545   C547    1.420   .     A
C546   C550    1.435   .     A
C546   C548    1.420   .     A
C547   C31     1.390   1_556 S
C549   C552    1.411   .     A
C549   C28     1.427   1_556 S
C550   C551    1.411   .     A
C551   H561    1.076   .     S
C551   C553    1.385   .     A
C552   C554    1.385   .     A
C552   H562    1.076   .     S
C553   H555    1.085   .     S
C554   H556    1.085   .     S
C554   C26     1.390   1_556 S
H559   C597    1.084   .     S
H560   C656    1.084   1_455 S
C563   C738    1.351   .     S
C563   N749    1.443   .     S
C564   C911    1.351   1_545 S
C564   N926    1.443   1_545 S
N565   N624    1.285   .     S
N565   H625    1.029   .     S
N566   N681    1.285   1_455 S
N566   H684    1.029   1_455 S
H567   N681    1.029   1_455 S
H568   N624    1.029   .     S
N569   O570    1.302   .     A
N569   O571    1.302   .     A
N572   O574    1.302   .     A
N572   O573    1.302   .     A
N575   O577    1.302   .     A
N575   O576    1.301   .     A
N575   C911    1.443   1_545 S
N578   O580    1.302   .     A
N578   O579    1.301   .     A
N578   C738    1.443   .     S
O581   C585    1.286   .     A
O581   Cu593   1.965   .     S
O582   C586    1.286   .     A
O582   Cu594   1.965   .     S
O583   C585    1.286   .     A
O583   Cu594   1.959   .     S
O584   C586    1.286   .     A
O584   Cu593   1.959   .     S
C585   C621    1.430   .     S
C586   C622    1.430   .     S
O587   Cu593   1.954   .     S
O587   C591    1.304   .     A
O588   C592    1.304   .     A
O588   Cu594   1.954   .     S
O589   Cu594   1.930   .     S
O589   C591    1.292   .     A
O590   C592    1.292   .     A
O590   Cu593   1.930   .     S
C591   C595    1.473   .     S
C592   C596    1.473   .     S
Cu593  Cu594   2.682   .     S
Cu593  N624    2.015   .     S
Cu594  N623    2.015   .     S
C595   C601    1.420   .     A
C595   C599    1.397   .     A
C596   C602    1.420   .     A
C596   C600    1.397   .     A
C597   C605    1.399   .     A
C597   C599    1.387   .     A
C598   C606    1.399   .     A
C598   C600    1.387   .     A
C598   H676    1.084   .     S
C599   H616    1.084   .     S
C600   H615    1.084   .     S
C601   C603    1.426   .     A
C601   N630    1.436   .     S
C602   N627    1.436   .     S
C602   C604    1.426   .     A
C603   C607    1.435   .     A
C603   C605    1.420   .     A
C604   C608    1.435   .     A
C604   C606    1.420   .     A
C605   C89     1.390   1_556 S
C607   C610    1.411   .     A
C607   C86     1.427   1_556 S
C608   C609    1.411   .     A
C609   H619    1.076   .     S
C609   C611    1.385   .     A
C610   C612    1.385   .     A
C610   H620    1.076   .     S
C611   H613    1.085   .     S
C612   H614    1.085   .     S
C612   C84     1.390   1_556 S
H617   C655    1.084   .     S
C621   C796    1.351   .     S
C621   N807    1.443   .     S
C622   C969    1.351   1_545 S
C622   N984    1.443   1_545 S
N623   N682    1.285   .     S
N623   H683    1.029   .     S
H626   N682    1.029   .     S
N627   O628    1.302   .     A
N627   O629    1.302   .     A
N630   O632    1.302   .     A
N630   O631    1.302   .     A
N633   O635    1.302   .     A
N633   O634    1.301   .     A
N633   C969    1.443   1_545 S
N636   O638    1.302   .     A
N636   O637    1.301   .     A
N636   C796    1.443   .     S
O639   C643    1.286   .     A
O639   Cu651   1.965   .     S
O640   C644    1.286   .     A
O640   Cu652   1.965   .     S
O641   C643    1.286   .     A
O641   Cu652   1.959   .     S
O642   C644    1.286   .     A
O642   Cu651   1.959   .     S
C643   C679    1.430   .     S
C644   C680    1.430   .     S
O645   Cu651   1.954   .     S
O645   C649    1.304   .     A
O646   C650    1.304   .     A
O646   Cu652   1.954   .     S
O647   Cu652   1.930   .     S
O647   C649    1.292   .     A
O648   C650    1.292   .     A
O648   Cu651   1.930   .     S
C649   C653    1.473   .     S
C650   C654    1.473   .     S
Cu651  Cu652   2.682   .     S
Cu651  N682    2.015   .     S
Cu652  N681    2.015   .     S
C653   C659    1.420   .     A
C653   C657    1.397   .     A
C654   C660    1.420   .     A
C654   C658    1.397   .     A
C655   C663    1.399   .     A
C655   C657    1.387   .     A
C656   C664    1.399   .     A
C656   C658    1.387   .     A
C656   H560    1.084   1_655 S
C657   H674    1.084   .     S
C658   H673    1.084   .     S
C659   C661    1.426   .     A
C659   N688    1.436   .     S
C660   N685    1.436   .     S
C660   C662    1.426   .     A
C661   C665    1.435   .     A
C661   C663    1.420   .     A
C662   C666    1.435   .     A
C662   C664    1.420   .     A
C663   C147    1.390   1_556 S
C665   C668    1.411   .     A
C665   C144    1.427   1_556 S
C666   C667    1.411   .     A
C667   H677    1.076   .     S
C667   C669    1.385   .     A
C668   C670    1.385   .     A
C668   H678    1.076   .     S
C669   H671    1.085   .     S
C670   H672    1.085   .     S
C670   C142    1.390   1_556 S
H675   C539    1.084   1_655 S
C679   C854    1.351   .     S
C679   N865    1.443   .     S
C680   C1027   1.351   1_545 S
C680   N1042   1.443   1_545 S
N681   N566    1.285   1_655 S
N681   H567    1.029   1_655 S
H684   N566    1.029   1_655 S
N685   O686    1.302   .     A
N685   O687    1.302   .     A
N688   O690    1.302   .     A
N688   O689    1.302   .     A
N691   O693    1.302   .     A
N691   O692    1.301   .     A
N691   C1027   1.443   1_545 S
N694   O696    1.302   .     A
N694   O695    1.301   .     A
N694   C854    1.443   .     S
O697   C701    1.286   .     A
O697   Cu709   1.965   .     S
O698   C702    1.286   .     A
O698   Cu710   1.965   .     S
O699   C701    1.286   .     A
O699   Cu710   1.959   .     S
O700   C702    1.286   .     A
O700   Cu709   1.959   .     S
C701   C737    1.430   .     S
C702   C738    1.430   .     S
O703   Cu709   1.954   .     S
O703   C707    1.304   .     A
O704   C708    1.304   .     A
O704   Cu710   1.954   .     S
O705   Cu710   1.930   .     S
O705   C707    1.292   .     A
O706   C708    1.292   .     A
O706   Cu709   1.930   .     S
C707   C711    1.473   .     S
C708   C712    1.473   .     S
Cu709  Cu710   2.682   .     S
Cu709  N740    2.015   .     S
Cu710  N739    2.015   .     S
C711   C717    1.420   .     A
C711   C715    1.397   .     A
C712   C718    1.420   .     A
C712   C716    1.397   .     A
C713   C721    1.399   .     A
C713   C715    1.387   .     A
C713   H849    1.084   1_455 S
C714   C722    1.399   .     A
C714   C716    1.387   .     A
C714   H792    1.084   .     S
C715   H732    1.084   .     S
C716   H731    1.084   .     S
C717   C719    1.426   .     A
C717   N746    1.436   .     S
C718   N743    1.436   .     S
C718   C720    1.426   .     A
C719   C723    1.435   .     A
C719   C721    1.420   .     A
C720   C724    1.435   .     A
C720   C722    1.420   .     A
C721   C205    1.390   1_556 S
C723   C726    1.411   .     A
C723   C202    1.427   1_556 S
C724   C725    1.411   .     A
C725   H735    1.076   .     S
C725   C727    1.385   .     A
C726   C728    1.385   .     A
C726   H736    1.076   .     S
C727   H729    1.085   .     S
C728   H730    1.085   .     S
C728   C200    1.390   1_556 S
H733   C771    1.084   .     S
H734   C830    1.084   1_455 S
C737   C912    1.351   .     S
C737   N923    1.443   .     S
N739   N798    1.285   .     S
N739   H799    1.029   .     S
N740   N855    1.285   1_455 S
N740   H858    1.029   1_455 S
H741   N855    1.029   1_455 S
H742   N798    1.029   .     S
N743   O744    1.302   .     A
N743   O745    1.302   .     A
N746   O748    1.302   .     A
N746   O747    1.302   .     A
N749   O751    1.302   .     A
N749   O750    1.301   .     A
N752   O754    1.302   .     A
N752   O753    1.301   .     A
N752   C912    1.443   .     S
O755   C759    1.286   .     A
O755   Cu767   1.965   .     S
O756   C760    1.286   .     A
O756   Cu768   1.965   .     S
O757   C759    1.286   .     A
O757   Cu768   1.959   .     S
O758   C760    1.286   .     A
O758   Cu767   1.959   .     S
C759   C795    1.430   .     S
C760   C796    1.430   .     S
O761   Cu767   1.954   .     S
O761   C765    1.304   .     A
O762   C766    1.304   .     A
O762   Cu768   1.954   .     S
O763   Cu768   1.930   .     S
O763   C765    1.292   .     A
O764   C766    1.292   .     A
O764   Cu767   1.930   .     S
C765   C769    1.473   .     S
C766   C770    1.473   .     S
Cu767  Cu768   2.682   .     S
Cu767  N798    2.015   .     S
Cu768  N797    2.015   .     S
C769   C775    1.420   .     A
C769   C773    1.397   .     A
C770   C776    1.420   .     A
C770   C774    1.397   .     A
C771   C779    1.399   .     A
C771   C773    1.387   .     A
C772   C780    1.399   .     A
C772   C774    1.387   .     A
C772   H850    1.084   .     S
C773   H790    1.084   .     S
C774   H789    1.084   .     S
C775   C777    1.426   .     A
C775   N804    1.436   .     S
C776   N801    1.436   .     S
C776   C778    1.426   .     A
C777   C781    1.435   .     A
C777   C779    1.420   .     A
C778   C782    1.435   .     A
C778   C780    1.420   .     A
C779   C263    1.390   1_556 S
C781   C784    1.411   .     A
C781   C260    1.427   1_556 S
C782   C783    1.411   .     A
C783   H793    1.076   .     S
C783   C785    1.385   .     A
C784   C786    1.385   .     A
C784   H794    1.076   .     S
C785   H787    1.085   .     S
C786   H788    1.085   .     S
C786   C258    1.390   1_556 S
H791   C829    1.084   .     S
C795   C970    1.351   .     S
C795   N981    1.443   .     S
N797   N856    1.285   .     S
N797   H857    1.029   .     S
H800   N856    1.029   .     S
N801   O802    1.302   .     A
N801   O803    1.302   .     A
N804   O806    1.302   .     A
N804   O805    1.302   .     A
N807   O809    1.302   .     A
N807   O808    1.301   .     A
N810   O812    1.302   .     A
N810   O811    1.301   .     A
N810   C970    1.443   .     S
O813   C817    1.286   .     A
O813   Cu825   1.965   .     S
O814   C818    1.286   .     A
O814   Cu826   1.965   .     S
O815   C817    1.286   .     A
O815   Cu826   1.959   .     S
O816   C818    1.286   .     A
O816   Cu825   1.959   .     S
C817   C853    1.430   .     S
C818   C854    1.430   .     S
O819   Cu825   1.954   .     S
O819   C823    1.304   .     A
O820   C824    1.304   .     A
O820   Cu826   1.954   .     S
O821   Cu826   1.930   .     S
O821   C823    1.292   .     A
O822   C824    1.292   .     A
O822   Cu825   1.930   .     S
C823   C827    1.473   .     S
C824   C828    1.473   .     S
Cu825  Cu826   2.682   .     S
Cu825  N856    2.015   .     S
Cu826  N855    2.015   .     S
C827   C833    1.420   .     A
C827   C831    1.397   .     A
C828   C834    1.420   .     A
C828   C832    1.397   .     A
C829   C837    1.399   .     A
C829   C831    1.387   .     A
C830   C838    1.399   .     A
C830   C832    1.387   .     A
C830   H734    1.084   1_655 S
C831   H848    1.084   .     S
C832   H847    1.084   .     S
C833   C835    1.426   .     A
C833   N862    1.436   .     S
C834   N859    1.436   .     S
C834   C836    1.426   .     A
C835   C839    1.435   .     A
C835   C837    1.420   .     A
C836   C840    1.435   .     A
C836   C838    1.420   .     A
C837   C321    1.390   1_556 S
C839   C842    1.411   .     A
C839   C318    1.427   1_556 S
C840   C841    1.411   .     A
C841   H851    1.076   .     S
C841   C843    1.385   .     A
C842   C844    1.385   .     A
C842   H852    1.076   .     S
C843   H845    1.085   .     S
C844   H846    1.085   .     S
C844   C316    1.390   1_556 S
H849   C713    1.084   1_655 S
C853   C1028   1.351   .     S
C853   N1039   1.443   .     S
N855   N740    1.285   1_655 S
N855   H741    1.029   1_655 S
H858   N740    1.029   1_655 S
N859   O860    1.302   .     A
N859   O861    1.302   .     A
N862   O864    1.302   .     A
N862   O863    1.302   .     A
N865   O867    1.302   .     A
N865   O866    1.301   .     A
N868   O870    1.302   .     A
N868   O869    1.301   .     A
N868   C1028   1.443   .     S
O871   C875    1.286   .     A
O871   Cu883   1.965   .     S
O872   C876    1.286   .     A
O872   Cu884   1.965   .     S
O873   C875    1.286   .     A
O873   Cu884   1.959   .     S
O874   C876    1.286   .     A
O874   Cu883   1.959   .     S
C875   C911    1.430   .     S
C876   C912    1.430   .     S
O877   Cu883   1.954   .     S
O877   C881    1.304   .     A
O878   C882    1.304   .     A
O878   Cu884   1.954   .     S
O879   Cu884   1.930   .     S
O879   C881    1.292   .     A
O880   C882    1.292   .     A
O880   Cu883   1.930   .     S
C881   C885    1.473   .     S
C882   C886    1.473   .     S
Cu883  Cu884   2.682   .     S
Cu883  N914    2.015   .     S
Cu884  N913    2.015   .     S
C885   C891    1.420   .     A
C885   C889    1.397   .     A
C886   C892    1.420   .     A
C886   C890    1.397   .     A
C887   C895    1.399   .     A
C887   C889    1.387   .     A
C887   H1023   1.084   1_455 S
C888   C896    1.399   .     A
C888   C890    1.387   .     A
C888   H966    1.084   .     S
C889   H906    1.084   .     S
C890   H905    1.084   .     S
C891   C893    1.426   .     A
C891   N920    1.436   .     S
C892   N917    1.436   .     S
C892   C894    1.426   .     A
C893   C897    1.435   .     A
C893   C895    1.420   .     A
C894   C898    1.435   .     A
C894   C896    1.420   .     A
C895   C379    1.390   1_556 S
C897   C900    1.411   .     A
C897   C376    1.427   1_556 S
C898   C899    1.411   .     A
C899   H909    1.076   .     S
C899   C901    1.385   .     A
C900   C902    1.385   .     A
C900   H910    1.076   .     S
C901   H903    1.085   .     S
C902   H904    1.085   .     S
C902   C374    1.390   1_556 S
H907   C945    1.084   .     S
H908   C1004   1.084   1_455 S
C911   C564    1.351   1_565 S
C911   N575    1.443   1_565 S
N913   N972    1.285   .     S
N913   H973    1.029   .     S
N914   N1029   1.285   1_455 S
N914   H1032   1.029   1_455 S
H915   N1029   1.029   1_455 S
H916   N972    1.029   .     S
N917   O918    1.302   .     A
N917   O919    1.302   .     A
N920   O922    1.302   .     A
N920   O921    1.302   .     A
N923   O925    1.302   .     A
N923   O924    1.301   .     A
N926   O928    1.302   .     A
N926   O927    1.301   .     A
N926   C564    1.443   1_565 S
O929   C933    1.286   .     A
O929   Cu941   1.965   .     S
O930   C934    1.286   .     A
O930   Cu942   1.965   .     S
O931   C933    1.286   .     A
O931   Cu942   1.959   .     S
O932   C934    1.286   .     A
O932   Cu941   1.959   .     S
C933   C969    1.430   .     S
C934   C970    1.430   .     S
O935   Cu941   1.954   .     S
O935   C939    1.304   .     A
O936   C940    1.304   .     A
O936   Cu942   1.954   .     S
O937   Cu942   1.930   .     S
O937   C939    1.292   .     A
O938   C940    1.292   .     A
O938   Cu941   1.930   .     S
C939   C943    1.473   .     S
C940   C944    1.473   .     S
Cu941  Cu942   2.682   .     S
Cu941  N972    2.015   .     S
Cu942  N971    2.015   .     S
C943   C949    1.420   .     A
C943   C947    1.397   .     A
C944   C950    1.420   .     A
C944   C948    1.397   .     A
C945   C953    1.399   .     A
C945   C947    1.387   .     A
C946   C954    1.399   .     A
C946   C948    1.387   .     A
C946   H1024   1.084   .     S
C947   H964    1.084   .     S
C948   H963    1.084   .     S
C949   C951    1.426   .     A
C949   N978    1.436   .     S
C950   N975    1.436   .     S
C950   C952    1.426   .     A
C951   C955    1.435   .     A
C951   C953    1.420   .     A
C952   C956    1.435   .     A
C952   C954    1.420   .     A
C953   C437    1.390   1_556 S
C955   C958    1.411   .     A
C955   C434    1.427   1_556 S
C956   C957    1.411   .     A
C957   H967    1.076   .     S
C957   C959    1.385   .     A
C958   C960    1.385   .     A
C958   H968    1.076   .     S
C959   H961    1.085   .     S
C960   H962    1.085   .     S
C960   C432    1.390   1_556 S
H965   C1003   1.084   .     S
C969   C622    1.351   1_565 S
C969   N633    1.443   1_565 S
N971   N1030   1.285   .     S
N971   H1031   1.029   .     S
H974   N1030   1.029   .     S
N975   O976    1.302   .     A
N975   O977    1.302   .     A
N978   O980    1.302   .     A
N978   O979    1.302   .     A
N981   O983    1.302   .     A
N981   O982    1.301   .     A
N984   O986    1.302   .     A
N984   O985    1.301   .     A
N984   C622    1.443   1_565 S
O987   C991    1.286   .     A
O987   Cu999   1.965   .     S
O988   C992    1.286   .     A
O988   Cu1000  1.965   .     S
O989   C991    1.286   .     A
O989   Cu1000  1.959   .     S
O990   C992    1.286   .     A
O990   Cu999   1.959   .     S
C991   C1027   1.430   .     S
C992   C1028   1.430   .     S
O993   Cu999   1.954   .     S
O993   C997    1.304   .     A
O994   C998    1.304   .     A
O994   Cu1000  1.954   .     S
O995   Cu1000  1.930   .     S
O995   C997    1.292   .     A
O996   C998    1.292   .     A
O996   Cu999   1.930   .     S
C997   C1001   1.473   .     S
C998   C1002   1.473   .     S
Cu999  Cu1000  2.682   .     S
Cu999  N1030   2.015   .     S
Cu1000 N1029   2.015   .     S
C1001  C1007   1.420   .     A
C1001  C1005   1.397   .     A
C1002  C1008   1.420   .     A
C1002  C1006   1.397   .     A
C1003  C1011   1.399   .     A
C1003  C1005   1.387   .     A
C1004  C1012   1.399   .     A
C1004  C1006   1.387   .     A
C1004  H908    1.084   1_655 S
C1005  H1022   1.084   .     S
C1006  H1021   1.084   .     S
C1007  C1009   1.426   .     A
C1007  N1036   1.436   .     S
C1008  N1033   1.436   .     S
C1008  C1010   1.426   .     A
C1009  C1013   1.435   .     A
C1009  C1011   1.420   .     A
C1010  C1014   1.435   .     A
C1010  C1012   1.420   .     A
C1011  C495    1.390   1_556 S
C1013  C1016   1.411   .     A
C1013  C492    1.427   1_556 S
C1014  C1015   1.411   .     A
C1015  H1025   1.076   .     S
C1015  C1017   1.385   .     A
C1016  C1018   1.385   .     A
C1016  H1026   1.076   .     S
C1017  H1019   1.085   .     S
C1018  H1020   1.085   .     S
C1018  C490    1.390   1_556 S
H1023  C887    1.084   1_655 S
C1027  C680    1.351   1_565 S
C1027  N691    1.443   1_565 S
N1029  N914    1.285   1_655 S
N1029  H915    1.029   1_655 S
H1032  N914    1.029   1_655 S
N1033  O1034   1.302   .     A
N1033  O1035   1.302   .     A
N1036  O1038   1.302   .     A
N1036  O1037   1.302   .     A
N1039  O1041   1.302   .     A
N1039  O1040   1.301   .     A
N1042  O1044   1.302   .     A
N1042  O1043   1.301   .     A
N1042  C680    1.443   1_565 S
