data_str_m3_o10_o16_pcu_sym.37
_audit_creation_date              2020-01-03
_audit_creation_method            'Materials Studio'
_symmetry_space_group_name_H-M    'P1'
_symmetry_Int_Tables_number       1
_symmetry_cell_setting            triclinic
loop_
_symmetry_equiv_pos_as_xyz
  x,y,z
_cell_length_a                    23.5747
_cell_length_b                    25.6799
_cell_length_c                    24.5671
_cell_angle_alpha                 93.0799
_cell_angle_beta                  101.5275
_cell_angle_gamma                 93.6438
loop_
_atom_site_label
_atom_site_type_symbol
_atom_site_fract_x
_atom_site_fract_y
_atom_site_fract_z
_atom_site_U_iso_or_equiv
_atom_site_adp_type
_atom_site_occupancy
C1     C     0.01473   0.26480   0.24899   0.00000  Uiso   1.00
C2     C     0.05816   0.18703   0.41247   0.00000  Uiso   1.00
C3     C     0.02259   0.31928   0.24951   0.00000  Uiso   1.00
C4     C     0.03605   0.17136   0.35452   0.00000  Uiso   1.00
C5     C     0.31065   0.01399   0.25185   0.00000  Uiso   1.00
C6     C     0.31863   0.06852   0.25142   0.00000  Uiso   1.00
C7     C     0.29742   0.16389   0.14516   0.00000  Uiso   1.00
C8     C     0.25940   0.09468   0.00587   0.00000  Uiso   1.00
C9     C     0.27667   0.15688   0.08535   0.00000  Uiso   1.00
C10    C     0.04726   0.23734   0.43070   0.00000  Uiso   1.00
C11    C     0.08930   0.26679   0.46987   0.00000  Uiso   1.00
C12    C     0.14773   0.19152   0.48165   0.00000  Uiso   1.00
C13    C     0.14076   0.24522   0.49243   0.00000  Uiso   1.00
C14    C     0.05181   0.09411   0.04409   0.00000  Uiso   1.00
C15    C     0.13021   0.07431   0.18892   0.00000  Uiso   1.00
C16    C     0.16232   0.21324   0.11242   0.00000  Uiso   1.00
C17    C     0.10631   0.16269   0.43973   0.00000  Uiso   1.00
C18    C     0.19591   0.16605   0.00880   0.00000  Uiso   1.00
C19    C     0.20821   0.11746   0.48479   0.00000  Uiso   1.00
C20    C     0.16782   0.09048   0.44191   0.00000  Uiso   1.00
C21    C     0.11577   0.11137   0.42213   0.00000  Uiso   1.00
C22    C     0.22887   0.18406   0.06171   0.00000  Uiso   1.00
C23    C     0.29572   0.11577   0.05497   0.00000  Uiso   1.00
H24    H     0.26759   0.33041   0.25353   0.00000  Uiso   1.00
H25    H     0.06116   0.13534   0.03476   0.00000  Uiso   1.00
H26    H     0.03765   0.06896   0.00486   0.00000  Uiso   1.00
H27    H     0.09305   0.08002   0.06636   0.00000  Uiso   1.00
H28    H     0.08395   0.07681   0.16970   0.00000  Uiso   1.00
H29    H     0.13641   0.05656   0.22972   0.00000  Uiso   1.00
H30    H     0.14865   0.04826   0.16054   0.00000  Uiso   1.00
H31    H     0.17050   0.22363   0.15782   0.00000  Uiso   1.00
H32    H     0.14603   0.17131   0.10478   0.00000  Uiso   1.00
H33    H     0.12735   0.23753   0.09361   0.00000  Uiso   1.00
H34    H     0.17737   0.20581   0.29454   0.00000  Uiso   1.00
H35    H     0.17541   0.05217   0.42525   0.00000  Uiso   1.00
H36    H     0.26942   0.05858   0.48613   0.00000  Uiso   1.00
H37    H     0.01045   0.25647   0.40907   0.00000  Uiso   1.00
H38    H     0.17481   0.27135   0.01753   0.00000  Uiso   1.00
H39    H     0.08371   0.30746   0.47998   0.00000  Uiso   1.00
H40    H     0.08386   0.08804   0.39097   0.00000  Uiso   1.00
H41    H     0.06558   0.00272   0.24836   0.00000  Uiso   1.00
N42    N     0.14493   0.15223   0.23542   0.00000  Uiso   1.00
N43    N     0.18840   0.18110   0.26457   0.00000  Uiso   1.00
O44    O     0.29769   0.24629   0.25357   0.00000  Uiso   1.00
O45    O     0.16048   0.12344   0.19414   0.00000  Uiso   1.00
O46    O     0.21390   0.22608   0.09287   0.00000  Uiso   1.00
O47    O     0.05742   0.23704   0.24423   0.00000  Uiso   1.00
O48    O     0.31490   0.17358   0.33380   0.00000  Uiso   1.00
O49    O     0.07463   0.16433   0.32446   0.00000  Uiso   1.00
O50    O     0.27592   0.09629   0.25576   0.00000  Uiso   1.00
O51    O     0.03565   0.08704   0.24642   0.00000  Uiso   1.00
O52    O     0.25870   0.16901   0.17554   0.00000  Uiso   1.00
O53    O     0.01843   0.15976   0.16620   0.00000  Uiso   1.00
O54    O     0.01047   0.09034   0.07837   0.00000  Uiso   1.00
Zn55   Zn    0.27119   0.17284   0.25623   0.00000  Uiso   1.00
Zn56   Zn    0.06214   0.16049   0.24376   0.00000  Uiso   1.00
C57    C     0.34806   0.26480   0.24899   0.00000  Uiso   1.00
C58    C     0.39150   0.18703   0.41247   0.00000  Uiso   1.00
C59    C     0.35592   0.31928   0.24951   0.00000  Uiso   1.00
C60    C     0.36938   0.17136   0.35452   0.00000  Uiso   1.00
C61    C     0.64398   0.01399   0.25185   0.00000  Uiso   1.00
C62    C     0.65196   0.06852   0.25142   0.00000  Uiso   1.00
C63    C     0.63075   0.16389   0.14516   0.00000  Uiso   1.00
C64    C     0.59273   0.09468   0.00587   0.00000  Uiso   1.00
C65    C     0.61001   0.15688   0.08535   0.00000  Uiso   1.00
C66    C     0.38060   0.23734   0.43070   0.00000  Uiso   1.00
C67    C     0.42263   0.26679   0.46987   0.00000  Uiso   1.00
C68    C     0.48106   0.19152   0.48165   0.00000  Uiso   1.00
C69    C     0.47409   0.24522   0.49243   0.00000  Uiso   1.00
C70    C     0.38515   0.09411   0.04409   0.00000  Uiso   1.00
C71    C     0.46355   0.07431   0.18892   0.00000  Uiso   1.00
C72    C     0.49566   0.21324   0.11242   0.00000  Uiso   1.00
C73    C     0.43964   0.16269   0.43973   0.00000  Uiso   1.00
C74    C     0.52924   0.16605   0.00880   0.00000  Uiso   1.00
C75    C     0.54155   0.11746   0.48479   0.00000  Uiso   1.00
C76    C     0.50115   0.09048   0.44191   0.00000  Uiso   1.00
C77    C     0.44911   0.11137   0.42213   0.00000  Uiso   1.00
C78    C     0.56220   0.18406   0.06171   0.00000  Uiso   1.00
C79    C     0.62905   0.11577   0.05497   0.00000  Uiso   1.00
H80    H     0.60092   0.33041   0.25353   0.00000  Uiso   1.00
H81    H     0.39449   0.13534   0.03476   0.00000  Uiso   1.00
H82    H     0.37098   0.06896   0.00486   0.00000  Uiso   1.00
H83    H     0.42638   0.08002   0.06636   0.00000  Uiso   1.00
H84    H     0.41728   0.07681   0.16970   0.00000  Uiso   1.00
H85    H     0.46975   0.05656   0.22972   0.00000  Uiso   1.00
H86    H     0.48198   0.04826   0.16054   0.00000  Uiso   1.00
H87    H     0.50384   0.22363   0.15782   0.00000  Uiso   1.00
H88    H     0.47936   0.17131   0.10478   0.00000  Uiso   1.00
H89    H     0.46069   0.23753   0.09361   0.00000  Uiso   1.00
H90    H     0.51071   0.20581   0.29454   0.00000  Uiso   1.00
H91    H     0.50874   0.05217   0.42525   0.00000  Uiso   1.00
H92    H     0.60275   0.05858   0.48613   0.00000  Uiso   1.00
H93    H     0.34378   0.25647   0.40907   0.00000  Uiso   1.00
H94    H     0.50815   0.27135   0.01753   0.00000  Uiso   1.00
H95    H     0.41704   0.30746   0.47998   0.00000  Uiso   1.00
H96    H     0.41720   0.08804   0.39097   0.00000  Uiso   1.00
H97    H     0.39891   0.00272   0.24836   0.00000  Uiso   1.00
N98    N     0.47827   0.15223   0.23542   0.00000  Uiso   1.00
N99    N     0.52173   0.18110   0.26457   0.00000  Uiso   1.00
O100   O     0.63102   0.24629   0.25357   0.00000  Uiso   1.00
O101   O     0.49381   0.12344   0.19414   0.00000  Uiso   1.00
O102   O     0.54723   0.22608   0.09287   0.00000  Uiso   1.00
O103   O     0.39075   0.23704   0.24423   0.00000  Uiso   1.00
O104   O     0.64823   0.17358   0.33380   0.00000  Uiso   1.00
O105   O     0.40796   0.16433   0.32446   0.00000  Uiso   1.00
O106   O     0.60925   0.09629   0.25576   0.00000  Uiso   1.00
O107   O     0.36898   0.08704   0.24642   0.00000  Uiso   1.00
O108   O     0.59204   0.16901   0.17554   0.00000  Uiso   1.00
O109   O     0.35177   0.15976   0.16620   0.00000  Uiso   1.00
O110   O     0.34381   0.09034   0.07837   0.00000  Uiso   1.00
Zn111  Zn    0.60453   0.17284   0.25623   0.00000  Uiso   1.00
Zn112  Zn    0.39547   0.16049   0.24376   0.00000  Uiso   1.00
C113   C     0.68140   0.26480   0.24899   0.00000  Uiso   1.00
C114   C     0.72483   0.18703   0.41247   0.00000  Uiso   1.00
C115   C     0.68926   0.31928   0.24951   0.00000  Uiso   1.00
C116   C     0.70271   0.17136   0.35452   0.00000  Uiso   1.00
C117   C     0.97731   0.01399   0.25185   0.00000  Uiso   1.00
C118   C     0.98530   0.06852   0.25142   0.00000  Uiso   1.00
C119   C     0.96408   0.16389   0.14516   0.00000  Uiso   1.00
C120   C     0.92606   0.09468   0.00587   0.00000  Uiso   1.00
C121   C     0.94334   0.15688   0.08535   0.00000  Uiso   1.00
C122   C     0.71393   0.23734   0.43070   0.00000  Uiso   1.00
C123   C     0.75596   0.26679   0.46987   0.00000  Uiso   1.00
C124   C     0.81440   0.19152   0.48165   0.00000  Uiso   1.00
C125   C     0.80742   0.24522   0.49243   0.00000  Uiso   1.00
C126   C     0.71848   0.09411   0.04409   0.00000  Uiso   1.00
C127   C     0.79688   0.07431   0.18892   0.00000  Uiso   1.00
C128   C     0.82899   0.21324   0.11242   0.00000  Uiso   1.00
C129   C     0.77297   0.16269   0.43973   0.00000  Uiso   1.00
C130   C     0.86257   0.16605   0.00880   0.00000  Uiso   1.00
C131   C     0.87488   0.11746   0.48479   0.00000  Uiso   1.00
C132   C     0.83448   0.09048   0.44191   0.00000  Uiso   1.00
C133   C     0.78244   0.11137   0.42213   0.00000  Uiso   1.00
C134   C     0.89554   0.18406   0.06171   0.00000  Uiso   1.00
C135   C     0.96239   0.11577   0.05497   0.00000  Uiso   1.00
H136   H     0.93425   0.33041   0.25353   0.00000  Uiso   1.00
H137   H     0.72783   0.13534   0.03476   0.00000  Uiso   1.00
H138   H     0.70431   0.06896   0.00486   0.00000  Uiso   1.00
H139   H     0.75971   0.08002   0.06636   0.00000  Uiso   1.00
H140   H     0.75062   0.07681   0.16970   0.00000  Uiso   1.00
H141   H     0.80308   0.05656   0.22972   0.00000  Uiso   1.00
H142   H     0.81532   0.04826   0.16054   0.00000  Uiso   1.00
H143   H     0.83717   0.22363   0.15782   0.00000  Uiso   1.00
H144   H     0.81269   0.17131   0.10478   0.00000  Uiso   1.00
H145   H     0.79402   0.23753   0.09361   0.00000  Uiso   1.00
H146   H     0.84404   0.20581   0.29454   0.00000  Uiso   1.00
H147   H     0.84207   0.05217   0.42525   0.00000  Uiso   1.00
H148   H     0.93608   0.05858   0.48613   0.00000  Uiso   1.00
H149   H     0.67711   0.25647   0.40907   0.00000  Uiso   1.00
H150   H     0.84148   0.27135   0.01753   0.00000  Uiso   1.00
H151   H     0.75038   0.30746   0.47998   0.00000  Uiso   1.00
H152   H     0.75053   0.08804   0.39097   0.00000  Uiso   1.00
H153   H     0.73224   0.00272   0.24836   0.00000  Uiso   1.00
N154   N     0.81160   0.15223   0.23542   0.00000  Uiso   1.00
N155   N     0.85507   0.18110   0.26457   0.00000  Uiso   1.00
O156   O     0.96435   0.24629   0.25357   0.00000  Uiso   1.00
O157   O     0.82715   0.12344   0.19414   0.00000  Uiso   1.00
O158   O     0.88057   0.22608   0.09287   0.00000  Uiso   1.00
O159   O     0.72408   0.23704   0.24423   0.00000  Uiso   1.00
O160   O     0.98157   0.17358   0.33380   0.00000  Uiso   1.00
O161   O     0.74130   0.16433   0.32446   0.00000  Uiso   1.00
O162   O     0.94258   0.09629   0.25576   0.00000  Uiso   1.00
O163   O     0.70231   0.08704   0.24642   0.00000  Uiso   1.00
O164   O     0.92537   0.16901   0.17554   0.00000  Uiso   1.00
O165   O     0.68510   0.15976   0.16620   0.00000  Uiso   1.00
O166   O     0.67714   0.09034   0.07837   0.00000  Uiso   1.00
Zn167  Zn    0.93786   0.17284   0.25623   0.00000  Uiso   1.00
Zn168  Zn    0.72881   0.16049   0.24376   0.00000  Uiso   1.00
C169   C     0.01473   0.59813   0.24899   0.00000  Uiso   1.00
C170   C     0.05816   0.52036   0.41247   0.00000  Uiso   1.00
C171   C     0.02259   0.65262   0.24951   0.00000  Uiso   1.00
C172   C     0.03605   0.50470   0.35452   0.00000  Uiso   1.00
C173   C     0.31065   0.34733   0.25185   0.00000  Uiso   1.00
C174   C     0.31863   0.40185   0.25142   0.00000  Uiso   1.00
C175   C     0.29742   0.49722   0.14516   0.00000  Uiso   1.00
C176   C     0.25940   0.42801   0.00587   0.00000  Uiso   1.00
C177   C     0.27667   0.49021   0.08535   0.00000  Uiso   1.00
C178   C     0.04726   0.57067   0.43070   0.00000  Uiso   1.00
C179   C     0.08930   0.60012   0.46987   0.00000  Uiso   1.00
C180   C     0.14773   0.52485   0.48165   0.00000  Uiso   1.00
C181   C     0.14076   0.57855   0.49243   0.00000  Uiso   1.00
C182   C     0.05181   0.42744   0.04409   0.00000  Uiso   1.00
C183   C     0.13021   0.40764   0.18892   0.00000  Uiso   1.00
C184   C     0.16232   0.54657   0.11242   0.00000  Uiso   1.00
C185   C     0.10631   0.49603   0.43973   0.00000  Uiso   1.00
C186   C     0.19591   0.49939   0.00880   0.00000  Uiso   1.00
C187   C     0.20821   0.45079   0.48479   0.00000  Uiso   1.00
C188   C     0.16782   0.42381   0.44191   0.00000  Uiso   1.00
C189   C     0.11577   0.44470   0.42213   0.00000  Uiso   1.00
C190   C     0.22887   0.51739   0.06171   0.00000  Uiso   1.00
C191   C     0.29572   0.44911   0.05497   0.00000  Uiso   1.00
H192   H     0.26759   0.66374   0.25353   0.00000  Uiso   1.00
H193   H     0.06116   0.46867   0.03476   0.00000  Uiso   1.00
H194   H     0.03765   0.40230   0.00486   0.00000  Uiso   1.00
H195   H     0.09305   0.41335   0.06636   0.00000  Uiso   1.00
H196   H     0.08395   0.41014   0.16970   0.00000  Uiso   1.00
H197   H     0.13641   0.38989   0.22972   0.00000  Uiso   1.00
H198   H     0.14865   0.38159   0.16054   0.00000  Uiso   1.00
H199   H     0.17050   0.55696   0.15782   0.00000  Uiso   1.00
H200   H     0.14603   0.50465   0.10478   0.00000  Uiso   1.00
H201   H     0.12735   0.57087   0.09361   0.00000  Uiso   1.00
H202   H     0.17737   0.53914   0.29454   0.00000  Uiso   1.00
H203   H     0.17541   0.38550   0.42525   0.00000  Uiso   1.00
H204   H     0.26942   0.39192   0.48613   0.00000  Uiso   1.00
H205   H     0.01045   0.58980   0.40907   0.00000  Uiso   1.00
H206   H     0.17481   0.60469   0.01753   0.00000  Uiso   1.00
H207   H     0.08371   0.64080   0.47998   0.00000  Uiso   1.00
H208   H     0.08386   0.42137   0.39097   0.00000  Uiso   1.00
H209   H     0.06558   0.33605   0.24836   0.00000  Uiso   1.00
N210   N     0.14493   0.48556   0.23542   0.00000  Uiso   1.00
N211   N     0.18840   0.51444   0.26457   0.00000  Uiso   1.00
O212   O     0.29769   0.57963   0.25357   0.00000  Uiso   1.00
O213   O     0.16048   0.45677   0.19414   0.00000  Uiso   1.00
O214   O     0.21390   0.55941   0.09287   0.00000  Uiso   1.00
O215   O     0.05742   0.57038   0.24423   0.00000  Uiso   1.00
O216   O     0.31490   0.50691   0.33380   0.00000  Uiso   1.00
O217   O     0.07463   0.49766   0.32446   0.00000  Uiso   1.00
O218   O     0.27592   0.42962   0.25576   0.00000  Uiso   1.00
O219   O     0.03565   0.42037   0.24642   0.00000  Uiso   1.00
O220   O     0.25870   0.50234   0.17554   0.00000  Uiso   1.00
O221   O     0.01843   0.49309   0.16620   0.00000  Uiso   1.00
O222   O     0.01047   0.42367   0.07837   0.00000  Uiso   1.00
Zn223  Zn    0.27119   0.50618   0.25623   0.00000  Uiso   1.00
Zn224  Zn    0.06214   0.49382   0.24376   0.00000  Uiso   1.00
C225   C     0.34806   0.59813   0.24899   0.00000  Uiso   1.00
C226   C     0.39150   0.52036   0.41247   0.00000  Uiso   1.00
C227   C     0.35592   0.65262   0.24951   0.00000  Uiso   1.00
C228   C     0.36938   0.50470   0.35452   0.00000  Uiso   1.00
C229   C     0.64398   0.34733   0.25185   0.00000  Uiso   1.00
C230   C     0.65196   0.40185   0.25142   0.00000  Uiso   1.00
C231   C     0.63075   0.49722   0.14516   0.00000  Uiso   1.00
C232   C     0.59273   0.42801   0.00587   0.00000  Uiso   1.00
C233   C     0.61001   0.49021   0.08535   0.00000  Uiso   1.00
C234   C     0.38060   0.57067   0.43070   0.00000  Uiso   1.00
C235   C     0.42263   0.60012   0.46987   0.00000  Uiso   1.00
C236   C     0.48106   0.52485   0.48165   0.00000  Uiso   1.00
C237   C     0.47409   0.57855   0.49243   0.00000  Uiso   1.00
C238   C     0.38515   0.42744   0.04409   0.00000  Uiso   1.00
C239   C     0.46355   0.40764   0.18892   0.00000  Uiso   1.00
C240   C     0.49566   0.54657   0.11242   0.00000  Uiso   1.00
C241   C     0.43964   0.49603   0.43973   0.00000  Uiso   1.00
C242   C     0.52924   0.49939   0.00880   0.00000  Uiso   1.00
C243   C     0.54155   0.45079   0.48479   0.00000  Uiso   1.00
C244   C     0.50115   0.42381   0.44191   0.00000  Uiso   1.00
C245   C     0.44911   0.44470   0.42213   0.00000  Uiso   1.00
C246   C     0.56220   0.51739   0.06171   0.00000  Uiso   1.00
C247   C     0.62905   0.44911   0.05497   0.00000  Uiso   1.00
H248   H     0.60092   0.66374   0.25353   0.00000  Uiso   1.00
H249   H     0.39449   0.46867   0.03476   0.00000  Uiso   1.00
H250   H     0.37098   0.40230   0.00486   0.00000  Uiso   1.00
H251   H     0.42638   0.41335   0.06636   0.00000  Uiso   1.00
H252   H     0.41728   0.41014   0.16970   0.00000  Uiso   1.00
H253   H     0.46975   0.38989   0.22972   0.00000  Uiso   1.00
H254   H     0.48198   0.38159   0.16054   0.00000  Uiso   1.00
H255   H     0.50384   0.55696   0.15782   0.00000  Uiso   1.00
H256   H     0.47936   0.50465   0.10478   0.00000  Uiso   1.00
H257   H     0.46069   0.57087   0.09361   0.00000  Uiso   1.00
H258   H     0.51071   0.53914   0.29454   0.00000  Uiso   1.00
H259   H     0.50874   0.38550   0.42525   0.00000  Uiso   1.00
H260   H     0.60275   0.39192   0.48613   0.00000  Uiso   1.00
H261   H     0.34378   0.58980   0.40907   0.00000  Uiso   1.00
H262   H     0.50815   0.60469   0.01753   0.00000  Uiso   1.00
H263   H     0.41704   0.64080   0.47998   0.00000  Uiso   1.00
H264   H     0.41720   0.42137   0.39097   0.00000  Uiso   1.00
H265   H     0.39891   0.33605   0.24836   0.00000  Uiso   1.00
N266   N     0.47827   0.48556   0.23542   0.00000  Uiso   1.00
N267   N     0.52173   0.51444   0.26457   0.00000  Uiso   1.00
O268   O     0.63102   0.57963   0.25357   0.00000  Uiso   1.00
O269   O     0.49381   0.45677   0.19414   0.00000  Uiso   1.00
O270   O     0.54723   0.55941   0.09287   0.00000  Uiso   1.00
O271   O     0.39075   0.57038   0.24423   0.00000  Uiso   1.00
O272   O     0.64823   0.50691   0.33380   0.00000  Uiso   1.00
O273   O     0.40796   0.49766   0.32446   0.00000  Uiso   1.00
O274   O     0.60925   0.42962   0.25576   0.00000  Uiso   1.00
O275   O     0.36898   0.42037   0.24642   0.00000  Uiso   1.00
O276   O     0.59204   0.50234   0.17554   0.00000  Uiso   1.00
O277   O     0.35177   0.49309   0.16620   0.00000  Uiso   1.00
O278   O     0.34381   0.42367   0.07837   0.00000  Uiso   1.00
Zn279  Zn    0.60453   0.50618   0.25623   0.00000  Uiso   1.00
Zn280  Zn    0.39547   0.49382   0.24376   0.00000  Uiso   1.00
C281   C     0.68140   0.59813   0.24899   0.00000  Uiso   1.00
C282   C     0.72483   0.52036   0.41247   0.00000  Uiso   1.00
C283   C     0.68926   0.65262   0.24951   0.00000  Uiso   1.00
C284   C     0.70271   0.50470   0.35452   0.00000  Uiso   1.00
C285   C     0.97731   0.34733   0.25185   0.00000  Uiso   1.00
C286   C     0.98530   0.40185   0.25142   0.00000  Uiso   1.00
C287   C     0.96408   0.49722   0.14516   0.00000  Uiso   1.00
C288   C     0.92606   0.42801   0.00587   0.00000  Uiso   1.00
C289   C     0.94334   0.49021   0.08535   0.00000  Uiso   1.00
C290   C     0.71393   0.57067   0.43070   0.00000  Uiso   1.00
C291   C     0.75596   0.60012   0.46987   0.00000  Uiso   1.00
C292   C     0.81440   0.52485   0.48165   0.00000  Uiso   1.00
C293   C     0.80742   0.57855   0.49243   0.00000  Uiso   1.00
C294   C     0.71848   0.42744   0.04409   0.00000  Uiso   1.00
C295   C     0.79688   0.40764   0.18892   0.00000  Uiso   1.00
C296   C     0.82899   0.54657   0.11242   0.00000  Uiso   1.00
C297   C     0.77297   0.49603   0.43973   0.00000  Uiso   1.00
C298   C     0.86257   0.49939   0.00880   0.00000  Uiso   1.00
C299   C     0.87488   0.45079   0.48479   0.00000  Uiso   1.00
C300   C     0.83448   0.42381   0.44191   0.00000  Uiso   1.00
C301   C     0.78244   0.44470   0.42213   0.00000  Uiso   1.00
C302   C     0.89554   0.51739   0.06171   0.00000  Uiso   1.00
C303   C     0.96239   0.44911   0.05497   0.00000  Uiso   1.00
H304   H     0.93425   0.66374   0.25353   0.00000  Uiso   1.00
H305   H     0.72783   0.46867   0.03476   0.00000  Uiso   1.00
H306   H     0.70431   0.40230   0.00486   0.00000  Uiso   1.00
H307   H     0.75971   0.41335   0.06636   0.00000  Uiso   1.00
H308   H     0.75062   0.41014   0.16970   0.00000  Uiso   1.00
H309   H     0.80308   0.38989   0.22972   0.00000  Uiso   1.00
H310   H     0.81532   0.38159   0.16054   0.00000  Uiso   1.00
H311   H     0.83717   0.55696   0.15782   0.00000  Uiso   1.00
H312   H     0.81269   0.50465   0.10478   0.00000  Uiso   1.00
H313   H     0.79402   0.57087   0.09361   0.00000  Uiso   1.00
H314   H     0.84404   0.53914   0.29454   0.00000  Uiso   1.00
H315   H     0.84207   0.38550   0.42525   0.00000  Uiso   1.00
H316   H     0.93608   0.39192   0.48613   0.00000  Uiso   1.00
H317   H     0.67711   0.58980   0.40907   0.00000  Uiso   1.00
H318   H     0.84148   0.60469   0.01753   0.00000  Uiso   1.00
H319   H     0.75038   0.64080   0.47998   0.00000  Uiso   1.00
H320   H     0.75053   0.42137   0.39097   0.00000  Uiso   1.00
H321   H     0.73224   0.33605   0.24836   0.00000  Uiso   1.00
N322   N     0.81160   0.48556   0.23542   0.00000  Uiso   1.00
N323   N     0.85507   0.51444   0.26457   0.00000  Uiso   1.00
O324   O     0.96435   0.57963   0.25357   0.00000  Uiso   1.00
O325   O     0.82715   0.45677   0.19414   0.00000  Uiso   1.00
O326   O     0.88057   0.55941   0.09287   0.00000  Uiso   1.00
O327   O     0.72408   0.57038   0.24423   0.00000  Uiso   1.00
O328   O     0.98157   0.50691   0.33380   0.00000  Uiso   1.00
O329   O     0.74130   0.49766   0.32446   0.00000  Uiso   1.00
O330   O     0.94258   0.42962   0.25576   0.00000  Uiso   1.00
O331   O     0.70231   0.42037   0.24642   0.00000  Uiso   1.00
O332   O     0.92537   0.50234   0.17554   0.00000  Uiso   1.00
O333   O     0.68510   0.49309   0.16620   0.00000  Uiso   1.00
O334   O     0.67714   0.42367   0.07837   0.00000  Uiso   1.00
Zn335  Zn    0.93786   0.50618   0.25623   0.00000  Uiso   1.00
Zn336  Zn    0.72881   0.49382   0.24376   0.00000  Uiso   1.00
C337   C     0.01473   0.93146   0.24899   0.00000  Uiso   1.00
C338   C     0.05816   0.85370   0.41247   0.00000  Uiso   1.00
C339   C     0.02259   0.98595   0.24951   0.00000  Uiso   1.00
C340   C     0.03605   0.83803   0.35452   0.00000  Uiso   1.00
C341   C     0.31065   0.68066   0.25185   0.00000  Uiso   1.00
C342   C     0.31863   0.73518   0.25142   0.00000  Uiso   1.00
C343   C     0.29742   0.83056   0.14516   0.00000  Uiso   1.00
C344   C     0.25940   0.76135   0.00587   0.00000  Uiso   1.00
C345   C     0.27667   0.82355   0.08535   0.00000  Uiso   1.00
C346   C     0.04726   0.90401   0.43070   0.00000  Uiso   1.00
C347   C     0.08930   0.93346   0.46987   0.00000  Uiso   1.00
C348   C     0.14773   0.85818   0.48165   0.00000  Uiso   1.00
C349   C     0.14076   0.91188   0.49243   0.00000  Uiso   1.00
C350   C     0.05181   0.76078   0.04409   0.00000  Uiso   1.00
C351   C     0.13021   0.74098   0.18892   0.00000  Uiso   1.00
C352   C     0.16232   0.87990   0.11242   0.00000  Uiso   1.00
C353   C     0.10631   0.82936   0.43973   0.00000  Uiso   1.00
C354   C     0.19591   0.83272   0.00880   0.00000  Uiso   1.00
C355   C     0.20821   0.78412   0.48479   0.00000  Uiso   1.00
C356   C     0.16782   0.75715   0.44191   0.00000  Uiso   1.00
C357   C     0.11577   0.77804   0.42213   0.00000  Uiso   1.00
C358   C     0.22887   0.85072   0.06171   0.00000  Uiso   1.00
C359   C     0.29572   0.78244   0.05497   0.00000  Uiso   1.00
H360   H     0.26759   0.99707   0.25353   0.00000  Uiso   1.00
H361   H     0.06116   0.80201   0.03476   0.00000  Uiso   1.00
H362   H     0.03765   0.73563   0.00486   0.00000  Uiso   1.00
H363   H     0.09305   0.74668   0.06636   0.00000  Uiso   1.00
H364   H     0.08395   0.74347   0.16970   0.00000  Uiso   1.00
H365   H     0.13641   0.72322   0.22972   0.00000  Uiso   1.00
H366   H     0.14865   0.71492   0.16054   0.00000  Uiso   1.00
H367   H     0.17050   0.89030   0.15782   0.00000  Uiso   1.00
H368   H     0.14603   0.83798   0.10478   0.00000  Uiso   1.00
H369   H     0.12735   0.90420   0.09361   0.00000  Uiso   1.00
H370   H     0.17737   0.87248   0.29454   0.00000  Uiso   1.00
H371   H     0.17541   0.71883   0.42525   0.00000  Uiso   1.00
H372   H     0.26942   0.72525   0.48613   0.00000  Uiso   1.00
H373   H     0.01045   0.92313   0.40907   0.00000  Uiso   1.00
H374   H     0.17481   0.93802   0.01753   0.00000  Uiso   1.00
H375   H     0.08371   0.97413   0.47998   0.00000  Uiso   1.00
H376   H     0.08386   0.75470   0.39097   0.00000  Uiso   1.00
H377   H     0.06558   0.66939   0.24836   0.00000  Uiso   1.00
N378   N     0.14493   0.81890   0.23542   0.00000  Uiso   1.00
N379   N     0.18840   0.84777   0.26457   0.00000  Uiso   1.00
O380   O     0.29769   0.91296   0.25357   0.00000  Uiso   1.00
O381   O     0.16048   0.79010   0.19414   0.00000  Uiso   1.00
O382   O     0.21390   0.89274   0.09287   0.00000  Uiso   1.00
O383   O     0.05742   0.90371   0.24423   0.00000  Uiso   1.00
O384   O     0.31490   0.84024   0.33380   0.00000  Uiso   1.00
O385   O     0.07463   0.83099   0.32446   0.00000  Uiso   1.00
O386   O     0.27592   0.76296   0.25576   0.00000  Uiso   1.00
O387   O     0.03565   0.75371   0.24642   0.00000  Uiso   1.00
O388   O     0.25870   0.83567   0.17554   0.00000  Uiso   1.00
O389   O     0.01843   0.82642   0.16620   0.00000  Uiso   1.00
O390   O     0.01047   0.75700   0.07837   0.00000  Uiso   1.00
Zn391  Zn    0.27119   0.83951   0.25623   0.00000  Uiso   1.00
Zn392  Zn    0.06214   0.82716   0.24376   0.00000  Uiso   1.00
C393   C     0.34806   0.93146   0.24899   0.00000  Uiso   1.00
C394   C     0.39150   0.85370   0.41247   0.00000  Uiso   1.00
C395   C     0.35592   0.98595   0.24951   0.00000  Uiso   1.00
C396   C     0.36938   0.83803   0.35452   0.00000  Uiso   1.00
C397   C     0.64398   0.68066   0.25185   0.00000  Uiso   1.00
C398   C     0.65196   0.73518   0.25142   0.00000  Uiso   1.00
C399   C     0.63075   0.83056   0.14516   0.00000  Uiso   1.00
C400   C     0.59273   0.76135   0.00587   0.00000  Uiso   1.00
C401   C     0.61001   0.82355   0.08535   0.00000  Uiso   1.00
C402   C     0.38060   0.90401   0.43070   0.00000  Uiso   1.00
C403   C     0.42263   0.93346   0.46987   0.00000  Uiso   1.00
C404   C     0.48106   0.85818   0.48165   0.00000  Uiso   1.00
C405   C     0.47409   0.91188   0.49243   0.00000  Uiso   1.00
C406   C     0.38515   0.76078   0.04409   0.00000  Uiso   1.00
C407   C     0.46355   0.74098   0.18892   0.00000  Uiso   1.00
C408   C     0.49566   0.87990   0.11242   0.00000  Uiso   1.00
C409   C     0.43964   0.82936   0.43973   0.00000  Uiso   1.00
C410   C     0.52924   0.83272   0.00880   0.00000  Uiso   1.00
C411   C     0.54155   0.78412   0.48479   0.00000  Uiso   1.00
C412   C     0.50115   0.75715   0.44191   0.00000  Uiso   1.00
C413   C     0.44911   0.77804   0.42213   0.00000  Uiso   1.00
C414   C     0.56220   0.85072   0.06171   0.00000  Uiso   1.00
C415   C     0.62905   0.78244   0.05497   0.00000  Uiso   1.00
H416   H     0.60092   0.99707   0.25353   0.00000  Uiso   1.00
H417   H     0.39449   0.80201   0.03476   0.00000  Uiso   1.00
H418   H     0.37098   0.73563   0.00486   0.00000  Uiso   1.00
H419   H     0.42638   0.74668   0.06636   0.00000  Uiso   1.00
H420   H     0.41728   0.74347   0.16970   0.00000  Uiso   1.00
H421   H     0.46975   0.72322   0.22972   0.00000  Uiso   1.00
H422   H     0.48198   0.71492   0.16054   0.00000  Uiso   1.00
H423   H     0.50384   0.89030   0.15782   0.00000  Uiso   1.00
H424   H     0.47936   0.83798   0.10478   0.00000  Uiso   1.00
H425   H     0.46069   0.90420   0.09361   0.00000  Uiso   1.00
H426   H     0.51071   0.87248   0.29454   0.00000  Uiso   1.00
H427   H     0.50874   0.71883   0.42525   0.00000  Uiso   1.00
H428   H     0.60275   0.72525   0.48613   0.00000  Uiso   1.00
H429   H     0.34378   0.92313   0.40907   0.00000  Uiso   1.00
H430   H     0.50815   0.93802   0.01753   0.00000  Uiso   1.00
H431   H     0.41704   0.97413   0.47998   0.00000  Uiso   1.00
H432   H     0.41720   0.75470   0.39097   0.00000  Uiso   1.00
H433   H     0.39891   0.66939   0.24836   0.00000  Uiso   1.00
N434   N     0.47827   0.81890   0.23542   0.00000  Uiso   1.00
N435   N     0.52173   0.84777   0.26457   0.00000  Uiso   1.00
O436   O     0.63102   0.91296   0.25357   0.00000  Uiso   1.00
O437   O     0.49381   0.79010   0.19414   0.00000  Uiso   1.00
O438   O     0.54723   0.89274   0.09287   0.00000  Uiso   1.00
O439   O     0.39075   0.90371   0.24423   0.00000  Uiso   1.00
O440   O     0.64823   0.84024   0.33380   0.00000  Uiso   1.00
O441   O     0.40796   0.83099   0.32446   0.00000  Uiso   1.00
O442   O     0.60925   0.76296   0.25576   0.00000  Uiso   1.00
O443   O     0.36898   0.75371   0.24642   0.00000  Uiso   1.00
O444   O     0.59204   0.83567   0.17554   0.00000  Uiso   1.00
O445   O     0.35177   0.82642   0.16620   0.00000  Uiso   1.00
O446   O     0.34381   0.75700   0.07837   0.00000  Uiso   1.00
Zn447  Zn    0.60453   0.83951   0.25623   0.00000  Uiso   1.00
Zn448  Zn    0.39547   0.82716   0.24376   0.00000  Uiso   1.00
C449   C     0.68140   0.93146   0.24899   0.00000  Uiso   1.00
C450   C     0.72483   0.85370   0.41247   0.00000  Uiso   1.00
C451   C     0.68926   0.98595   0.24951   0.00000  Uiso   1.00
C452   C     0.70271   0.83803   0.35452   0.00000  Uiso   1.00
C453   C     0.97731   0.68066   0.25185   0.00000  Uiso   1.00
C454   C     0.98530   0.73518   0.25142   0.00000  Uiso   1.00
C455   C     0.96408   0.83056   0.14516   0.00000  Uiso   1.00
C456   C     0.92606   0.76135   0.00587   0.00000  Uiso   1.00
C457   C     0.94334   0.82355   0.08535   0.00000  Uiso   1.00
C458   C     0.71393   0.90401   0.43070   0.00000  Uiso   1.00
C459   C     0.75596   0.93346   0.46987   0.00000  Uiso   1.00
C460   C     0.81440   0.85818   0.48165   0.00000  Uiso   1.00
C461   C     0.80742   0.91188   0.49243   0.00000  Uiso   1.00
C462   C     0.71848   0.76078   0.04409   0.00000  Uiso   1.00
C463   C     0.79688   0.74098   0.18892   0.00000  Uiso   1.00
C464   C     0.82899   0.87990   0.11242   0.00000  Uiso   1.00
C465   C     0.77297   0.82936   0.43973   0.00000  Uiso   1.00
C466   C     0.86257   0.83272   0.00880   0.00000  Uiso   1.00
C467   C     0.87488   0.78412   0.48479   0.00000  Uiso   1.00
C468   C     0.83448   0.75715   0.44191   0.00000  Uiso   1.00
C469   C     0.78244   0.77804   0.42213   0.00000  Uiso   1.00
C470   C     0.89554   0.85072   0.06171   0.00000  Uiso   1.00
C471   C     0.96239   0.78244   0.05497   0.00000  Uiso   1.00
H472   H     0.93425   0.99707   0.25353   0.00000  Uiso   1.00
H473   H     0.72783   0.80201   0.03476   0.00000  Uiso   1.00
H474   H     0.70431   0.73563   0.00486   0.00000  Uiso   1.00
H475   H     0.75971   0.74668   0.06636   0.00000  Uiso   1.00
H476   H     0.75062   0.74347   0.16970   0.00000  Uiso   1.00
H477   H     0.80308   0.72322   0.22972   0.00000  Uiso   1.00
H478   H     0.81532   0.71492   0.16054   0.00000  Uiso   1.00
H479   H     0.83717   0.89030   0.15782   0.00000  Uiso   1.00
H480   H     0.81269   0.83798   0.10478   0.00000  Uiso   1.00
H481   H     0.79402   0.90420   0.09361   0.00000  Uiso   1.00
H482   H     0.84404   0.87248   0.29454   0.00000  Uiso   1.00
H483   H     0.84207   0.71883   0.42525   0.00000  Uiso   1.00
H484   H     0.93608   0.72525   0.48613   0.00000  Uiso   1.00
H485   H     0.67711   0.92313   0.40907   0.00000  Uiso   1.00
H486   H     0.84148   0.93802   0.01753   0.00000  Uiso   1.00
H487   H     0.75038   0.97413   0.47998   0.00000  Uiso   1.00
H488   H     0.75053   0.75470   0.39097   0.00000  Uiso   1.00
H489   H     0.73224   0.66939   0.24836   0.00000  Uiso   1.00
N490   N     0.81160   0.81890   0.23542   0.00000  Uiso   1.00
N491   N     0.85507   0.84777   0.26457   0.00000  Uiso   1.00
O492   O     0.96435   0.91296   0.25357   0.00000  Uiso   1.00
O493   O     0.82715   0.79010   0.19414   0.00000  Uiso   1.00
O494   O     0.88057   0.89274   0.09287   0.00000  Uiso   1.00
O495   O     0.72408   0.90371   0.24423   0.00000  Uiso   1.00
O496   O     0.98157   0.84024   0.33380   0.00000  Uiso   1.00
O497   O     0.74130   0.83099   0.32446   0.00000  Uiso   1.00
O498   O     0.94258   0.76296   0.25576   0.00000  Uiso   1.00
O499   O     0.70231   0.75371   0.24642   0.00000  Uiso   1.00
O500   O     0.92537   0.83567   0.17554   0.00000  Uiso   1.00
O501   O     0.68510   0.82642   0.16620   0.00000  Uiso   1.00
O502   O     0.67714   0.75700   0.07837   0.00000  Uiso   1.00
Zn503  Zn    0.93786   0.83951   0.25623   0.00000  Uiso   1.00
Zn504  Zn    0.72881   0.82716   0.24376   0.00000  Uiso   1.00
C505   C     0.01473   0.26480   0.74899   0.00000  Uiso   1.00
C506   C     0.05816   0.18703   0.91247   0.00000  Uiso   1.00
C507   C     0.02259   0.31928   0.74951   0.00000  Uiso   1.00
C508   C     0.03605   0.17136   0.85452   0.00000  Uiso   1.00
C509   C     0.31065   0.01399   0.75185   0.00000  Uiso   1.00
C510   C     0.31863   0.06852   0.75142   0.00000  Uiso   1.00
C511   C     0.29742   0.16389   0.64516   0.00000  Uiso   1.00
C512   C     0.25940   0.09468   0.50587   0.00000  Uiso   1.00
C513   C     0.27667   0.15688   0.58535   0.00000  Uiso   1.00
C514   C     0.04726   0.23734   0.93070   0.00000  Uiso   1.00
C515   C     0.08930   0.26679   0.96987   0.00000  Uiso   1.00
C516   C     0.14773   0.19152   0.98165   0.00000  Uiso   1.00
C517   C     0.14076   0.24522   0.99243   0.00000  Uiso   1.00
C518   C     0.05181   0.09411   0.54409   0.00000  Uiso   1.00
C519   C     0.13021   0.07431   0.68892   0.00000  Uiso   1.00
C520   C     0.16232   0.21324   0.61242   0.00000  Uiso   1.00
C521   C     0.10631   0.16269   0.93973   0.00000  Uiso   1.00
C522   C     0.19591   0.16605   0.50880   0.00000  Uiso   1.00
C523   C     0.20821   0.11746   0.98479   0.00000  Uiso   1.00
C524   C     0.16782   0.09048   0.94191   0.00000  Uiso   1.00
C525   C     0.11577   0.11137   0.92213   0.00000  Uiso   1.00
C526   C     0.22887   0.18406   0.56171   0.00000  Uiso   1.00
C527   C     0.29572   0.11577   0.55497   0.00000  Uiso   1.00
H528   H     0.26759   0.33041   0.75353   0.00000  Uiso   1.00
H529   H     0.06116   0.13534   0.53476   0.00000  Uiso   1.00
H530   H     0.03765   0.06896   0.50486   0.00000  Uiso   1.00
H531   H     0.09305   0.08002   0.56636   0.00000  Uiso   1.00
H532   H     0.08395   0.07681   0.66970   0.00000  Uiso   1.00
H533   H     0.13641   0.05656   0.72972   0.00000  Uiso   1.00
H534   H     0.14865   0.04826   0.66054   0.00000  Uiso   1.00
H535   H     0.17050   0.22363   0.65782   0.00000  Uiso   1.00
H536   H     0.14603   0.17131   0.60478   0.00000  Uiso   1.00
H537   H     0.12735   0.23753   0.59361   0.00000  Uiso   1.00
H538   H     0.17737   0.20581   0.79454   0.00000  Uiso   1.00
H539   H     0.17541   0.05217   0.92525   0.00000  Uiso   1.00
H540   H     0.26942   0.05858   0.98613   0.00000  Uiso   1.00
H541   H     0.01045   0.25647   0.90907   0.00000  Uiso   1.00
H542   H     0.17481   0.27135   0.51753   0.00000  Uiso   1.00
H543   H     0.08371   0.30746   0.97998   0.00000  Uiso   1.00
H544   H     0.08386   0.08804   0.89097   0.00000  Uiso   1.00
H545   H     0.06558   0.00272   0.74836   0.00000  Uiso   1.00
N546   N     0.14493   0.15223   0.73542   0.00000  Uiso   1.00
N547   N     0.18840   0.18110   0.76457   0.00000  Uiso   1.00
O548   O     0.29769   0.24629   0.75357   0.00000  Uiso   1.00
O549   O     0.16048   0.12344   0.69414   0.00000  Uiso   1.00
O550   O     0.21390   0.22608   0.59287   0.00000  Uiso   1.00
O551   O     0.05742   0.23704   0.74423   0.00000  Uiso   1.00
O552   O     0.31490   0.17358   0.83380   0.00000  Uiso   1.00
O553   O     0.07463   0.16433   0.82446   0.00000  Uiso   1.00
O554   O     0.27592   0.09629   0.75576   0.00000  Uiso   1.00
O555   O     0.03565   0.08704   0.74642   0.00000  Uiso   1.00
O556   O     0.25870   0.16901   0.67554   0.00000  Uiso   1.00
O557   O     0.01843   0.15976   0.66620   0.00000  Uiso   1.00
O558   O     0.01047   0.09034   0.57837   0.00000  Uiso   1.00
Zn559  Zn    0.27119   0.17284   0.75623   0.00000  Uiso   1.00
Zn560  Zn    0.06214   0.16049   0.74376   0.00000  Uiso   1.00
C561   C     0.34806   0.26480   0.74899   0.00000  Uiso   1.00
C562   C     0.39150   0.18703   0.91247   0.00000  Uiso   1.00
C563   C     0.35592   0.31928   0.74951   0.00000  Uiso   1.00
C564   C     0.36938   0.17136   0.85452   0.00000  Uiso   1.00
C565   C     0.64398   0.01399   0.75185   0.00000  Uiso   1.00
C566   C     0.65196   0.06852   0.75142   0.00000  Uiso   1.00
C567   C     0.63075   0.16389   0.64516   0.00000  Uiso   1.00
C568   C     0.59273   0.09468   0.50587   0.00000  Uiso   1.00
C569   C     0.61001   0.15688   0.58535   0.00000  Uiso   1.00
C570   C     0.38060   0.23734   0.93070   0.00000  Uiso   1.00
C571   C     0.42263   0.26679   0.96987   0.00000  Uiso   1.00
C572   C     0.48106   0.19152   0.98165   0.00000  Uiso   1.00
C573   C     0.47409   0.24522   0.99243   0.00000  Uiso   1.00
C574   C     0.38515   0.09411   0.54409   0.00000  Uiso   1.00
C575   C     0.46355   0.07431   0.68892   0.00000  Uiso   1.00
C576   C     0.49566   0.21324   0.61242   0.00000  Uiso   1.00
C577   C     0.43964   0.16269   0.93973   0.00000  Uiso   1.00
C578   C     0.52924   0.16605   0.50880   0.00000  Uiso   1.00
C579   C     0.54155   0.11746   0.98479   0.00000  Uiso   1.00
C580   C     0.50115   0.09048   0.94191   0.00000  Uiso   1.00
C581   C     0.44911   0.11137   0.92213   0.00000  Uiso   1.00
C582   C     0.56220   0.18406   0.56171   0.00000  Uiso   1.00
C583   C     0.62905   0.11577   0.55497   0.00000  Uiso   1.00
H584   H     0.60092   0.33041   0.75353   0.00000  Uiso   1.00
H585   H     0.39449   0.13534   0.53476   0.00000  Uiso   1.00
H586   H     0.37098   0.06896   0.50486   0.00000  Uiso   1.00
H587   H     0.42638   0.08002   0.56636   0.00000  Uiso   1.00
H588   H     0.41728   0.07681   0.66970   0.00000  Uiso   1.00
H589   H     0.46975   0.05656   0.72972   0.00000  Uiso   1.00
H590   H     0.48198   0.04826   0.66054   0.00000  Uiso   1.00
H591   H     0.50384   0.22363   0.65782   0.00000  Uiso   1.00
H592   H     0.47936   0.17131   0.60478   0.00000  Uiso   1.00
H593   H     0.46069   0.23753   0.59361   0.00000  Uiso   1.00
H594   H     0.51071   0.20581   0.79454   0.00000  Uiso   1.00
H595   H     0.50874   0.05217   0.92525   0.00000  Uiso   1.00
H596   H     0.60275   0.05858   0.98613   0.00000  Uiso   1.00
H597   H     0.34378   0.25647   0.90907   0.00000  Uiso   1.00
H598   H     0.50815   0.27135   0.51753   0.00000  Uiso   1.00
H599   H     0.41704   0.30746   0.97998   0.00000  Uiso   1.00
H600   H     0.41720   0.08804   0.89097   0.00000  Uiso   1.00
H601   H     0.39891   0.00272   0.74836   0.00000  Uiso   1.00
N602   N     0.47827   0.15223   0.73542   0.00000  Uiso   1.00
N603   N     0.52173   0.18110   0.76457   0.00000  Uiso   1.00
O604   O     0.63102   0.24629   0.75357   0.00000  Uiso   1.00
O605   O     0.49381   0.12344   0.69414   0.00000  Uiso   1.00
O606   O     0.54723   0.22608   0.59287   0.00000  Uiso   1.00
O607   O     0.39075   0.23704   0.74423   0.00000  Uiso   1.00
O608   O     0.64823   0.17358   0.83380   0.00000  Uiso   1.00
O609   O     0.40796   0.16433   0.82446   0.00000  Uiso   1.00
O610   O     0.60925   0.09629   0.75576   0.00000  Uiso   1.00
O611   O     0.36898   0.08704   0.74642   0.00000  Uiso   1.00
O612   O     0.59204   0.16901   0.67554   0.00000  Uiso   1.00
O613   O     0.35177   0.15976   0.66620   0.00000  Uiso   1.00
O614   O     0.34381   0.09034   0.57837   0.00000  Uiso   1.00
Zn615  Zn    0.60453   0.17284   0.75623   0.00000  Uiso   1.00
Zn616  Zn    0.39547   0.16049   0.74376   0.00000  Uiso   1.00
C617   C     0.68140   0.26480   0.74899   0.00000  Uiso   1.00
C618   C     0.72483   0.18703   0.91247   0.00000  Uiso   1.00
C619   C     0.68926   0.31928   0.74951   0.00000  Uiso   1.00
C620   C     0.70271   0.17136   0.85452   0.00000  Uiso   1.00
C621   C     0.97731   0.01399   0.75185   0.00000  Uiso   1.00
C622   C     0.98530   0.06852   0.75142   0.00000  Uiso   1.00
C623   C     0.96408   0.16389   0.64516   0.00000  Uiso   1.00
C624   C     0.92606   0.09468   0.50587   0.00000  Uiso   1.00
C625   C     0.94334   0.15688   0.58535   0.00000  Uiso   1.00
C626   C     0.71393   0.23734   0.93070   0.00000  Uiso   1.00
C627   C     0.75596   0.26679   0.96987   0.00000  Uiso   1.00
C628   C     0.81440   0.19152   0.98165   0.00000  Uiso   1.00
C629   C     0.80742   0.24522   0.99243   0.00000  Uiso   1.00
C630   C     0.71848   0.09411   0.54409   0.00000  Uiso   1.00
C631   C     0.79688   0.07431   0.68892   0.00000  Uiso   1.00
C632   C     0.82899   0.21324   0.61242   0.00000  Uiso   1.00
C633   C     0.77297   0.16269   0.93973   0.00000  Uiso   1.00
C634   C     0.86257   0.16605   0.50880   0.00000  Uiso   1.00
C635   C     0.87488   0.11746   0.98479   0.00000  Uiso   1.00
C636   C     0.83448   0.09048   0.94191   0.00000  Uiso   1.00
C637   C     0.78244   0.11137   0.92213   0.00000  Uiso   1.00
C638   C     0.89554   0.18406   0.56171   0.00000  Uiso   1.00
C639   C     0.96239   0.11577   0.55497   0.00000  Uiso   1.00
H640   H     0.93425   0.33041   0.75353   0.00000  Uiso   1.00
H641   H     0.72783   0.13534   0.53476   0.00000  Uiso   1.00
H642   H     0.70431   0.06896   0.50486   0.00000  Uiso   1.00
H643   H     0.75971   0.08002   0.56636   0.00000  Uiso   1.00
H644   H     0.75062   0.07681   0.66970   0.00000  Uiso   1.00
H645   H     0.80308   0.05656   0.72972   0.00000  Uiso   1.00
H646   H     0.81532   0.04826   0.66054   0.00000  Uiso   1.00
H647   H     0.83717   0.22363   0.65782   0.00000  Uiso   1.00
H648   H     0.81269   0.17131   0.60478   0.00000  Uiso   1.00
H649   H     0.79402   0.23753   0.59361   0.00000  Uiso   1.00
H650   H     0.84404   0.20581   0.79454   0.00000  Uiso   1.00
H651   H     0.84207   0.05217   0.92525   0.00000  Uiso   1.00
H652   H     0.93608   0.05858   0.98613   0.00000  Uiso   1.00
H653   H     0.67711   0.25647   0.90907   0.00000  Uiso   1.00
H654   H     0.84148   0.27135   0.51753   0.00000  Uiso   1.00
H655   H     0.75038   0.30746   0.97998   0.00000  Uiso   1.00
H656   H     0.75053   0.08804   0.89097   0.00000  Uiso   1.00
H657   H     0.73224   0.00272   0.74836   0.00000  Uiso   1.00
N658   N     0.81160   0.15223   0.73542   0.00000  Uiso   1.00
N659   N     0.85507   0.18110   0.76457   0.00000  Uiso   1.00
O660   O     0.96435   0.24629   0.75357   0.00000  Uiso   1.00
O661   O     0.82715   0.12344   0.69414   0.00000  Uiso   1.00
O662   O     0.88057   0.22608   0.59287   0.00000  Uiso   1.00
O663   O     0.72408   0.23704   0.74423   0.00000  Uiso   1.00
O664   O     0.98157   0.17358   0.83380   0.00000  Uiso   1.00
O665   O     0.74130   0.16433   0.82446   0.00000  Uiso   1.00
O666   O     0.94258   0.09629   0.75576   0.00000  Uiso   1.00
O667   O     0.70231   0.08704   0.74642   0.00000  Uiso   1.00
O668   O     0.92537   0.16901   0.67554   0.00000  Uiso   1.00
O669   O     0.68510   0.15976   0.66620   0.00000  Uiso   1.00
O670   O     0.67714   0.09034   0.57837   0.00000  Uiso   1.00
Zn671  Zn    0.93786   0.17284   0.75623   0.00000  Uiso   1.00
Zn672  Zn    0.72881   0.16049   0.74376   0.00000  Uiso   1.00
C673   C     0.01473   0.59813   0.74899   0.00000  Uiso   1.00
C674   C     0.05816   0.52036   0.91247   0.00000  Uiso   1.00
C675   C     0.02259   0.65262   0.74951   0.00000  Uiso   1.00
C676   C     0.03605   0.50470   0.85452   0.00000  Uiso   1.00
C677   C     0.31065   0.34733   0.75185   0.00000  Uiso   1.00
C678   C     0.31863   0.40185   0.75142   0.00000  Uiso   1.00
C679   C     0.29742   0.49722   0.64516   0.00000  Uiso   1.00
C680   C     0.25940   0.42801   0.50587   0.00000  Uiso   1.00
C681   C     0.27667   0.49021   0.58535   0.00000  Uiso   1.00
C682   C     0.04726   0.57067   0.93070   0.00000  Uiso   1.00
C683   C     0.08930   0.60012   0.96987   0.00000  Uiso   1.00
C684   C     0.14773   0.52485   0.98165   0.00000  Uiso   1.00
C685   C     0.14076   0.57855   0.99243   0.00000  Uiso   1.00
C686   C     0.05181   0.42744   0.54409   0.00000  Uiso   1.00
C687   C     0.13021   0.40764   0.68892   0.00000  Uiso   1.00
C688   C     0.16232   0.54657   0.61242   0.00000  Uiso   1.00
C689   C     0.10631   0.49603   0.93973   0.00000  Uiso   1.00
C690   C     0.19591   0.49939   0.50880   0.00000  Uiso   1.00
C691   C     0.20821   0.45079   0.98479   0.00000  Uiso   1.00
C692   C     0.16782   0.42381   0.94191   0.00000  Uiso   1.00
C693   C     0.11577   0.44470   0.92213   0.00000  Uiso   1.00
C694   C     0.22887   0.51739   0.56171   0.00000  Uiso   1.00
C695   C     0.29572   0.44911   0.55497   0.00000  Uiso   1.00
H696   H     0.26759   0.66374   0.75353   0.00000  Uiso   1.00
H697   H     0.06116   0.46867   0.53476   0.00000  Uiso   1.00
H698   H     0.03765   0.40230   0.50486   0.00000  Uiso   1.00
H699   H     0.09305   0.41335   0.56636   0.00000  Uiso   1.00
H700   H     0.08395   0.41014   0.66970   0.00000  Uiso   1.00
H701   H     0.13641   0.38989   0.72972   0.00000  Uiso   1.00
H702   H     0.14865   0.38159   0.66054   0.00000  Uiso   1.00
H703   H     0.17050   0.55696   0.65782   0.00000  Uiso   1.00
H704   H     0.14603   0.50465   0.60478   0.00000  Uiso   1.00
H705   H     0.12735   0.57087   0.59361   0.00000  Uiso   1.00
H706   H     0.17737   0.53914   0.79454   0.00000  Uiso   1.00
H707   H     0.17541   0.38550   0.92525   0.00000  Uiso   1.00
H708   H     0.26942   0.39192   0.98613   0.00000  Uiso   1.00
H709   H     0.01045   0.58980   0.90907   0.00000  Uiso   1.00
H710   H     0.17481   0.60469   0.51753   0.00000  Uiso   1.00
H711   H     0.08371   0.64080   0.97998   0.00000  Uiso   1.00
H712   H     0.08386   0.42137   0.89097   0.00000  Uiso   1.00
H713   H     0.06558   0.33605   0.74836   0.00000  Uiso   1.00
N714   N     0.14493   0.48556   0.73542   0.00000  Uiso   1.00
N715   N     0.18840   0.51444   0.76457   0.00000  Uiso   1.00
O716   O     0.29769   0.57963   0.75357   0.00000  Uiso   1.00
O717   O     0.16048   0.45677   0.69414   0.00000  Uiso   1.00
O718   O     0.21390   0.55941   0.59287   0.00000  Uiso   1.00
O719   O     0.05742   0.57038   0.74423   0.00000  Uiso   1.00
O720   O     0.31490   0.50691   0.83380   0.00000  Uiso   1.00
O721   O     0.07463   0.49766   0.82446   0.00000  Uiso   1.00
O722   O     0.27592   0.42962   0.75576   0.00000  Uiso   1.00
O723   O     0.03565   0.42037   0.74642   0.00000  Uiso   1.00
O724   O     0.25870   0.50234   0.67554   0.00000  Uiso   1.00
O725   O     0.01843   0.49309   0.66620   0.00000  Uiso   1.00
O726   O     0.01047   0.42367   0.57837   0.00000  Uiso   1.00
Zn727  Zn    0.27119   0.50618   0.75623   0.00000  Uiso   1.00
Zn728  Zn    0.06214   0.49382   0.74376   0.00000  Uiso   1.00
C729   C     0.34806   0.59813   0.74899   0.00000  Uiso   1.00
C730   C     0.39150   0.52036   0.91247   0.00000  Uiso   1.00
C731   C     0.35592   0.65262   0.74951   0.00000  Uiso   1.00
C732   C     0.36938   0.50470   0.85452   0.00000  Uiso   1.00
C733   C     0.64398   0.34733   0.75185   0.00000  Uiso   1.00
C734   C     0.65196   0.40185   0.75142   0.00000  Uiso   1.00
C735   C     0.63075   0.49722   0.64516   0.00000  Uiso   1.00
C736   C     0.59273   0.42801   0.50587   0.00000  Uiso   1.00
C737   C     0.61001   0.49021   0.58535   0.00000  Uiso   1.00
C738   C     0.38060   0.57067   0.93070   0.00000  Uiso   1.00
C739   C     0.42263   0.60012   0.96987   0.00000  Uiso   1.00
C740   C     0.48106   0.52485   0.98165   0.00000  Uiso   1.00
C741   C     0.47409   0.57855   0.99243   0.00000  Uiso   1.00
C742   C     0.38515   0.42744   0.54409   0.00000  Uiso   1.00
C743   C     0.46355   0.40764   0.68892   0.00000  Uiso   1.00
C744   C     0.49566   0.54657   0.61242   0.00000  Uiso   1.00
C745   C     0.43964   0.49603   0.93973   0.00000  Uiso   1.00
C746   C     0.52924   0.49939   0.50880   0.00000  Uiso   1.00
C747   C     0.54155   0.45079   0.98479   0.00000  Uiso   1.00
C748   C     0.50115   0.42381   0.94191   0.00000  Uiso   1.00
C749   C     0.44911   0.44470   0.92213   0.00000  Uiso   1.00
C750   C     0.56220   0.51739   0.56171   0.00000  Uiso   1.00
C751   C     0.62905   0.44911   0.55497   0.00000  Uiso   1.00
H752   H     0.60092   0.66374   0.75353   0.00000  Uiso   1.00
H753   H     0.39449   0.46867   0.53476   0.00000  Uiso   1.00
H754   H     0.37098   0.40230   0.50486   0.00000  Uiso   1.00
H755   H     0.42638   0.41335   0.56636   0.00000  Uiso   1.00
H756   H     0.41728   0.41014   0.66970   0.00000  Uiso   1.00
H757   H     0.46975   0.38989   0.72972   0.00000  Uiso   1.00
H758   H     0.48198   0.38159   0.66054   0.00000  Uiso   1.00
H759   H     0.50384   0.55696   0.65782   0.00000  Uiso   1.00
H760   H     0.47936   0.50465   0.60478   0.00000  Uiso   1.00
H761   H     0.46069   0.57087   0.59361   0.00000  Uiso   1.00
H762   H     0.51071   0.53914   0.79454   0.00000  Uiso   1.00
H763   H     0.50874   0.38550   0.92525   0.00000  Uiso   1.00
H764   H     0.60275   0.39192   0.98613   0.00000  Uiso   1.00
H765   H     0.34378   0.58980   0.90907   0.00000  Uiso   1.00
H766   H     0.50815   0.60469   0.51753   0.00000  Uiso   1.00
H767   H     0.41704   0.64080   0.97998   0.00000  Uiso   1.00
H768   H     0.41720   0.42137   0.89097   0.00000  Uiso   1.00
H769   H     0.39891   0.33605   0.74836   0.00000  Uiso   1.00
N770   N     0.47827   0.48556   0.73542   0.00000  Uiso   1.00
N771   N     0.52173   0.51444   0.76457   0.00000  Uiso   1.00
O772   O     0.63102   0.57963   0.75357   0.00000  Uiso   1.00
O773   O     0.49381   0.45677   0.69414   0.00000  Uiso   1.00
O774   O     0.54723   0.55941   0.59287   0.00000  Uiso   1.00
O775   O     0.39075   0.57038   0.74423   0.00000  Uiso   1.00
O776   O     0.64823   0.50691   0.83380   0.00000  Uiso   1.00
O777   O     0.40796   0.49766   0.82446   0.00000  Uiso   1.00
O778   O     0.60925   0.42962   0.75576   0.00000  Uiso   1.00
O779   O     0.36898   0.42037   0.74642   0.00000  Uiso   1.00
O780   O     0.59204   0.50234   0.67554   0.00000  Uiso   1.00
O781   O     0.35177   0.49309   0.66620   0.00000  Uiso   1.00
O782   O     0.34381   0.42367   0.57837   0.00000  Uiso   1.00
Zn783  Zn    0.60453   0.50618   0.75623   0.00000  Uiso   1.00
Zn784  Zn    0.39547   0.49382   0.74376   0.00000  Uiso   1.00
C785   C     0.68140   0.59813   0.74899   0.00000  Uiso   1.00
C786   C     0.72483   0.52036   0.91247   0.00000  Uiso   1.00
C787   C     0.68926   0.65262   0.74951   0.00000  Uiso   1.00
C788   C     0.70271   0.50470   0.85452   0.00000  Uiso   1.00
C789   C     0.97731   0.34733   0.75185   0.00000  Uiso   1.00
C790   C     0.98530   0.40185   0.75142   0.00000  Uiso   1.00
C791   C     0.96408   0.49722   0.64516   0.00000  Uiso   1.00
C792   C     0.92606   0.42801   0.50587   0.00000  Uiso   1.00
C793   C     0.94334   0.49021   0.58535   0.00000  Uiso   1.00
C794   C     0.71393   0.57067   0.93070   0.00000  Uiso   1.00
C795   C     0.75596   0.60012   0.96987   0.00000  Uiso   1.00
C796   C     0.81440   0.52485   0.98165   0.00000  Uiso   1.00
C797   C     0.80742   0.57855   0.99243   0.00000  Uiso   1.00
C798   C     0.71848   0.42744   0.54409   0.00000  Uiso   1.00
C799   C     0.79688   0.40764   0.68892   0.00000  Uiso   1.00
C800   C     0.82899   0.54657   0.61242   0.00000  Uiso   1.00
C801   C     0.77297   0.49603   0.93973   0.00000  Uiso   1.00
C802   C     0.86257   0.49939   0.50880   0.00000  Uiso   1.00
C803   C     0.87488   0.45079   0.98479   0.00000  Uiso   1.00
C804   C     0.83448   0.42381   0.94191   0.00000  Uiso   1.00
C805   C     0.78244   0.44470   0.92213   0.00000  Uiso   1.00
C806   C     0.89554   0.51739   0.56171   0.00000  Uiso   1.00
C807   C     0.96239   0.44911   0.55497   0.00000  Uiso   1.00
H808   H     0.93425   0.66374   0.75353   0.00000  Uiso   1.00
H809   H     0.72783   0.46867   0.53476   0.00000  Uiso   1.00
H810   H     0.70431   0.40230   0.50486   0.00000  Uiso   1.00
H811   H     0.75971   0.41335   0.56636   0.00000  Uiso   1.00
H812   H     0.75062   0.41014   0.66970   0.00000  Uiso   1.00
H813   H     0.80308   0.38989   0.72972   0.00000  Uiso   1.00
H814   H     0.81532   0.38159   0.66054   0.00000  Uiso   1.00
H815   H     0.83717   0.55696   0.65782   0.00000  Uiso   1.00
H816   H     0.81269   0.50465   0.60478   0.00000  Uiso   1.00
H817   H     0.79402   0.57087   0.59361   0.00000  Uiso   1.00
H818   H     0.84404   0.53914   0.79454   0.00000  Uiso   1.00
H819   H     0.84207   0.38550   0.92525   0.00000  Uiso   1.00
H820   H     0.93608   0.39192   0.98613   0.00000  Uiso   1.00
H821   H     0.67711   0.58980   0.90907   0.00000  Uiso   1.00
H822   H     0.84148   0.60469   0.51753   0.00000  Uiso   1.00
H823   H     0.75038   0.64080   0.97998   0.00000  Uiso   1.00
H824   H     0.75053   0.42137   0.89097   0.00000  Uiso   1.00
H825   H     0.73224   0.33605   0.74836   0.00000  Uiso   1.00
N826   N     0.81160   0.48556   0.73542   0.00000  Uiso   1.00
N827   N     0.85507   0.51444   0.76457   0.00000  Uiso   1.00
O828   O     0.96435   0.57963   0.75357   0.00000  Uiso   1.00
O829   O     0.82715   0.45677   0.69414   0.00000  Uiso   1.00
O830   O     0.88057   0.55941   0.59287   0.00000  Uiso   1.00
O831   O     0.72408   0.57038   0.74423   0.00000  Uiso   1.00
O832   O     0.98157   0.50691   0.83380   0.00000  Uiso   1.00
O833   O     0.74130   0.49766   0.82446   0.00000  Uiso   1.00
O834   O     0.94258   0.42962   0.75576   0.00000  Uiso   1.00
O835   O     0.70231   0.42037   0.74642   0.00000  Uiso   1.00
O836   O     0.92537   0.50234   0.67554   0.00000  Uiso   1.00
O837   O     0.68510   0.49309   0.66620   0.00000  Uiso   1.00
O838   O     0.67714   0.42367   0.57837   0.00000  Uiso   1.00
Zn839  Zn    0.93786   0.50618   0.75623   0.00000  Uiso   1.00
Zn840  Zn    0.72881   0.49382   0.74376   0.00000  Uiso   1.00
C841   C     0.01473   0.93146   0.74899   0.00000  Uiso   1.00
C842   C     0.05816   0.85370   0.91247   0.00000  Uiso   1.00
C843   C     0.02259   0.98595   0.74951   0.00000  Uiso   1.00
C844   C     0.03605   0.83803   0.85452   0.00000  Uiso   1.00
C845   C     0.31065   0.68066   0.75185   0.00000  Uiso   1.00
C846   C     0.31863   0.73518   0.75142   0.00000  Uiso   1.00
C847   C     0.29742   0.83056   0.64516   0.00000  Uiso   1.00
C848   C     0.25940   0.76135   0.50587   0.00000  Uiso   1.00
C849   C     0.27667   0.82355   0.58535   0.00000  Uiso   1.00
C850   C     0.04726   0.90401   0.93070   0.00000  Uiso   1.00
C851   C     0.08930   0.93346   0.96987   0.00000  Uiso   1.00
C852   C     0.14773   0.85818   0.98165   0.00000  Uiso   1.00
C853   C     0.14076   0.91188   0.99243   0.00000  Uiso   1.00
C854   C     0.05181   0.76078   0.54409   0.00000  Uiso   1.00
C855   C     0.13021   0.74098   0.68892   0.00000  Uiso   1.00
C856   C     0.16232   0.87990   0.61242   0.00000  Uiso   1.00
C857   C     0.10631   0.82936   0.93973   0.00000  Uiso   1.00
C858   C     0.19591   0.83272   0.50880   0.00000  Uiso   1.00
C859   C     0.20821   0.78412   0.98479   0.00000  Uiso   1.00
C860   C     0.16782   0.75715   0.94191   0.00000  Uiso   1.00
C861   C     0.11577   0.77804   0.92213   0.00000  Uiso   1.00
C862   C     0.22887   0.85072   0.56171   0.00000  Uiso   1.00
C863   C     0.29572   0.78244   0.55497   0.00000  Uiso   1.00
H864   H     0.26759   0.99707   0.75353   0.00000  Uiso   1.00
H865   H     0.06116   0.80201   0.53476   0.00000  Uiso   1.00
H866   H     0.03765   0.73563   0.50486   0.00000  Uiso   1.00
H867   H     0.09305   0.74668   0.56636   0.00000  Uiso   1.00
H868   H     0.08395   0.74347   0.66970   0.00000  Uiso   1.00
H869   H     0.13641   0.72322   0.72972   0.00000  Uiso   1.00
H870   H     0.14865   0.71492   0.66054   0.00000  Uiso   1.00
H871   H     0.17050   0.89030   0.65782   0.00000  Uiso   1.00
H872   H     0.14603   0.83798   0.60478   0.00000  Uiso   1.00
H873   H     0.12735   0.90420   0.59361   0.00000  Uiso   1.00
H874   H     0.17737   0.87248   0.79454   0.00000  Uiso   1.00
H875   H     0.17541   0.71883   0.92525   0.00000  Uiso   1.00
H876   H     0.26942   0.72525   0.98613   0.00000  Uiso   1.00
H877   H     0.01045   0.92313   0.90907   0.00000  Uiso   1.00
H878   H     0.17481   0.93802   0.51753   0.00000  Uiso   1.00
H879   H     0.08371   0.97413   0.97998   0.00000  Uiso   1.00
H880   H     0.08386   0.75470   0.89097   0.00000  Uiso   1.00
H881   H     0.06558   0.66939   0.74836   0.00000  Uiso   1.00
N882   N     0.14493   0.81890   0.73542   0.00000  Uiso   1.00
N883   N     0.18840   0.84777   0.76457   0.00000  Uiso   1.00
O884   O     0.29769   0.91296   0.75357   0.00000  Uiso   1.00
O885   O     0.16048   0.79010   0.69414   0.00000  Uiso   1.00
O886   O     0.21390   0.89274   0.59287   0.00000  Uiso   1.00
O887   O     0.05742   0.90371   0.74423   0.00000  Uiso   1.00
O888   O     0.31490   0.84024   0.83380   0.00000  Uiso   1.00
O889   O     0.07463   0.83099   0.82446   0.00000  Uiso   1.00
O890   O     0.27592   0.76296   0.75576   0.00000  Uiso   1.00
O891   O     0.03565   0.75371   0.74642   0.00000  Uiso   1.00
O892   O     0.25870   0.83567   0.67554   0.00000  Uiso   1.00
O893   O     0.01843   0.82642   0.66620   0.00000  Uiso   1.00
O894   O     0.01047   0.75700   0.57837   0.00000  Uiso   1.00
Zn895  Zn    0.27119   0.83951   0.75623   0.00000  Uiso   1.00
Zn896  Zn    0.06214   0.82716   0.74376   0.00000  Uiso   1.00
C897   C     0.34806   0.93146   0.74899   0.00000  Uiso   1.00
C898   C     0.39150   0.85370   0.91247   0.00000  Uiso   1.00
C899   C     0.35592   0.98595   0.74951   0.00000  Uiso   1.00
C900   C     0.36938   0.83803   0.85452   0.00000  Uiso   1.00
C901   C     0.64398   0.68066   0.75185   0.00000  Uiso   1.00
C902   C     0.65196   0.73518   0.75142   0.00000  Uiso   1.00
C903   C     0.63075   0.83056   0.64516   0.00000  Uiso   1.00
C904   C     0.59273   0.76135   0.50587   0.00000  Uiso   1.00
C905   C     0.61001   0.82355   0.58535   0.00000  Uiso   1.00
C906   C     0.38060   0.90401   0.93070   0.00000  Uiso   1.00
C907   C     0.42263   0.93346   0.96987   0.00000  Uiso   1.00
C908   C     0.48106   0.85818   0.98165   0.00000  Uiso   1.00
C909   C     0.47409   0.91188   0.99243   0.00000  Uiso   1.00
C910   C     0.38515   0.76078   0.54409   0.00000  Uiso   1.00
C911   C     0.46355   0.74098   0.68892   0.00000  Uiso   1.00
C912   C     0.49566   0.87990   0.61242   0.00000  Uiso   1.00
C913   C     0.43964   0.82936   0.93973   0.00000  Uiso   1.00
C914   C     0.52924   0.83272   0.50880   0.00000  Uiso   1.00
C915   C     0.54155   0.78412   0.98479   0.00000  Uiso   1.00
C916   C     0.50115   0.75715   0.94191   0.00000  Uiso   1.00
C917   C     0.44911   0.77804   0.92213   0.00000  Uiso   1.00
C918   C     0.56220   0.85072   0.56171   0.00000  Uiso   1.00
C919   C     0.62905   0.78244   0.55497   0.00000  Uiso   1.00
H920   H     0.60092   0.99707   0.75353   0.00000  Uiso   1.00
H921   H     0.39449   0.80201   0.53476   0.00000  Uiso   1.00
H922   H     0.37098   0.73563   0.50486   0.00000  Uiso   1.00
H923   H     0.42638   0.74668   0.56636   0.00000  Uiso   1.00
H924   H     0.41728   0.74347   0.66970   0.00000  Uiso   1.00
H925   H     0.46975   0.72322   0.72972   0.00000  Uiso   1.00
H926   H     0.48198   0.71492   0.66054   0.00000  Uiso   1.00
H927   H     0.50384   0.89030   0.65782   0.00000  Uiso   1.00
H928   H     0.47936   0.83798   0.60478   0.00000  Uiso   1.00
H929   H     0.46069   0.90420   0.59361   0.00000  Uiso   1.00
H930   H     0.51071   0.87248   0.79454   0.00000  Uiso   1.00
H931   H     0.50874   0.71883   0.92525   0.00000  Uiso   1.00
H932   H     0.60275   0.72525   0.98613   0.00000  Uiso   1.00
H933   H     0.34378   0.92313   0.90907   0.00000  Uiso   1.00
H934   H     0.50815   0.93802   0.51753   0.00000  Uiso   1.00
H935   H     0.41704   0.97413   0.97998   0.00000  Uiso   1.00
H936   H     0.41720   0.75470   0.89097   0.00000  Uiso   1.00
H937   H     0.39891   0.66939   0.74836   0.00000  Uiso   1.00
N938   N     0.47827   0.81890   0.73542   0.00000  Uiso   1.00
N939   N     0.52173   0.84777   0.76457   0.00000  Uiso   1.00
O940   O     0.63102   0.91296   0.75357   0.00000  Uiso   1.00
O941   O     0.49381   0.79010   0.69414   0.00000  Uiso   1.00
O942   O     0.54723   0.89274   0.59287   0.00000  Uiso   1.00
O943   O     0.39075   0.90371   0.74423   0.00000  Uiso   1.00
O944   O     0.64823   0.84024   0.83380   0.00000  Uiso   1.00
O945   O     0.40796   0.83099   0.82446   0.00000  Uiso   1.00
O946   O     0.60925   0.76296   0.75576   0.00000  Uiso   1.00
O947   O     0.36898   0.75371   0.74642   0.00000  Uiso   1.00
O948   O     0.59204   0.83567   0.67554   0.00000  Uiso   1.00
O949   O     0.35177   0.82642   0.66620   0.00000  Uiso   1.00
O950   O     0.34381   0.75700   0.57837   0.00000  Uiso   1.00
Zn951  Zn    0.60453   0.83951   0.75623   0.00000  Uiso   1.00
Zn952  Zn    0.39547   0.82716   0.74376   0.00000  Uiso   1.00
C953   C     0.68140   0.93146   0.74899   0.00000  Uiso   1.00
C954   C     0.72483   0.85370   0.91247   0.00000  Uiso   1.00
C955   C     0.68926   0.98595   0.74951   0.00000  Uiso   1.00
C956   C     0.70271   0.83803   0.85452   0.00000  Uiso   1.00
C957   C     0.97731   0.68066   0.75185   0.00000  Uiso   1.00
C958   C     0.98530   0.73518   0.75142   0.00000  Uiso   1.00
C959   C     0.96408   0.83056   0.64516   0.00000  Uiso   1.00
C960   C     0.92606   0.76135   0.50587   0.00000  Uiso   1.00
C961   C     0.94334   0.82355   0.58535   0.00000  Uiso   1.00
C962   C     0.71393   0.90401   0.93070   0.00000  Uiso   1.00
C963   C     0.75596   0.93346   0.96987   0.00000  Uiso   1.00
C964   C     0.81440   0.85818   0.98165   0.00000  Uiso   1.00
C965   C     0.80742   0.91188   0.99243   0.00000  Uiso   1.00
C966   C     0.71848   0.76078   0.54409   0.00000  Uiso   1.00
C967   C     0.79688   0.74098   0.68892   0.00000  Uiso   1.00
C968   C     0.82899   0.87990   0.61242   0.00000  Uiso   1.00
C969   C     0.77297   0.82936   0.93973   0.00000  Uiso   1.00
C970   C     0.86257   0.83272   0.50880   0.00000  Uiso   1.00
C971   C     0.87488   0.78412   0.98479   0.00000  Uiso   1.00
C972   C     0.83448   0.75715   0.94191   0.00000  Uiso   1.00
C973   C     0.78244   0.77804   0.92213   0.00000  Uiso   1.00
C974   C     0.89554   0.85072   0.56171   0.00000  Uiso   1.00
C975   C     0.96239   0.78244   0.55497   0.00000  Uiso   1.00
H976   H     0.93425   0.99707   0.75353   0.00000  Uiso   1.00
H977   H     0.72783   0.80201   0.53476   0.00000  Uiso   1.00
H978   H     0.70431   0.73563   0.50486   0.00000  Uiso   1.00
H979   H     0.75971   0.74668   0.56636   0.00000  Uiso   1.00
H980   H     0.75062   0.74347   0.66970   0.00000  Uiso   1.00
H981   H     0.80308   0.72322   0.72972   0.00000  Uiso   1.00
H982   H     0.81532   0.71492   0.66054   0.00000  Uiso   1.00
H983   H     0.83717   0.89030   0.65782   0.00000  Uiso   1.00
H984   H     0.81269   0.83798   0.60478   0.00000  Uiso   1.00
H985   H     0.79402   0.90420   0.59361   0.00000  Uiso   1.00
H986   H     0.84404   0.87248   0.79454   0.00000  Uiso   1.00
H987   H     0.84207   0.71883   0.92525   0.00000  Uiso   1.00
H988   H     0.93608   0.72525   0.98613   0.00000  Uiso   1.00
H989   H     0.67711   0.92313   0.90907   0.00000  Uiso   1.00
H990   H     0.84148   0.93802   0.51753   0.00000  Uiso   1.00
H991   H     0.75038   0.97413   0.97998   0.00000  Uiso   1.00
H992   H     0.75053   0.75470   0.89097   0.00000  Uiso   1.00
H993   H     0.73224   0.66939   0.74836   0.00000  Uiso   1.00
N994   N     0.81160   0.81890   0.73542   0.00000  Uiso   1.00
N995   N     0.85507   0.84777   0.76457   0.00000  Uiso   1.00
O996   O     0.96435   0.91296   0.75357   0.00000  Uiso   1.00
O997   O     0.82715   0.79010   0.69414   0.00000  Uiso   1.00
O998   O     0.88057   0.89274   0.59287   0.00000  Uiso   1.00
O999   O     0.72408   0.90371   0.74423   0.00000  Uiso   1.00
O1000  O     0.98157   0.84024   0.83380   0.00000  Uiso   1.00
O1001  O     0.74130   0.83099   0.82446   0.00000  Uiso   1.00
O1002  O     0.94258   0.76296   0.75576   0.00000  Uiso   1.00
O1003  O     0.70231   0.75371   0.74642   0.00000  Uiso   1.00
O1004  O     0.92537   0.83567   0.67554   0.00000  Uiso   1.00
O1005  O     0.68510   0.82642   0.66620   0.00000  Uiso   1.00
O1006  O     0.67714   0.75700   0.57837   0.00000  Uiso   1.00
Zn1007 Zn    0.93786   0.83951   0.75623   0.00000  Uiso   1.00
Zn1008 Zn    0.72881   0.82716   0.74376   0.00000  Uiso   1.00
loop_
_geom_bond_atom_site_label_1
_geom_bond_atom_site_label_2
_geom_bond_distance
_geom_bond_site_symmetry_2
_ccdc_geom_bond_type
C1     O47     1.290   .     A
C1     C3      1.399   .     S
C1     O156    1.279   1_455 S
C2     C4      1.441   .     S
C2     C17     1.399   .     A
C2     C10     1.401   .     A
C3     C285    1.334   1_455 S
C3     H209    1.082   .     S
C4     O49     1.296   .     A
C4     O160    1.290   1_455 S
C5     C6      1.402   .     S
C5     C395    1.334   1_545 S
C5     H360    1.088   1_545 S
C6     O50     1.288   .     A
C6     O107    1.282   .     S
C7     O52     1.298   .     A
C7     C9      1.451   .     S
C7     O109    1.296   .     S
C8     C23     1.393   .     A
C8     C523    1.392   1_554 S
C8     H540    1.084   1_554 S
C9     C22     1.406   .     A
C9     C23     1.408   .     A
C10    H37     1.084   .     S
C10    C11     1.388   .     A
C11    H39     1.083   .     S
C11    C13     1.391   .     A
C12    C17     1.409   .     A
C12    C13     1.416   .     A
C12    C522    1.415   .     S
C13    H542    1.079   .     S
C14    H26     1.111   .     S
C14    O54     1.412   .     S
C14    H25     1.113   .     S
C14    H27     1.108   .     S
C15    H28     1.106   .     S
C15    H29     1.111   .     S
C15    O45     1.396   .     S
C15    H30     1.109   .     S
C16    H33     1.107   .     S
C16    H32     1.113   .     S
C16    O46     1.420   .     S
C16    H31     1.108   .     S
C17    C21     1.410   .     A
C18    C22     1.412   .     A
C18    C516    1.415   1_554 S
C18    C523    1.423   1_554 S
C19    C20     1.391   .     A
C19    C512    1.392   .     S
C19    C522    1.423   .     S
C20    C21     1.379   .     A
C20    H35     1.084   .     S
C21    H40     1.084   .     S
C22    O46     1.394   .     S
C23    O110    1.384   .     S
H24    C173    1.088   .     S
H34    N43     1.029   .     S
H36    C512    1.084   .     S
H38    C517    1.079   1_554 S
H41    C339    1.082   1_545 S
N42    N43     1.291   .     D
N42    Zn56    2.026   .     S
N42    O45     1.346   .     S
N43    Zn55    2.026   .     S
O44    Zn55    1.958   .     S
O44    C57     1.279   .     S
O47    Zn56    1.976   .     S
O48    Zn55    1.975   .     S
O48    C60     1.290   .     S
O49    Zn56    1.941   .     S
O50    Zn55    1.976   .     S
O51    Zn56    1.958   .     S
O51    C118    1.282   1_455 S
O52    Zn55    1.941   .     S
O53    Zn56    1.975   .     S
O53    C119    1.296   1_455 S
O54    C135    1.384   1_455 S
C57    O103    1.290   .     A
C57    C59     1.399   .     S
C58    C60     1.441   .     S
C58    C73     1.399   .     A
C58    C66     1.401   .     A
C59    C173    1.334   .     S
C59    H265    1.082   .     S
C60    O105    1.296   .     A
C61    C62     1.402   .     S
C61    C451    1.334   1_545 S
C61    H416    1.088   1_545 S
C62    O106    1.288   .     A
C62    O163    1.282   .     S
C63    O108    1.298   .     A
C63    C65     1.451   .     S
C63    O165    1.296   .     S
C64    C79     1.393   .     A
C64    C579    1.392   1_554 S
C64    H596    1.084   1_554 S
C65    C78     1.406   .     A
C65    C79     1.408   .     A
C66    H93     1.084   .     S
C66    C67     1.388   .     A
C67    H95     1.083   .     S
C67    C69     1.391   .     A
C68    C73     1.409   .     A
C68    C69     1.416   .     A
C68    C578    1.415   .     S
C69    H598    1.079   .     S
C70    H82     1.111   .     S
C70    O110    1.412   .     S
C70    H81     1.113   .     S
C70    H83     1.108   .     S
C71    H84     1.106   .     S
C71    H85     1.111   .     S
C71    O101    1.396   .     S
C71    H86     1.109   .     S
C72    H89     1.107   .     S
C72    H88     1.113   .     S
C72    O102    1.420   .     S
C72    H87     1.108   .     S
C73    C77     1.410   .     A
C74    C78     1.412   .     A
C74    C572    1.415   1_554 S
C74    C579    1.423   1_554 S
C75    C76     1.391   .     A
C75    C568    1.392   .     S
C75    C578    1.423   .     S
C76    C77     1.379   .     A
C76    H91     1.084   .     S
C77    H96     1.084   .     S
C78    O102    1.394   .     S
C79    O166    1.384   .     S
H80    C229    1.088   .     S
H90    N99     1.029   .     S
H92    C568    1.084   .     S
H94    C573    1.079   1_554 S
H97    C395    1.082   1_545 S
N98    N99     1.291   .     D
N98    Zn112   2.026   .     S
N98    O101    1.346   .     S
N99    Zn111   2.026   .     S
O100   Zn111   1.958   .     S
O100   C113    1.279   .     S
O103   Zn112   1.976   .     S
O104   Zn111   1.975   .     S
O104   C116    1.290   .     S
O105   Zn112   1.941   .     S
O106   Zn111   1.976   .     S
O107   Zn112   1.958   .     S
O108   Zn111   1.941   .     S
O109   Zn112   1.975   .     S
C113   O159    1.290   .     A
C113   C115    1.399   .     S
C114   C116    1.441   .     S
C114   C129    1.399   .     A
C114   C122    1.401   .     A
C115   C229    1.334   .     S
C115   H321    1.082   .     S
C116   O161    1.296   .     A
C117   C118    1.402   .     S
C117   C339    1.334   1_645 S
C117   H472    1.088   1_545 S
C118   O162    1.288   .     A
C118   O51     1.282   1_655 S
C119   O164    1.298   .     A
C119   C121    1.451   .     S
C119   O53     1.296   1_655 S
C120   C135    1.393   .     A
C120   C635    1.392   1_554 S
C120   H652    1.084   1_554 S
C121   C134    1.406   .     A
C121   C135    1.408   .     A
C122   H149    1.084   .     S
C122   C123    1.388   .     A
C123   H151    1.083   .     S
C123   C125    1.391   .     A
C124   C129    1.409   .     A
C124   C125    1.416   .     A
C124   C634    1.415   .     S
C125   H654    1.079   .     S
C126   H138    1.111   .     S
C126   O166    1.412   .     S
C126   H137    1.113   .     S
C126   H139    1.108   .     S
C127   H140    1.106   .     S
C127   H141    1.111   .     S
C127   O157    1.396   .     S
C127   H142    1.109   .     S
C128   H145    1.107   .     S
C128   H144    1.113   .     S
C128   O158    1.420   .     S
C128   H143    1.108   .     S
C129   C133    1.410   .     A
C130   C134    1.412   .     A
C130   C628    1.415   1_554 S
C130   C635    1.423   1_554 S
C131   C132    1.391   .     A
C131   C624    1.392   .     S
C131   C634    1.423   .     S
C132   C133    1.379   .     A
C132   H147    1.084   .     S
C133   H152    1.084   .     S
C134   O158    1.394   .     S
C135   O54     1.384   1_655 S
H136   C285    1.088   .     S
H146   N155    1.029   .     S
H148   C624    1.084   .     S
H150   C629    1.079   1_554 S
H153   C451    1.082   1_545 S
N154   N155    1.291   .     D
N154   Zn168   2.026   .     S
N154   O157    1.346   .     S
N155   Zn167   2.026   .     S
O156   Zn167   1.958   .     S
O156   C1      1.279   1_655 S
O159   Zn168   1.976   .     S
O160   Zn167   1.975   .     S
O160   C4      1.290   1_655 S
O161   Zn168   1.941   .     S
O162   Zn167   1.976   .     S
O163   Zn168   1.958   .     S
O164   Zn167   1.941   .     S
O165   Zn168   1.975   .     S
C169   O215    1.290   .     A
C169   C171    1.399   .     S
C169   O324    1.279   1_455 S
C170   C172    1.441   .     S
C170   C185    1.399   .     A
C170   C178    1.401   .     A
C171   C453    1.334   1_455 S
C171   H377    1.082   .     S
C172   O217    1.296   .     A
C172   O328    1.290   1_455 S
C173   C174    1.402   .     S
C174   O218    1.288   .     A
C174   O275    1.282   .     S
C175   O220    1.298   .     A
C175   C177    1.451   .     S
C175   O277    1.296   .     S
C176   C191    1.393   .     A
C176   C691    1.392   1_554 S
C176   H708    1.084   1_554 S
C177   C190    1.406   .     A
C177   C191    1.408   .     A
C178   H205    1.084   .     S
C178   C179    1.388   .     A
C179   H207    1.083   .     S
C179   C181    1.391   .     A
C180   C185    1.409   .     A
C180   C181    1.416   .     A
C180   C690    1.415   .     S
C181   H710    1.079   .     S
C182   H194    1.111   .     S
C182   O222    1.412   .     S
C182   H193    1.113   .     S
C182   H195    1.108   .     S
C183   H196    1.106   .     S
C183   H197    1.111   .     S
C183   O213    1.396   .     S
C183   H198    1.109   .     S
C184   H201    1.107   .     S
C184   H200    1.113   .     S
C184   O214    1.420   .     S
C184   H199    1.108   .     S
C185   C189    1.410   .     A
C186   C190    1.412   .     A
C186   C684    1.415   1_554 S
C186   C691    1.423   1_554 S
C187   C188    1.391   .     A
C187   C680    1.392   .     S
C187   C690    1.423   .     S
C188   C189    1.379   .     A
C188   H203    1.084   .     S
C189   H208    1.084   .     S
C190   O214    1.394   .     S
C191   O278    1.384   .     S
H192   C341    1.088   .     S
H202   N211    1.029   .     S
H204   C680    1.084   .     S
H206   C685    1.079   1_554 S
N210   N211    1.291   .     D
N210   Zn224   2.026   .     S
N210   O213    1.346   .     S
N211   Zn223   2.026   .     S
O212   Zn223   1.958   .     S
O212   C225    1.279   .     S
O215   Zn224   1.976   .     S
O216   Zn223   1.975   .     S
O216   C228    1.290   .     S
O217   Zn224   1.941   .     S
O218   Zn223   1.976   .     S
O219   Zn224   1.958   .     S
O219   C286    1.282   1_455 S
O220   Zn223   1.941   .     S
O221   Zn224   1.975   .     S
O221   C287    1.296   1_455 S
O222   C303    1.384   1_455 S
C225   O271    1.290   .     A
C225   C227    1.399   .     S
C226   C228    1.441   .     S
C226   C241    1.399   .     A
C226   C234    1.401   .     A
C227   C341    1.334   .     S
C227   H433    1.082   .     S
C228   O273    1.296   .     A
C229   C230    1.402   .     S
C230   O274    1.288   .     A
C230   O331    1.282   .     S
C231   O276    1.298   .     A
C231   C233    1.451   .     S
C231   O333    1.296   .     S
C232   C247    1.393   .     A
C232   C747    1.392   1_554 S
C232   H764    1.084   1_554 S
C233   C246    1.406   .     A
C233   C247    1.408   .     A
C234   H261    1.084   .     S
C234   C235    1.388   .     A
C235   H263    1.083   .     S
C235   C237    1.391   .     A
C236   C241    1.409   .     A
C236   C237    1.416   .     A
C236   C746    1.415   .     S
C237   H766    1.079   .     S
C238   H250    1.111   .     S
C238   O278    1.412   .     S
C238   H249    1.113   .     S
C238   H251    1.108   .     S
C239   H252    1.106   .     S
C239   H253    1.111   .     S
C239   O269    1.396   .     S
C239   H254    1.109   .     S
C240   H257    1.107   .     S
C240   H256    1.113   .     S
C240   O270    1.420   .     S
C240   H255    1.108   .     S
C241   C245    1.410   .     A
C242   C246    1.412   .     A
C242   C740    1.415   1_554 S
C242   C747    1.423   1_554 S
C243   C244    1.391   .     A
C243   C736    1.392   .     S
C243   C746    1.423   .     S
C244   C245    1.379   .     A
C244   H259    1.084   .     S
C245   H264    1.084   .     S
C246   O270    1.394   .     S
C247   O334    1.384   .     S
H248   C397    1.088   .     S
H258   N267    1.029   .     S
H260   C736    1.084   .     S
H262   C741    1.079   1_554 S
N266   N267    1.291   .     D
N266   Zn280   2.026   .     S
N266   O269    1.346   .     S
N267   Zn279   2.026   .     S
O268   Zn279   1.958   .     S
O268   C281    1.279   .     S
O271   Zn280   1.976   .     S
O272   Zn279   1.975   .     S
O272   C284    1.290   .     S
O273   Zn280   1.941   .     S
O274   Zn279   1.976   .     S
O275   Zn280   1.958   .     S
O276   Zn279   1.941   .     S
O277   Zn280   1.975   .     S
C281   O327    1.290   .     A
C281   C283    1.399   .     S
C282   C284    1.441   .     S
C282   C297    1.399   .     A
C282   C290    1.401   .     A
C283   C397    1.334   .     S
C283   H489    1.082   .     S
C284   O329    1.296   .     A
C285   C286    1.402   .     S
C285   C3      1.334   1_655 S
C286   O330    1.288   .     A
C286   O219    1.282   1_655 S
C287   O332    1.298   .     A
C287   C289    1.451   .     S
C287   O221    1.296   1_655 S
C288   C303    1.393   .     A
C288   C803    1.392   1_554 S
C288   H820    1.084   1_554 S
C289   C302    1.406   .     A
C289   C303    1.408   .     A
C290   H317    1.084   .     S
C290   C291    1.388   .     A
C291   H319    1.083   .     S
C291   C293    1.391   .     A
C292   C297    1.409   .     A
C292   C293    1.416   .     A
C292   C802    1.415   .     S
C293   H822    1.079   .     S
C294   H306    1.111   .     S
C294   O334    1.412   .     S
C294   H305    1.113   .     S
C294   H307    1.108   .     S
C295   H308    1.106   .     S
C295   H309    1.111   .     S
C295   O325    1.396   .     S
C295   H310    1.109   .     S
C296   H313    1.107   .     S
C296   H312    1.113   .     S
C296   O326    1.420   .     S
C296   H311    1.108   .     S
C297   C301    1.410   .     A
C298   C302    1.412   .     A
C298   C796    1.415   1_554 S
C298   C803    1.423   1_554 S
C299   C300    1.391   .     A
C299   C792    1.392   .     S
C299   C802    1.423   .     S
C300   C301    1.379   .     A
C300   H315    1.084   .     S
C301   H320    1.084   .     S
C302   O326    1.394   .     S
C303   O222    1.384   1_655 S
H304   C453    1.088   .     S
H314   N323    1.029   .     S
H316   C792    1.084   .     S
H318   C797    1.079   1_554 S
N322   N323    1.291   .     D
N322   Zn336   2.026   .     S
N322   O325    1.346   .     S
N323   Zn335   2.026   .     S
O324   Zn335   1.958   .     S
O324   C169    1.279   1_655 S
O327   Zn336   1.976   .     S
O328   Zn335   1.975   .     S
O328   C172    1.290   1_655 S
O329   Zn336   1.941   .     S
O330   Zn335   1.976   .     S
O331   Zn336   1.958   .     S
O332   Zn335   1.941   .     S
O333   Zn336   1.975   .     S
C337   O383    1.290   .     A
C337   C339    1.399   .     S
C337   O492    1.279   1_455 S
C338   C340    1.441   .     S
C338   C353    1.399   .     A
C338   C346    1.401   .     A
C339   C117    1.334   1_465 S
C339   H41     1.082   1_565 S
C340   O385    1.296   .     A
C340   O496    1.290   1_455 S
C341   C342    1.402   .     S
C342   O386    1.288   .     A
C342   O443    1.282   .     S
C343   O388    1.298   .     A
C343   C345    1.451   .     S
C343   O445    1.296   .     S
C344   C359    1.393   .     A
C344   C859    1.392   1_554 S
C344   H876    1.084   1_554 S
C345   C358    1.406   .     A
C345   C359    1.408   .     A
C346   H373    1.084   .     S
C346   C347    1.388   .     A
C347   H375    1.083   .     S
C347   C349    1.391   .     A
C348   C353    1.409   .     A
C348   C349    1.416   .     A
C348   C858    1.415   .     S
C349   H878    1.079   .     S
C350   H362    1.111   .     S
C350   O390    1.412   .     S
C350   H361    1.113   .     S
C350   H363    1.108   .     S
C351   H364    1.106   .     S
C351   H365    1.111   .     S
C351   O381    1.396   .     S
C351   H366    1.109   .     S
C352   H369    1.107   .     S
C352   H368    1.113   .     S
C352   O382    1.420   .     S
C352   H367    1.108   .     S
C353   C357    1.410   .     A
C354   C358    1.412   .     A
C354   C852    1.415   1_554 S
C354   C859    1.423   1_554 S
C355   C356    1.391   .     A
C355   C848    1.392   .     S
C355   C858    1.423   .     S
C356   C357    1.379   .     A
C356   H371    1.084   .     S
C357   H376    1.084   .     S
C358   O382    1.394   .     S
C359   O446    1.384   .     S
H360   C5      1.088   1_565 S
H370   N379    1.029   .     S
H372   C848    1.084   .     S
H374   C853    1.079   1_554 S
N378   N379    1.291   .     D
N378   Zn392   2.026   .     S
N378   O381    1.346   .     S
N379   Zn391   2.026   .     S
O380   Zn391   1.958   .     S
O380   C393    1.279   .     S
O383   Zn392   1.976   .     S
O384   Zn391   1.975   .     S
O384   C396    1.290   .     S
O385   Zn392   1.941   .     S
O386   Zn391   1.976   .     S
O387   Zn392   1.958   .     S
O387   C454    1.282   1_455 S
O388   Zn391   1.941   .     S
O389   Zn392   1.975   .     S
O389   C455    1.296   1_455 S
O390   C471    1.384   1_455 S
C393   O439    1.290   .     A
C393   C395    1.399   .     S
C394   C396    1.441   .     S
C394   C409    1.399   .     A
C394   C402    1.401   .     A
C395   C5      1.334   1_565 S
C395   H97     1.082   1_565 S
C396   O441    1.296   .     A
C397   C398    1.402   .     S
C398   O442    1.288   .     A
C398   O499    1.282   .     S
C399   O444    1.298   .     A
C399   C401    1.451   .     S
C399   O501    1.296   .     S
C400   C415    1.393   .     A
C400   C915    1.392   1_554 S
C400   H932    1.084   1_554 S
C401   C414    1.406   .     A
C401   C415    1.408   .     A
C402   H429    1.084   .     S
C402   C403    1.388   .     A
C403   H431    1.083   .     S
C403   C405    1.391   .     A
C404   C409    1.409   .     A
C404   C405    1.416   .     A
C404   C914    1.415   .     S
C405   H934    1.079   .     S
C406   H418    1.111   .     S
C406   O446    1.412   .     S
C406   H417    1.113   .     S
C406   H419    1.108   .     S
C407   H420    1.106   .     S
C407   H421    1.111   .     S
C407   O437    1.396   .     S
C407   H422    1.109   .     S
C408   H425    1.107   .     S
C408   H424    1.113   .     S
C408   O438    1.420   .     S
C408   H423    1.108   .     S
C409   C413    1.410   .     A
C410   C414    1.412   .     A
C410   C908    1.415   1_554 S
C410   C915    1.423   1_554 S
C411   C412    1.391   .     A
C411   C904    1.392   .     S
C411   C914    1.423   .     S
C412   C413    1.379   .     A
C412   H427    1.084   .     S
C413   H432    1.084   .     S
C414   O438    1.394   .     S
C415   O502    1.384   .     S
H416   C61     1.088   1_565 S
H426   N435    1.029   .     S
H428   C904    1.084   .     S
H430   C909    1.079   1_554 S
N434   N435    1.291   .     D
N434   Zn448   2.026   .     S
N434   O437    1.346   .     S
N435   Zn447   2.026   .     S
O436   Zn447   1.958   .     S
O436   C449    1.279   .     S
O439   Zn448   1.976   .     S
O440   Zn447   1.975   .     S
O440   C452    1.290   .     S
O441   Zn448   1.941   .     S
O442   Zn447   1.976   .     S
O443   Zn448   1.958   .     S
O444   Zn447   1.941   .     S
O445   Zn448   1.975   .     S
C449   O495    1.290   .     A
C449   C451    1.399   .     S
C450   C452    1.441   .     S
C450   C465    1.399   .     A
C450   C458    1.401   .     A
C451   C61     1.334   1_565 S
C451   H153    1.082   1_565 S
C452   O497    1.296   .     A
C453   C454    1.402   .     S
C453   C171    1.334   1_655 S
C454   O498    1.288   .     A
C454   O387    1.282   1_655 S
C455   O500    1.298   .     A
C455   C457    1.451   .     S
C455   O389    1.296   1_655 S
C456   C471    1.393   .     A
C456   C971    1.392   1_554 S
C456   H988    1.084   1_554 S
C457   C470    1.406   .     A
C457   C471    1.408   .     A
C458   H485    1.084   .     S
C458   C459    1.388   .     A
C459   H487    1.083   .     S
C459   C461    1.391   .     A
C460   C465    1.409   .     A
C460   C461    1.416   .     A
C460   C970    1.415   .     S
C461   H990    1.079   .     S
C462   H474    1.111   .     S
C462   O502    1.412   .     S
C462   H473    1.113   .     S
C462   H475    1.108   .     S
C463   H476    1.106   .     S
C463   H477    1.111   .     S
C463   O493    1.396   .     S
C463   H478    1.109   .     S
C464   H481    1.107   .     S
C464   H480    1.113   .     S
C464   O494    1.420   .     S
C464   H479    1.108   .     S
C465   C469    1.410   .     A
C466   C470    1.412   .     A
C466   C964    1.415   1_554 S
C466   C971    1.423   1_554 S
C467   C468    1.391   .     A
C467   C960    1.392   .     S
C467   C970    1.423   .     S
C468   C469    1.379   .     A
C468   H483    1.084   .     S
C469   H488    1.084   .     S
C470   O494    1.394   .     S
C471   O390    1.384   1_655 S
H472   C117    1.088   1_565 S
H482   N491    1.029   .     S
H484   C960    1.084   .     S
H486   C965    1.079   1_554 S
N490   N491    1.291   .     D
N490   Zn504   2.026   .     S
N490   O493    1.346   .     S
N491   Zn503   2.026   .     S
O492   Zn503   1.958   .     S
O492   C337    1.279   1_655 S
O495   Zn504   1.976   .     S
O496   Zn503   1.975   .     S
O496   C340    1.290   1_655 S
O497   Zn504   1.941   .     S
O498   Zn503   1.976   .     S
O499   Zn504   1.958   .     S
O500   Zn503   1.941   .     S
O501   Zn504   1.975   .     S
C505   O551    1.290   .     A
C505   C507    1.399   .     S
C505   O660    1.279   1_455 S
C506   C508    1.441   .     S
C506   C521    1.399   .     A
C506   C514    1.401   .     A
C507   C789    1.334   1_455 S
C507   H713    1.082   .     S
C508   O553    1.296   .     A
C508   O664    1.290   1_455 S
C509   C510    1.402   .     S
C509   C899    1.334   1_545 S
C509   H864    1.088   1_545 S
C510   O554    1.288   .     A
C510   O611    1.282   .     S
C511   O556    1.298   .     A
C511   C513    1.451   .     S
C511   O613    1.296   .     S
C512   C527    1.393   .     A
C513   C526    1.406   .     A
C513   C527    1.408   .     A
C514   H541    1.084   .     S
C514   C515    1.388   .     A
C515   H543    1.083   .     S
C515   C517    1.391   .     A
C516   C521    1.409   .     A
C516   C517    1.416   .     A
C516   C18     1.415   1_556 S
C517   H38     1.079   1_556 S
C518   H530    1.111   .     S
C518   O558    1.412   .     S
C518   H529    1.113   .     S
C518   H531    1.108   .     S
C519   H532    1.106   .     S
C519   H533    1.111   .     S
C519   O549    1.396   .     S
C519   H534    1.109   .     S
C520   H537    1.107   .     S
C520   H536    1.113   .     S
C520   O550    1.420   .     S
C520   H535    1.108   .     S
C521   C525    1.410   .     A
C522   C526    1.412   .     A
C523   C524    1.391   .     A
C523   C8      1.392   1_556 S
C523   C18     1.423   1_556 S
C524   C525    1.379   .     A
C524   H539    1.084   .     S
C525   H544    1.084   .     S
C526   O550    1.394   .     S
C527   O614    1.384   .     S
H528   C677    1.088   .     S
H538   N547    1.029   .     S
H540   C8      1.084   1_556 S
H545   C843    1.082   1_545 S
N546   N547    1.291   .     D
N546   Zn560   2.026   .     S
N546   O549    1.346   .     S
N547   Zn559   2.026   .     S
O548   Zn559   1.958   .     S
O548   C561    1.279   .     S
O551   Zn560   1.976   .     S
O552   Zn559   1.975   .     S
O552   C564    1.290   .     S
O553   Zn560   1.941   .     S
O554   Zn559   1.976   .     S
O555   Zn560   1.958   .     S
O555   C622    1.282   1_455 S
O556   Zn559   1.941   .     S
O557   Zn560   1.975   .     S
O557   C623    1.296   1_455 S
O558   C639    1.384   1_455 S
C561   O607    1.290   .     A
C561   C563    1.399   .     S
C562   C564    1.441   .     S
C562   C577    1.399   .     A
C562   C570    1.401   .     A
C563   C677    1.334   .     S
C563   H769    1.082   .     S
C564   O609    1.296   .     A
C565   C566    1.402   .     S
C565   C955    1.334   1_545 S
C565   H920    1.088   1_545 S
C566   O610    1.288   .     A
C566   O667    1.282   .     S
C567   O612    1.298   .     A
C567   C569    1.451   .     S
C567   O669    1.296   .     S
C568   C583    1.393   .     A
C569   C582    1.406   .     A
C569   C583    1.408   .     A
C570   H597    1.084   .     S
C570   C571    1.388   .     A
C571   H599    1.083   .     S
C571   C573    1.391   .     A
C572   C577    1.409   .     A
C572   C573    1.416   .     A
C572   C74     1.415   1_556 S
C573   H94     1.079   1_556 S
C574   H586    1.111   .     S
C574   O614    1.412   .     S
C574   H585    1.113   .     S
C574   H587    1.108   .     S
C575   H588    1.106   .     S
C575   H589    1.111   .     S
C575   O605    1.396   .     S
C575   H590    1.109   .     S
C576   H593    1.107   .     S
C576   H592    1.113   .     S
C576   O606    1.420   .     S
C576   H591    1.108   .     S
C577   C581    1.410   .     A
C578   C582    1.412   .     A
C579   C580    1.391   .     A
C579   C64     1.392   1_556 S
C579   C74     1.423   1_556 S
C580   C581    1.379   .     A
C580   H595    1.084   .     S
C581   H600    1.084   .     S
C582   O606    1.394   .     S
C583   O670    1.384   .     S
H584   C733    1.088   .     S
H594   N603    1.029   .     S
H596   C64     1.084   1_556 S
H601   C899    1.082   1_545 S
N602   N603    1.291   .     D
N602   Zn616   2.026   .     S
N602   O605    1.346   .     S
N603   Zn615   2.026   .     S
O604   Zn615   1.958   .     S
O604   C617    1.279   .     S
O607   Zn616   1.976   .     S
O608   Zn615   1.975   .     S
O608   C620    1.290   .     S
O609   Zn616   1.941   .     S
O610   Zn615   1.976   .     S
O611   Zn616   1.958   .     S
O612   Zn615   1.941   .     S
O613   Zn616   1.975   .     S
C617   O663    1.290   .     A
C617   C619    1.399   .     S
C618   C620    1.441   .     S
C618   C633    1.399   .     A
C618   C626    1.401   .     A
C619   C733    1.334   .     S
C619   H825    1.082   .     S
C620   O665    1.296   .     A
C621   C622    1.402   .     S
C621   C843    1.334   1_645 S
C621   H976    1.088   1_545 S
C622   O666    1.288   .     A
C622   O555    1.282   1_655 S
C623   O668    1.298   .     A
C623   C625    1.451   .     S
C623   O557    1.296   1_655 S
C624   C639    1.393   .     A
C625   C638    1.406   .     A
C625   C639    1.408   .     A
C626   H653    1.084   .     S
C626   C627    1.388   .     A
C627   H655    1.083   .     S
C627   C629    1.391   .     A
C628   C633    1.409   .     A
C628   C629    1.416   .     A
C628   C130    1.415   1_556 S
C629   H150    1.079   1_556 S
C630   H642    1.111   .     S
C630   O670    1.412   .     S
C630   H641    1.113   .     S
C630   H643    1.108   .     S
C631   H644    1.106   .     S
C631   H645    1.111   .     S
C631   O661    1.396   .     S
C631   H646    1.109   .     S
C632   H649    1.107   .     S
C632   H648    1.113   .     S
C632   O662    1.420   .     S
C632   H647    1.108   .     S
C633   C637    1.410   .     A
C634   C638    1.412   .     A
C635   C636    1.391   .     A
C635   C120    1.392   1_556 S
C635   C130    1.423   1_556 S
C636   C637    1.379   .     A
C636   H651    1.084   .     S
C637   H656    1.084   .     S
C638   O662    1.394   .     S
C639   O558    1.384   1_655 S
H640   C789    1.088   .     S
H650   N659    1.029   .     S
H652   C120    1.084   1_556 S
H657   C955    1.082   1_545 S
N658   N659    1.291   .     D
N658   Zn672   2.026   .     S
N658   O661    1.346   .     S
N659   Zn671   2.026   .     S
O660   Zn671   1.958   .     S
O660   C505    1.279   1_655 S
O663   Zn672   1.976   .     S
O664   Zn671   1.975   .     S
O664   C508    1.290   1_655 S
O665   Zn672   1.941   .     S
O666   Zn671   1.976   .     S
O667   Zn672   1.958   .     S
O668   Zn671   1.941   .     S
O669   Zn672   1.975   .     S
C673   O719    1.290   .     A
C673   C675    1.399   .     S
C673   O828    1.279   1_455 S
C674   C676    1.441   .     S
C674   C689    1.399   .     A
C674   C682    1.401   .     A
C675   C957    1.334   1_455 S
C675   H881    1.082   .     S
C676   O721    1.296   .     A
C676   O832    1.290   1_455 S
C677   C678    1.402   .     S
C678   O722    1.288   .     A
C678   O779    1.282   .     S
C679   O724    1.298   .     A
C679   C681    1.451   .     S
C679   O781    1.296   .     S
C680   C695    1.393   .     A
C681   C694    1.406   .     A
C681   C695    1.408   .     A
C682   H709    1.084   .     S
C682   C683    1.388   .     A
C683   H711    1.083   .     S
C683   C685    1.391   .     A
C684   C689    1.409   .     A
C684   C685    1.416   .     A
C684   C186    1.415   1_556 S
C685   H206    1.079   1_556 S
C686   H698    1.111   .     S
C686   O726    1.412   .     S
C686   H697    1.113   .     S
C686   H699    1.108   .     S
C687   H700    1.106   .     S
C687   H701    1.111   .     S
C687   O717    1.396   .     S
C687   H702    1.109   .     S
C688   H705    1.107   .     S
C688   H704    1.113   .     S
C688   O718    1.420   .     S
C688   H703    1.108   .     S
C689   C693    1.410   .     A
C690   C694    1.412   .     A
C691   C692    1.391   .     A
C691   C176    1.392   1_556 S
C691   C186    1.423   1_556 S
C692   C693    1.379   .     A
C692   H707    1.084   .     S
C693   H712    1.084   .     S
C694   O718    1.394   .     S
C695   O782    1.384   .     S
H696   C845    1.088   .     S
H706   N715    1.029   .     S
H708   C176    1.084   1_556 S
N714   N715    1.291   .     D
N714   Zn728   2.026   .     S
N714   O717    1.346   .     S
N715   Zn727   2.026   .     S
O716   Zn727   1.958   .     S
O716   C729    1.279   .     S
O719   Zn728   1.976   .     S
O720   Zn727   1.975   .     S
O720   C732    1.290   .     S
O721   Zn728   1.941   .     S
O722   Zn727   1.976   .     S
O723   Zn728   1.958   .     S
O723   C790    1.282   1_455 S
O724   Zn727   1.941   .     S
O725   Zn728   1.975   .     S
O725   C791    1.296   1_455 S
O726   C807    1.384   1_455 S
C729   O775    1.290   .     A
C729   C731    1.399   .     S
C730   C732    1.441   .     S
C730   C745    1.399   .     A
C730   C738    1.401   .     A
C731   C845    1.334   .     S
C731   H937    1.082   .     S
C732   O777    1.296   .     A
C733   C734    1.402   .     S
C734   O778    1.288   .     A
C734   O835    1.282   .     S
C735   O780    1.298   .     A
C735   C737    1.451   .     S
C735   O837    1.296   .     S
C736   C751    1.393   .     A
C737   C750    1.406   .     A
C737   C751    1.408   .     A
C738   H765    1.084   .     S
C738   C739    1.388   .     A
C739   H767    1.083   .     S
C739   C741    1.391   .     A
C740   C745    1.409   .     A
C740   C741    1.416   .     A
C740   C242    1.415   1_556 S
C741   H262    1.079   1_556 S
C742   H754    1.111   .     S
C742   O782    1.412   .     S
C742   H753    1.113   .     S
C742   H755    1.108   .     S
C743   H756    1.106   .     S
C743   H757    1.111   .     S
C743   O773    1.396   .     S
C743   H758    1.109   .     S
C744   H761    1.107   .     S
C744   H760    1.113   .     S
C744   O774    1.420   .     S
C744   H759    1.108   .     S
C745   C749    1.410   .     A
C746   C750    1.412   .     A
C747   C748    1.391   .     A
C747   C232    1.392   1_556 S
C747   C242    1.423   1_556 S
C748   C749    1.379   .     A
C748   H763    1.084   .     S
C749   H768    1.084   .     S
C750   O774    1.394   .     S
C751   O838    1.384   .     S
H752   C901    1.088   .     S
H762   N771    1.029   .     S
H764   C232    1.084   1_556 S
N770   N771    1.291   .     D
N770   Zn784   2.026   .     S
N770   O773    1.346   .     S
N771   Zn783   2.026   .     S
O772   Zn783   1.958   .     S
O772   C785    1.279   .     S
O775   Zn784   1.976   .     S
O776   Zn783   1.975   .     S
O776   C788    1.290   .     S
O777   Zn784   1.941   .     S
O778   Zn783   1.976   .     S
O779   Zn784   1.958   .     S
O780   Zn783   1.941   .     S
O781   Zn784   1.975   .     S
C785   O831    1.290   .     A
C785   C787    1.399   .     S
C786   C788    1.441   .     S
C786   C801    1.399   .     A
C786   C794    1.401   .     A
C787   C901    1.334   .     S
C787   H993    1.082   .     S
C788   O833    1.296   .     A
C789   C790    1.402   .     S
C789   C507    1.334   1_655 S
C790   O834    1.288   .     A
C790   O723    1.282   1_655 S
C791   O836    1.298   .     A
C791   C793    1.451   .     S
C791   O725    1.296   1_655 S
C792   C807    1.393   .     A
C793   C806    1.406   .     A
C793   C807    1.408   .     A
C794   H821    1.084   .     S
C794   C795    1.388   .     A
C795   H823    1.083   .     S
C795   C797    1.391   .     A
C796   C801    1.409   .     A
C796   C797    1.416   .     A
C796   C298    1.415   1_556 S
C797   H318    1.079   1_556 S
C798   H810    1.111   .     S
C798   O838    1.412   .     S
C798   H809    1.113   .     S
C798   H811    1.108   .     S
C799   H812    1.106   .     S
C799   H813    1.111   .     S
C799   O829    1.396   .     S
C799   H814    1.109   .     S
C800   H817    1.107   .     S
C800   H816    1.113   .     S
C800   O830    1.420   .     S
C800   H815    1.108   .     S
C801   C805    1.410   .     A
C802   C806    1.412   .     A
C803   C804    1.391   .     A
C803   C288    1.392   1_556 S
C803   C298    1.423   1_556 S
C804   C805    1.379   .     A
C804   H819    1.084   .     S
C805   H824    1.084   .     S
C806   O830    1.394   .     S
C807   O726    1.384   1_655 S
H808   C957    1.088   .     S
H818   N827    1.029   .     S
H820   C288    1.084   1_556 S
N826   N827    1.291   .     D
N826   Zn840   2.026   .     S
N826   O829    1.346   .     S
N827   Zn839   2.026   .     S
O828   Zn839   1.958   .     S
O828   C673    1.279   1_655 S
O831   Zn840   1.976   .     S
O832   Zn839   1.975   .     S
O832   C676    1.290   1_655 S
O833   Zn840   1.941   .     S
O834   Zn839   1.976   .     S
O835   Zn840   1.958   .     S
O836   Zn839   1.941   .     S
O837   Zn840   1.975   .     S
C841   O887    1.290   .     A
C841   C843    1.399   .     S
C841   O996    1.279   1_455 S
C842   C844    1.441   .     S
C842   C857    1.399   .     A
C842   C850    1.401   .     A
C843   C621    1.334   1_465 S
C843   H545    1.082   1_565 S
C844   O889    1.296   .     A
C844   O1000   1.290   1_455 S
C845   C846    1.402   .     S
C846   O890    1.288   .     A
C846   O947    1.282   .     S
C847   O892    1.298   .     A
C847   C849    1.451   .     S
C847   O949    1.296   .     S
C848   C863    1.393   .     A
C849   C862    1.406   .     A
C849   C863    1.408   .     A
C850   H877    1.084   .     S
C850   C851    1.388   .     A
C851   H879    1.083   .     S
C851   C853    1.391   .     A
C852   C857    1.409   .     A
C852   C853    1.416   .     A
C852   C354    1.415   1_556 S
C853   H374    1.079   1_556 S
C854   H866    1.111   .     S
C854   O894    1.412   .     S
C854   H865    1.113   .     S
C854   H867    1.108   .     S
C855   H868    1.106   .     S
C855   H869    1.111   .     S
C855   O885    1.396   .     S
C855   H870    1.109   .     S
C856   H873    1.107   .     S
C856   H872    1.113   .     S
C856   O886    1.420   .     S
C856   H871    1.108   .     S
C857   C861    1.410   .     A
C858   C862    1.412   .     A
C859   C860    1.391   .     A
C859   C344    1.392   1_556 S
C859   C354    1.423   1_556 S
C860   C861    1.379   .     A
C860   H875    1.084   .     S
C861   H880    1.084   .     S
C862   O886    1.394   .     S
C863   O950    1.384   .     S
H864   C509    1.088   1_565 S
H874   N883    1.029   .     S
H876   C344    1.084   1_556 S
N882   N883    1.291   .     D
N882   Zn896   2.026   .     S
N882   O885    1.346   .     S
N883   Zn895   2.026   .     S
O884   Zn895   1.958   .     S
O884   C897    1.279   .     S
O887   Zn896   1.976   .     S
O888   Zn895   1.975   .     S
O888   C900    1.290   .     S
O889   Zn896   1.941   .     S
O890   Zn895   1.976   .     S
O891   Zn896   1.958   .     S
O891   C958    1.282   1_455 S
O892   Zn895   1.941   .     S
O893   Zn896   1.975   .     S
O893   C959    1.296   1_455 S
O894   C975    1.384   1_455 S
C897   O943    1.290   .     A
C897   C899    1.399   .     S
C898   C900    1.441   .     S
C898   C913    1.399   .     A
C898   C906    1.401   .     A
C899   C509    1.334   1_565 S
C899   H601    1.082   1_565 S
C900   O945    1.296   .     A
C901   C902    1.402   .     S
C902   O946    1.288   .     A
C902   O1003   1.282   .     S
C903   O948    1.298   .     A
C903   C905    1.451   .     S
C903   O1005   1.296   .     S
C904   C919    1.393   .     A
C905   C918    1.406   .     A
C905   C919    1.408   .     A
C906   H933    1.084   .     S
C906   C907    1.388   .     A
C907   H935    1.083   .     S
C907   C909    1.391   .     A
C908   C913    1.409   .     A
C908   C909    1.416   .     A
C908   C410    1.415   1_556 S
C909   H430    1.079   1_556 S
C910   H922    1.111   .     S
C910   O950    1.412   .     S
C910   H921    1.113   .     S
C910   H923    1.108   .     S
C911   H924    1.106   .     S
C911   H925    1.111   .     S
C911   O941    1.396   .     S
C911   H926    1.109   .     S
C912   H929    1.107   .     S
C912   H928    1.113   .     S
C912   O942    1.420   .     S
C912   H927    1.108   .     S
C913   C917    1.410   .     A
C914   C918    1.412   .     A
C915   C916    1.391   .     A
C915   C400    1.392   1_556 S
C915   C410    1.423   1_556 S
C916   C917    1.379   .     A
C916   H931    1.084   .     S
C917   H936    1.084   .     S
C918   O942    1.394   .     S
C919   O1006   1.384   .     S
H920   C565    1.088   1_565 S
H930   N939    1.029   .     S
H932   C400    1.084   1_556 S
N938   N939    1.291   .     D
N938   Zn952   2.026   .     S
N938   O941    1.346   .     S
N939   Zn951   2.026   .     S
O940   Zn951   1.958   .     S
O940   C953    1.279   .     S
O943   Zn952   1.976   .     S
O944   Zn951   1.975   .     S
O944   C956    1.290   .     S
O945   Zn952   1.941   .     S
O946   Zn951   1.976   .     S
O947   Zn952   1.958   .     S
O948   Zn951   1.941   .     S
O949   Zn952   1.975   .     S
C953   O999    1.290   .     A
C953   C955    1.399   .     S
C954   C956    1.441   .     S
C954   C969    1.399   .     A
C954   C962    1.401   .     A
C955   C565    1.334   1_565 S
C955   H657    1.082   1_565 S
C956   O1001   1.296   .     A
C957   C958    1.402   .     S
C957   C675    1.334   1_655 S
C958   O1002   1.288   .     A
C958   O891    1.282   1_655 S
C959   O1004   1.298   .     A
C959   C961    1.451   .     S
C959   O893    1.296   1_655 S
C960   C975    1.393   .     A
C961   C974    1.406   .     A
C961   C975    1.408   .     A
C962   H989    1.084   .     S
C962   C963    1.388   .     A
C963   H991    1.083   .     S
C963   C965    1.391   .     A
C964   C969    1.409   .     A
C964   C965    1.416   .     A
C964   C466    1.415   1_556 S
C965   H486    1.079   1_556 S
C966   H978    1.111   .     S
C966   O1006   1.412   .     S
C966   H977    1.113   .     S
C966   H979    1.108   .     S
C967   H980    1.106   .     S
C967   H981    1.111   .     S
C967   O997    1.396   .     S
C967   H982    1.109   .     S
C968   H985    1.107   .     S
C968   H984    1.113   .     S
C968   O998    1.420   .     S
C968   H983    1.108   .     S
C969   C973    1.410   .     A
C970   C974    1.412   .     A
C971   C972    1.391   .     A
C971   C456    1.392   1_556 S
C971   C466    1.423   1_556 S
C972   C973    1.379   .     A
C972   H987    1.084   .     S
C973   H992    1.084   .     S
C974   O998    1.394   .     S
C975   O894    1.384   1_655 S
H976   C621    1.088   1_565 S
H986   N995    1.029   .     S
H988   C456    1.084   1_556 S
N994   N995    1.291   .     D
N994   Zn1008  2.026   .     S
N994   O997    1.346   .     S
N995   Zn1007  2.026   .     S
O996   Zn1007  1.958   .     S
O996   C841    1.279   1_655 S
O999   Zn1008  1.976   .     S
O1000  Zn1007  1.975   .     S
O1000  C844    1.290   1_655 S
O1001  Zn1008  1.941   .     S
O1002  Zn1007  1.976   .     S
O1003  Zn1008  1.958   .     S
O1004  Zn1007  1.941   .     S
O1005  Zn1008  1.975   .     S
