data_str_m1_o10_o16_pcu_sym.79
_audit_creation_date              2020-01-03
_audit_creation_method            'Materials Studio'
_symmetry_space_group_name_H-M    'P1'
_symmetry_Int_Tables_number       1
_symmetry_cell_setting            triclinic
loop_
_symmetry_equiv_pos_as_xyz
  x,y,z
_cell_length_a                    32.5313
_cell_length_b                    32.5289
_cell_length_c                    31.0578
_cell_angle_alpha                 96.7155
_cell_angle_beta                  75.0294
_cell_angle_gamma                 98.6377
loop_
_atom_site_label
_atom_site_type_symbol
_atom_site_fract_x
_atom_site_fract_y
_atom_site_fract_z
_atom_site_U_iso_or_equiv
_atom_site_adp_type
_atom_site_occupancy
Zn1    Zn    0.19338   0.13994   0.28734   0.00000  Uiso   1.00
Zn2    Zn    0.13379   0.12458   0.21875   0.00000  Uiso   1.00
Zn3    Zn    0.21056   0.19775   0.20657   0.00000  Uiso   1.00
Zn4    Zn    0.12893   0.20439   0.28733   0.00000  Uiso   1.00
O5     O     0.16667   0.16667   0.25000   0.00000  Uiso   1.00
O6     O     0.07071   0.18878   0.28213   0.00000  Uiso   1.00
O7     O     0.25491   0.15226   0.27013   0.00000  Uiso   1.00
O8     O     0.13760   0.06944   0.23413   0.00000  Uiso   1.00
O9     O     0.20345   0.25620   0.21360   0.00000  Uiso   1.00
O10    O     0.15451   0.12637   0.15458   0.00000  Uiso   1.00
O11    O     0.12940   0.20391   0.34968   0.00000  Uiso   1.00
O12    O     0.20824   0.17759   0.14606   0.00000  Uiso   1.00
O13    O     0.17451   0.15880   0.34968   0.00000  Uiso   1.00
O14    O     0.17930   0.08019   0.28213   0.00000  Uiso   1.00
O15    O     0.14632   0.26085   0.27013   0.00000  Uiso   1.00
O16    O     0.07412   0.13291   0.23413   0.00000  Uiso   1.00
O17    O     0.26693   0.19272   0.21360   0.00000  Uiso   1.00
C18    C     0.05272   0.15954   0.25997   0.00000  Uiso   1.00
C19    C     0.28073   0.17378   0.24005   0.00000  Uiso   1.00
C20    C     0.15610   0.05582   0.26014   0.00000  Uiso   1.00
C21    C     0.17655   0.27787   0.24020   0.00000  Uiso   1.00
C22    C     0.18507   0.14793   0.12943   0.00000  Uiso   1.00
C23    C     0.14835   0.18441   0.37095   0.00000  Uiso   1.00
C24    C     0.19689   0.08711   0.01884   0.00000  Uiso   1.00
H25    H     0.21300   0.08003   0.08009   0.00000  Uiso   1.00
C26    C     0.19083   0.13920   0.08152   0.00000  Uiso   1.00
C27    C     0.13752   0.23595   0.43649   0.00000  Uiso   1.00
C28    C     0.14160   0.24988   0.47930   0.00000  Uiso   1.00
C29    C     0.15333   0.22369   0.00518   0.00000  Uiso   1.00
C30    C     0.15915   0.18168   0.48953   0.00000  Uiso   1.00
C31    C     0.15252   0.16702   0.44672   0.00000  Uiso   1.00
C32    C     0.17209   0.15404   0.01454   0.00000  Uiso   1.00
C33    C     0.17845   0.11227   0.49623   0.00000  Uiso   1.00
C34    C     0.16522   0.09707   0.45680   0.00000  Uiso   1.00
C35    C     0.15277   0.12441   0.43279   0.00000  Uiso   1.00
C36    C     0.17795   0.16638   0.05781   0.00000  Uiso   1.00
C37    C     0.20163   0.10042   0.06168   0.00000  Uiso   1.00
C38    C     0.14426   0.19507   0.41920   0.00000  Uiso   1.00
H39    H     0.16992   0.19575   0.07546   0.00000  Uiso   1.00
H40    H     0.13097   0.25786   0.41613   0.00000  Uiso   1.00
H41    H     0.15784   0.23765   0.03705   0.00000  Uiso   1.00
H42    H     0.13720   0.28178   0.49198   0.00000  Uiso   1.00
H43    H     0.14100   0.11122   0.40396   0.00000  Uiso   1.00
C44    C     0.32657   0.17653   0.23611   0.00000  Uiso   1.00
H45    H     0.01554   0.19461   0.21061   0.00000  Uiso   1.00
C46    C     0.00746   0.15690   0.26373   0.00000  Uiso   1.00
H47    H     0.31919   0.13869   0.28950   0.00000  Uiso   1.00
C48    C     0.18043   0.32245   0.23662   0.00000  Uiso   1.00
H49    H     0.20691   0.00370   0.21173   0.00000  Uiso   1.00
C50    C     0.15175   0.01169   0.26369   0.00000  Uiso   1.00
H51    H     0.12486   0.33121   0.28863   0.00000  Uiso   1.00
N52    N     0.15885   0.05335   0.44336   0.00000  Uiso   1.00
O53    O     0.17126   0.04020   0.40140   0.00000  Uiso   1.00
O54    O     0.13266   0.02840   0.47089   0.00000  Uiso   1.00
Br55   Br    0.22056   0.03638   0.49297   0.00000  Uiso   1.00
Zn56   Zn    0.52672   0.13994   0.28734   0.00000  Uiso   1.00
Zn57   Zn    0.46713   0.12458   0.21875   0.00000  Uiso   1.00
Zn58   Zn    0.54389   0.19775   0.20657   0.00000  Uiso   1.00
Zn59   Zn    0.46226   0.20439   0.28733   0.00000  Uiso   1.00
O60    O     0.50000   0.16667   0.25000   0.00000  Uiso   1.00
O61    O     0.40405   0.18878   0.28213   0.00000  Uiso   1.00
O62    O     0.58824   0.15226   0.27013   0.00000  Uiso   1.00
O63    O     0.47093   0.06944   0.23413   0.00000  Uiso   1.00
O64    O     0.53678   0.25620   0.21360   0.00000  Uiso   1.00
O65    O     0.48784   0.12637   0.15458   0.00000  Uiso   1.00
O66    O     0.46274   0.20391   0.34968   0.00000  Uiso   1.00
O67    O     0.54157   0.17759   0.14606   0.00000  Uiso   1.00
O68    O     0.50785   0.15880   0.34968   0.00000  Uiso   1.00
O69    O     0.51264   0.08019   0.28213   0.00000  Uiso   1.00
O70    O     0.47965   0.26085   0.27013   0.00000  Uiso   1.00
O71    O     0.40745   0.13291   0.23413   0.00000  Uiso   1.00
O72    O     0.60026   0.19272   0.21360   0.00000  Uiso   1.00
C73    C     0.38605   0.15954   0.25997   0.00000  Uiso   1.00
C74    C     0.61407   0.17378   0.24005   0.00000  Uiso   1.00
C75    C     0.48943   0.05582   0.26014   0.00000  Uiso   1.00
C76    C     0.50989   0.27787   0.24020   0.00000  Uiso   1.00
C77    C     0.51840   0.14793   0.12943   0.00000  Uiso   1.00
C78    C     0.48169   0.18441   0.37095   0.00000  Uiso   1.00
C79    C     0.53022   0.08711   0.01884   0.00000  Uiso   1.00
H80    H     0.54633   0.08003   0.08009   0.00000  Uiso   1.00
C81    C     0.52416   0.13920   0.08152   0.00000  Uiso   1.00
C82    C     0.47086   0.23595   0.43649   0.00000  Uiso   1.00
C83    C     0.47493   0.24988   0.47930   0.00000  Uiso   1.00
C84    C     0.48666   0.22369   0.00518   0.00000  Uiso   1.00
C85    C     0.49249   0.18168   0.48953   0.00000  Uiso   1.00
C86    C     0.48585   0.16702   0.44672   0.00000  Uiso   1.00
C87    C     0.50542   0.15404   0.01454   0.00000  Uiso   1.00
C88    C     0.51178   0.11227   0.49623   0.00000  Uiso   1.00
C89    C     0.49855   0.09707   0.45680   0.00000  Uiso   1.00
C90    C     0.48610   0.12441   0.43279   0.00000  Uiso   1.00
C91    C     0.51129   0.16638   0.05781   0.00000  Uiso   1.00
C92    C     0.53496   0.10042   0.06168   0.00000  Uiso   1.00
C93    C     0.47759   0.19507   0.41920   0.00000  Uiso   1.00
H94    H     0.50325   0.19575   0.07546   0.00000  Uiso   1.00
H95    H     0.46431   0.25786   0.41613   0.00000  Uiso   1.00
H96    H     0.49117   0.23765   0.03705   0.00000  Uiso   1.00
H97    H     0.47053   0.28178   0.49198   0.00000  Uiso   1.00
H98    H     0.47433   0.11122   0.40396   0.00000  Uiso   1.00
C99    C     0.65991   0.17653   0.23611   0.00000  Uiso   1.00
H100   H     0.34887   0.19461   0.21061   0.00000  Uiso   1.00
C101   C     0.34079   0.15690   0.26373   0.00000  Uiso   1.00
H102   H     0.65253   0.13869   0.28950   0.00000  Uiso   1.00
C103   C     0.51376   0.32245   0.23662   0.00000  Uiso   1.00
H104   H     0.54024   0.00370   0.21173   0.00000  Uiso   1.00
C105   C     0.48508   0.01169   0.26369   0.00000  Uiso   1.00
H106   H     0.45819   0.33121   0.28863   0.00000  Uiso   1.00
N107   N     0.49218   0.05335   0.44336   0.00000  Uiso   1.00
O108   O     0.50459   0.04020   0.40140   0.00000  Uiso   1.00
O109   O     0.46599   0.02840   0.47089   0.00000  Uiso   1.00
Br110  Br    0.55389   0.03638   0.49297   0.00000  Uiso   1.00
Zn111  Zn    0.86005   0.13994   0.28734   0.00000  Uiso   1.00
Zn112  Zn    0.80046   0.12458   0.21875   0.00000  Uiso   1.00
Zn113  Zn    0.87723   0.19775   0.20657   0.00000  Uiso   1.00
Zn114  Zn    0.79560   0.20439   0.28733   0.00000  Uiso   1.00
O115   O     0.83333   0.16667   0.25000   0.00000  Uiso   1.00
O116   O     0.73738   0.18878   0.28213   0.00000  Uiso   1.00
O117   O     0.92158   0.15226   0.27013   0.00000  Uiso   1.00
O118   O     0.80426   0.06944   0.23413   0.00000  Uiso   1.00
O119   O     0.87012   0.25620   0.21360   0.00000  Uiso   1.00
O120   O     0.82118   0.12637   0.15458   0.00000  Uiso   1.00
O121   O     0.79607   0.20391   0.34968   0.00000  Uiso   1.00
O122   O     0.87491   0.17759   0.14606   0.00000  Uiso   1.00
O123   O     0.84118   0.15880   0.34968   0.00000  Uiso   1.00
O124   O     0.84597   0.08019   0.28213   0.00000  Uiso   1.00
O125   O     0.81298   0.26085   0.27013   0.00000  Uiso   1.00
O126   O     0.74078   0.13291   0.23413   0.00000  Uiso   1.00
O127   O     0.93360   0.19272   0.21360   0.00000  Uiso   1.00
C128   C     0.71939   0.15954   0.25997   0.00000  Uiso   1.00
C129   C     0.94740   0.17378   0.24005   0.00000  Uiso   1.00
C130   C     0.82276   0.05582   0.26014   0.00000  Uiso   1.00
C131   C     0.84322   0.27787   0.24020   0.00000  Uiso   1.00
C132   C     0.85173   0.14793   0.12943   0.00000  Uiso   1.00
C133   C     0.81502   0.18441   0.37095   0.00000  Uiso   1.00
C134   C     0.86356   0.08711   0.01884   0.00000  Uiso   1.00
H135   H     0.87967   0.08003   0.08009   0.00000  Uiso   1.00
C136   C     0.85750   0.13920   0.08152   0.00000  Uiso   1.00
C137   C     0.80419   0.23595   0.43649   0.00000  Uiso   1.00
C138   C     0.80827   0.24988   0.47930   0.00000  Uiso   1.00
C139   C     0.82000   0.22369   0.00518   0.00000  Uiso   1.00
C140   C     0.82582   0.18168   0.48953   0.00000  Uiso   1.00
C141   C     0.81919   0.16702   0.44672   0.00000  Uiso   1.00
C142   C     0.83875   0.15404   0.01454   0.00000  Uiso   1.00
C143   C     0.84511   0.11227   0.49623   0.00000  Uiso   1.00
C144   C     0.83188   0.09707   0.45680   0.00000  Uiso   1.00
C145   C     0.81943   0.12441   0.43279   0.00000  Uiso   1.00
C146   C     0.84462   0.16638   0.05781   0.00000  Uiso   1.00
C147   C     0.86830   0.10042   0.06168   0.00000  Uiso   1.00
C148   C     0.81092   0.19507   0.41920   0.00000  Uiso   1.00
H149   H     0.83658   0.19575   0.07546   0.00000  Uiso   1.00
H150   H     0.79764   0.25786   0.41613   0.00000  Uiso   1.00
H151   H     0.82450   0.23765   0.03705   0.00000  Uiso   1.00
H152   H     0.80387   0.28178   0.49198   0.00000  Uiso   1.00
H153   H     0.80767   0.11122   0.40396   0.00000  Uiso   1.00
C154   C     0.99324   0.17653   0.23611   0.00000  Uiso   1.00
H155   H     0.68220   0.19461   0.21061   0.00000  Uiso   1.00
C156   C     0.67412   0.15690   0.26373   0.00000  Uiso   1.00
H157   H     0.98586   0.13869   0.28950   0.00000  Uiso   1.00
C158   C     0.84710   0.32245   0.23662   0.00000  Uiso   1.00
H159   H     0.87358   0.00370   0.21173   0.00000  Uiso   1.00
C160   C     0.81841   0.01169   0.26369   0.00000  Uiso   1.00
H161   H     0.79153   0.33121   0.28863   0.00000  Uiso   1.00
N162   N     0.82551   0.05335   0.44336   0.00000  Uiso   1.00
O163   O     0.83792   0.04020   0.40140   0.00000  Uiso   1.00
O164   O     0.79933   0.02840   0.47089   0.00000  Uiso   1.00
Br165  Br    0.88722   0.03638   0.49297   0.00000  Uiso   1.00
Zn166  Zn    0.19338   0.47327   0.28734   0.00000  Uiso   1.00
Zn167  Zn    0.13379   0.45791   0.21875   0.00000  Uiso   1.00
Zn168  Zn    0.21056   0.53109   0.20657   0.00000  Uiso   1.00
Zn169  Zn    0.12893   0.53773   0.28733   0.00000  Uiso   1.00
O170   O     0.16667   0.50000   0.25000   0.00000  Uiso   1.00
O171   O     0.07071   0.52211   0.28213   0.00000  Uiso   1.00
O172   O     0.25491   0.48559   0.27013   0.00000  Uiso   1.00
O173   O     0.13760   0.40277   0.23413   0.00000  Uiso   1.00
O174   O     0.20345   0.58953   0.21360   0.00000  Uiso   1.00
O175   O     0.15451   0.45970   0.15458   0.00000  Uiso   1.00
O176   O     0.12940   0.53724   0.34968   0.00000  Uiso   1.00
O177   O     0.20824   0.51092   0.14606   0.00000  Uiso   1.00
O178   O     0.17451   0.49213   0.34968   0.00000  Uiso   1.00
O179   O     0.17930   0.41352   0.28213   0.00000  Uiso   1.00
O180   O     0.14632   0.59418   0.27013   0.00000  Uiso   1.00
O181   O     0.07412   0.46625   0.23413   0.00000  Uiso   1.00
O182   O     0.26693   0.52605   0.21360   0.00000  Uiso   1.00
C183   C     0.05272   0.49288   0.25997   0.00000  Uiso   1.00
C184   C     0.28073   0.50712   0.24005   0.00000  Uiso   1.00
C185   C     0.15610   0.38916   0.26014   0.00000  Uiso   1.00
C186   C     0.17655   0.61121   0.24020   0.00000  Uiso   1.00
C187   C     0.18507   0.48126   0.12943   0.00000  Uiso   1.00
C188   C     0.14835   0.51774   0.37095   0.00000  Uiso   1.00
C189   C     0.19689   0.42045   0.01884   0.00000  Uiso   1.00
H190   H     0.21300   0.41336   0.08009   0.00000  Uiso   1.00
C191   C     0.19083   0.47253   0.08152   0.00000  Uiso   1.00
C192   C     0.13752   0.56929   0.43649   0.00000  Uiso   1.00
C193   C     0.14160   0.58322   0.47930   0.00000  Uiso   1.00
C194   C     0.15333   0.55702   0.00518   0.00000  Uiso   1.00
C195   C     0.15915   0.51501   0.48953   0.00000  Uiso   1.00
C196   C     0.15252   0.50035   0.44672   0.00000  Uiso   1.00
C197   C     0.17209   0.48737   0.01454   0.00000  Uiso   1.00
C198   C     0.17845   0.44560   0.49623   0.00000  Uiso   1.00
C199   C     0.16522   0.43040   0.45680   0.00000  Uiso   1.00
C200   C     0.15277   0.45774   0.43279   0.00000  Uiso   1.00
C201   C     0.17795   0.49972   0.05781   0.00000  Uiso   1.00
C202   C     0.20163   0.43375   0.06168   0.00000  Uiso   1.00
C203   C     0.14426   0.52841   0.41920   0.00000  Uiso   1.00
H204   H     0.16992   0.52908   0.07546   0.00000  Uiso   1.00
H205   H     0.13097   0.59120   0.41613   0.00000  Uiso   1.00
H206   H     0.15784   0.57098   0.03705   0.00000  Uiso   1.00
H207   H     0.13720   0.61511   0.49198   0.00000  Uiso   1.00
H208   H     0.14100   0.44455   0.40396   0.00000  Uiso   1.00
C209   C     0.32657   0.50987   0.23611   0.00000  Uiso   1.00
H210   H     0.01554   0.52795   0.21061   0.00000  Uiso   1.00
C211   C     0.00746   0.49023   0.26373   0.00000  Uiso   1.00
H212   H     0.31919   0.47203   0.28950   0.00000  Uiso   1.00
C213   C     0.18043   0.65578   0.23662   0.00000  Uiso   1.00
H214   H     0.20691   0.33703   0.21173   0.00000  Uiso   1.00
C215   C     0.15175   0.34502   0.26369   0.00000  Uiso   1.00
H216   H     0.12486   0.66455   0.28863   0.00000  Uiso   1.00
N217   N     0.15885   0.38669   0.44336   0.00000  Uiso   1.00
O218   O     0.17126   0.37354   0.40140   0.00000  Uiso   1.00
O219   O     0.13266   0.36173   0.47089   0.00000  Uiso   1.00
Br220  Br    0.22056   0.36972   0.49297   0.00000  Uiso   1.00
Zn221  Zn    0.52672   0.47327   0.28734   0.00000  Uiso   1.00
Zn222  Zn    0.46713   0.45791   0.21875   0.00000  Uiso   1.00
Zn223  Zn    0.54389   0.53109   0.20657   0.00000  Uiso   1.00
Zn224  Zn    0.46226   0.53773   0.28733   0.00000  Uiso   1.00
O225   O     0.50000   0.50000   0.25000   0.00000  Uiso   1.00
O226   O     0.40405   0.52211   0.28213   0.00000  Uiso   1.00
O227   O     0.58824   0.48559   0.27013   0.00000  Uiso   1.00
O228   O     0.47093   0.40277   0.23413   0.00000  Uiso   1.00
O229   O     0.53678   0.58953   0.21360   0.00000  Uiso   1.00
O230   O     0.48784   0.45970   0.15458   0.00000  Uiso   1.00
O231   O     0.46274   0.53724   0.34968   0.00000  Uiso   1.00
O232   O     0.54157   0.51092   0.14606   0.00000  Uiso   1.00
O233   O     0.50785   0.49213   0.34968   0.00000  Uiso   1.00
O234   O     0.51264   0.41352   0.28213   0.00000  Uiso   1.00
O235   O     0.47965   0.59418   0.27013   0.00000  Uiso   1.00
O236   O     0.40745   0.46625   0.23413   0.00000  Uiso   1.00
O237   O     0.60026   0.52605   0.21360   0.00000  Uiso   1.00
C238   C     0.38605   0.49288   0.25997   0.00000  Uiso   1.00
C239   C     0.61407   0.50712   0.24005   0.00000  Uiso   1.00
C240   C     0.48943   0.38916   0.26014   0.00000  Uiso   1.00
C241   C     0.50989   0.61121   0.24020   0.00000  Uiso   1.00
C242   C     0.51840   0.48126   0.12943   0.00000  Uiso   1.00
C243   C     0.48169   0.51774   0.37095   0.00000  Uiso   1.00
C244   C     0.53022   0.42045   0.01884   0.00000  Uiso   1.00
H245   H     0.54633   0.41336   0.08009   0.00000  Uiso   1.00
C246   C     0.52416   0.47253   0.08152   0.00000  Uiso   1.00
C247   C     0.47086   0.56929   0.43649   0.00000  Uiso   1.00
C248   C     0.47493   0.58322   0.47930   0.00000  Uiso   1.00
C249   C     0.48666   0.55702   0.00518   0.00000  Uiso   1.00
C250   C     0.49249   0.51501   0.48953   0.00000  Uiso   1.00
C251   C     0.48585   0.50035   0.44672   0.00000  Uiso   1.00
C252   C     0.50542   0.48737   0.01454   0.00000  Uiso   1.00
C253   C     0.51178   0.44560   0.49623   0.00000  Uiso   1.00
C254   C     0.49855   0.43040   0.45680   0.00000  Uiso   1.00
C255   C     0.48610   0.45774   0.43279   0.00000  Uiso   1.00
C256   C     0.51129   0.49972   0.05781   0.00000  Uiso   1.00
C257   C     0.53496   0.43375   0.06168   0.00000  Uiso   1.00
C258   C     0.47759   0.52841   0.41920   0.00000  Uiso   1.00
H259   H     0.50325   0.52908   0.07546   0.00000  Uiso   1.00
H260   H     0.46431   0.59120   0.41613   0.00000  Uiso   1.00
H261   H     0.49117   0.57098   0.03705   0.00000  Uiso   1.00
H262   H     0.47053   0.61511   0.49198   0.00000  Uiso   1.00
H263   H     0.47433   0.44455   0.40396   0.00000  Uiso   1.00
C264   C     0.65991   0.50987   0.23611   0.00000  Uiso   1.00
H265   H     0.34887   0.52795   0.21061   0.00000  Uiso   1.00
C266   C     0.34079   0.49023   0.26373   0.00000  Uiso   1.00
H267   H     0.65253   0.47203   0.28950   0.00000  Uiso   1.00
C268   C     0.51376   0.65578   0.23662   0.00000  Uiso   1.00
H269   H     0.54024   0.33703   0.21173   0.00000  Uiso   1.00
C270   C     0.48508   0.34502   0.26369   0.00000  Uiso   1.00
H271   H     0.45819   0.66455   0.28863   0.00000  Uiso   1.00
N272   N     0.49218   0.38669   0.44336   0.00000  Uiso   1.00
O273   O     0.50459   0.37354   0.40140   0.00000  Uiso   1.00
O274   O     0.46599   0.36173   0.47089   0.00000  Uiso   1.00
Br275  Br    0.55389   0.36972   0.49297   0.00000  Uiso   1.00
Zn276  Zn    0.86005   0.47327   0.28734   0.00000  Uiso   1.00
Zn277  Zn    0.80046   0.45791   0.21875   0.00000  Uiso   1.00
Zn278  Zn    0.87723   0.53109   0.20657   0.00000  Uiso   1.00
Zn279  Zn    0.79560   0.53773   0.28733   0.00000  Uiso   1.00
O280   O     0.83333   0.50000   0.25000   0.00000  Uiso   1.00
O281   O     0.73738   0.52211   0.28213   0.00000  Uiso   1.00
O282   O     0.92158   0.48559   0.27013   0.00000  Uiso   1.00
O283   O     0.80426   0.40277   0.23413   0.00000  Uiso   1.00
O284   O     0.87012   0.58953   0.21360   0.00000  Uiso   1.00
O285   O     0.82118   0.45970   0.15458   0.00000  Uiso   1.00
O286   O     0.79607   0.53724   0.34968   0.00000  Uiso   1.00
O287   O     0.87491   0.51092   0.14606   0.00000  Uiso   1.00
O288   O     0.84118   0.49213   0.34968   0.00000  Uiso   1.00
O289   O     0.84597   0.41352   0.28213   0.00000  Uiso   1.00
O290   O     0.81298   0.59418   0.27013   0.00000  Uiso   1.00
O291   O     0.74078   0.46625   0.23413   0.00000  Uiso   1.00
O292   O     0.93360   0.52605   0.21360   0.00000  Uiso   1.00
C293   C     0.71939   0.49288   0.25997   0.00000  Uiso   1.00
C294   C     0.94740   0.50712   0.24005   0.00000  Uiso   1.00
C295   C     0.82276   0.38916   0.26014   0.00000  Uiso   1.00
C296   C     0.84322   0.61121   0.24020   0.00000  Uiso   1.00
C297   C     0.85173   0.48126   0.12943   0.00000  Uiso   1.00
C298   C     0.81502   0.51774   0.37095   0.00000  Uiso   1.00
C299   C     0.86356   0.42045   0.01884   0.00000  Uiso   1.00
H300   H     0.87967   0.41336   0.08009   0.00000  Uiso   1.00
C301   C     0.85750   0.47253   0.08152   0.00000  Uiso   1.00
C302   C     0.80419   0.56929   0.43649   0.00000  Uiso   1.00
C303   C     0.80827   0.58322   0.47930   0.00000  Uiso   1.00
C304   C     0.82000   0.55702   0.00518   0.00000  Uiso   1.00
C305   C     0.82582   0.51501   0.48953   0.00000  Uiso   1.00
C306   C     0.81919   0.50035   0.44672   0.00000  Uiso   1.00
C307   C     0.83875   0.48737   0.01454   0.00000  Uiso   1.00
C308   C     0.84511   0.44560   0.49623   0.00000  Uiso   1.00
C309   C     0.83188   0.43040   0.45680   0.00000  Uiso   1.00
C310   C     0.81943   0.45774   0.43279   0.00000  Uiso   1.00
C311   C     0.84462   0.49972   0.05781   0.00000  Uiso   1.00
C312   C     0.86830   0.43375   0.06168   0.00000  Uiso   1.00
C313   C     0.81092   0.52841   0.41920   0.00000  Uiso   1.00
H314   H     0.83658   0.52908   0.07546   0.00000  Uiso   1.00
H315   H     0.79764   0.59120   0.41613   0.00000  Uiso   1.00
H316   H     0.82450   0.57098   0.03705   0.00000  Uiso   1.00
H317   H     0.80387   0.61511   0.49198   0.00000  Uiso   1.00
H318   H     0.80767   0.44455   0.40396   0.00000  Uiso   1.00
C319   C     0.99324   0.50987   0.23611   0.00000  Uiso   1.00
H320   H     0.68220   0.52795   0.21061   0.00000  Uiso   1.00
C321   C     0.67412   0.49023   0.26373   0.00000  Uiso   1.00
H322   H     0.98586   0.47203   0.28950   0.00000  Uiso   1.00
C323   C     0.84710   0.65578   0.23662   0.00000  Uiso   1.00
H324   H     0.87358   0.33703   0.21173   0.00000  Uiso   1.00
C325   C     0.81841   0.34502   0.26369   0.00000  Uiso   1.00
H326   H     0.79153   0.66455   0.28863   0.00000  Uiso   1.00
N327   N     0.82551   0.38669   0.44336   0.00000  Uiso   1.00
O328   O     0.83792   0.37354   0.40140   0.00000  Uiso   1.00
O329   O     0.79933   0.36173   0.47089   0.00000  Uiso   1.00
Br330  Br    0.88722   0.36972   0.49297   0.00000  Uiso   1.00
Zn331  Zn    0.19338   0.80661   0.28734   0.00000  Uiso   1.00
Zn332  Zn    0.13379   0.79124   0.21875   0.00000  Uiso   1.00
Zn333  Zn    0.21056   0.86442   0.20657   0.00000  Uiso   1.00
Zn334  Zn    0.12893   0.87106   0.28733   0.00000  Uiso   1.00
O335   O     0.16667   0.83333   0.25000   0.00000  Uiso   1.00
O336   O     0.07071   0.85544   0.28213   0.00000  Uiso   1.00
O337   O     0.25491   0.81892   0.27013   0.00000  Uiso   1.00
O338   O     0.13760   0.73610   0.23413   0.00000  Uiso   1.00
O339   O     0.20345   0.92286   0.21360   0.00000  Uiso   1.00
O340   O     0.15451   0.79304   0.15458   0.00000  Uiso   1.00
O341   O     0.12940   0.87058   0.34968   0.00000  Uiso   1.00
O342   O     0.20824   0.84425   0.14606   0.00000  Uiso   1.00
O343   O     0.17451   0.82546   0.34968   0.00000  Uiso   1.00
O344   O     0.17930   0.74686   0.28213   0.00000  Uiso   1.00
O345   O     0.14632   0.92751   0.27013   0.00000  Uiso   1.00
O346   O     0.07412   0.79958   0.23413   0.00000  Uiso   1.00
O347   O     0.26693   0.85939   0.21360   0.00000  Uiso   1.00
C348   C     0.05272   0.82621   0.25997   0.00000  Uiso   1.00
C349   C     0.28073   0.84045   0.24005   0.00000  Uiso   1.00
C350   C     0.15610   0.72249   0.26014   0.00000  Uiso   1.00
C351   C     0.17655   0.94454   0.24020   0.00000  Uiso   1.00
C352   C     0.18507   0.81459   0.12943   0.00000  Uiso   1.00
C353   C     0.14835   0.85107   0.37095   0.00000  Uiso   1.00
C354   C     0.19689   0.75378   0.01884   0.00000  Uiso   1.00
H355   H     0.21300   0.74669   0.08009   0.00000  Uiso   1.00
C356   C     0.19083   0.80586   0.08152   0.00000  Uiso   1.00
C357   C     0.13752   0.90262   0.43649   0.00000  Uiso   1.00
C358   C     0.14160   0.91655   0.47930   0.00000  Uiso   1.00
C359   C     0.15333   0.89036   0.00518   0.00000  Uiso   1.00
C360   C     0.15915   0.84834   0.48953   0.00000  Uiso   1.00
C361   C     0.15252   0.83369   0.44672   0.00000  Uiso   1.00
C362   C     0.17209   0.82071   0.01454   0.00000  Uiso   1.00
C363   C     0.17845   0.77894   0.49623   0.00000  Uiso   1.00
C364   C     0.16522   0.76373   0.45680   0.00000  Uiso   1.00
C365   C     0.15277   0.79107   0.43279   0.00000  Uiso   1.00
C366   C     0.17795   0.83305   0.05781   0.00000  Uiso   1.00
C367   C     0.20163   0.76709   0.06168   0.00000  Uiso   1.00
C368   C     0.14426   0.86174   0.41920   0.00000  Uiso   1.00
H369   H     0.16992   0.86242   0.07546   0.00000  Uiso   1.00
H370   H     0.13097   0.92453   0.41613   0.00000  Uiso   1.00
H371   H     0.15784   0.90432   0.03705   0.00000  Uiso   1.00
H372   H     0.13720   0.94844   0.49198   0.00000  Uiso   1.00
H373   H     0.14100   0.77788   0.40396   0.00000  Uiso   1.00
C374   C     0.32657   0.84320   0.23611   0.00000  Uiso   1.00
H375   H     0.01554   0.86128   0.21061   0.00000  Uiso   1.00
C376   C     0.00746   0.82357   0.26373   0.00000  Uiso   1.00
H377   H     0.31919   0.80536   0.28950   0.00000  Uiso   1.00
C378   C     0.18043   0.98912   0.23662   0.00000  Uiso   1.00
H379   H     0.20691   0.67037   0.21173   0.00000  Uiso   1.00
C380   C     0.15175   0.67835   0.26369   0.00000  Uiso   1.00
H381   H     0.12486   0.99788   0.28863   0.00000  Uiso   1.00
N382   N     0.15885   0.72002   0.44336   0.00000  Uiso   1.00
O383   O     0.17126   0.70687   0.40140   0.00000  Uiso   1.00
O384   O     0.13266   0.69506   0.47089   0.00000  Uiso   1.00
Br385  Br    0.22056   0.70305   0.49297   0.00000  Uiso   1.00
Zn386  Zn    0.52672   0.80661   0.28734   0.00000  Uiso   1.00
Zn387  Zn    0.46713   0.79124   0.21875   0.00000  Uiso   1.00
Zn388  Zn    0.54389   0.86442   0.20657   0.00000  Uiso   1.00
Zn389  Zn    0.46226   0.87106   0.28733   0.00000  Uiso   1.00
O390   O     0.50000   0.83333   0.25000   0.00000  Uiso   1.00
O391   O     0.40405   0.85544   0.28213   0.00000  Uiso   1.00
O392   O     0.58824   0.81892   0.27013   0.00000  Uiso   1.00
O393   O     0.47093   0.73610   0.23413   0.00000  Uiso   1.00
O394   O     0.53678   0.92286   0.21360   0.00000  Uiso   1.00
O395   O     0.48784   0.79304   0.15458   0.00000  Uiso   1.00
O396   O     0.46274   0.87058   0.34968   0.00000  Uiso   1.00
O397   O     0.54157   0.84425   0.14606   0.00000  Uiso   1.00
O398   O     0.50785   0.82546   0.34968   0.00000  Uiso   1.00
O399   O     0.51264   0.74686   0.28213   0.00000  Uiso   1.00
O400   O     0.47965   0.92751   0.27013   0.00000  Uiso   1.00
O401   O     0.40745   0.79958   0.23413   0.00000  Uiso   1.00
O402   O     0.60026   0.85939   0.21360   0.00000  Uiso   1.00
C403   C     0.38605   0.82621   0.25997   0.00000  Uiso   1.00
C404   C     0.61407   0.84045   0.24005   0.00000  Uiso   1.00
C405   C     0.48943   0.72249   0.26014   0.00000  Uiso   1.00
C406   C     0.50989   0.94454   0.24020   0.00000  Uiso   1.00
C407   C     0.51840   0.81459   0.12943   0.00000  Uiso   1.00
C408   C     0.48169   0.85107   0.37095   0.00000  Uiso   1.00
C409   C     0.53022   0.75378   0.01884   0.00000  Uiso   1.00
H410   H     0.54633   0.74669   0.08009   0.00000  Uiso   1.00
C411   C     0.52416   0.80586   0.08152   0.00000  Uiso   1.00
C412   C     0.47086   0.90262   0.43649   0.00000  Uiso   1.00
C413   C     0.47493   0.91655   0.47930   0.00000  Uiso   1.00
C414   C     0.48666   0.89036   0.00518   0.00000  Uiso   1.00
C415   C     0.49249   0.84834   0.48953   0.00000  Uiso   1.00
C416   C     0.48585   0.83369   0.44672   0.00000  Uiso   1.00
C417   C     0.50542   0.82071   0.01454   0.00000  Uiso   1.00
C418   C     0.51178   0.77894   0.49623   0.00000  Uiso   1.00
C419   C     0.49855   0.76373   0.45680   0.00000  Uiso   1.00
C420   C     0.48610   0.79107   0.43279   0.00000  Uiso   1.00
C421   C     0.51129   0.83305   0.05781   0.00000  Uiso   1.00
C422   C     0.53496   0.76709   0.06168   0.00000  Uiso   1.00
C423   C     0.47759   0.86174   0.41920   0.00000  Uiso   1.00
H424   H     0.50325   0.86242   0.07546   0.00000  Uiso   1.00
H425   H     0.46431   0.92453   0.41613   0.00000  Uiso   1.00
H426   H     0.49117   0.90432   0.03705   0.00000  Uiso   1.00
H427   H     0.47053   0.94844   0.49198   0.00000  Uiso   1.00
H428   H     0.47433   0.77788   0.40396   0.00000  Uiso   1.00
C429   C     0.65991   0.84320   0.23611   0.00000  Uiso   1.00
H430   H     0.34887   0.86128   0.21061   0.00000  Uiso   1.00
C431   C     0.34079   0.82357   0.26373   0.00000  Uiso   1.00
H432   H     0.65253   0.80536   0.28950   0.00000  Uiso   1.00
C433   C     0.51376   0.98912   0.23662   0.00000  Uiso   1.00
H434   H     0.54024   0.67037   0.21173   0.00000  Uiso   1.00
C435   C     0.48508   0.67835   0.26369   0.00000  Uiso   1.00
H436   H     0.45819   0.99788   0.28863   0.00000  Uiso   1.00
N437   N     0.49218   0.72002   0.44336   0.00000  Uiso   1.00
O438   O     0.50459   0.70687   0.40140   0.00000  Uiso   1.00
O439   O     0.46599   0.69506   0.47089   0.00000  Uiso   1.00
Br440  Br    0.55389   0.70305   0.49297   0.00000  Uiso   1.00
Zn441  Zn    0.86005   0.80661   0.28734   0.00000  Uiso   1.00
Zn442  Zn    0.80046   0.79124   0.21875   0.00000  Uiso   1.00
Zn443  Zn    0.87723   0.86442   0.20657   0.00000  Uiso   1.00
Zn444  Zn    0.79560   0.87106   0.28733   0.00000  Uiso   1.00
O445   O     0.83333   0.83333   0.25000   0.00000  Uiso   1.00
O446   O     0.73738   0.85544   0.28213   0.00000  Uiso   1.00
O447   O     0.92158   0.81892   0.27013   0.00000  Uiso   1.00
O448   O     0.80426   0.73610   0.23413   0.00000  Uiso   1.00
O449   O     0.87012   0.92286   0.21360   0.00000  Uiso   1.00
O450   O     0.82118   0.79304   0.15458   0.00000  Uiso   1.00
O451   O     0.79607   0.87058   0.34968   0.00000  Uiso   1.00
O452   O     0.87491   0.84425   0.14606   0.00000  Uiso   1.00
O453   O     0.84118   0.82546   0.34968   0.00000  Uiso   1.00
O454   O     0.84597   0.74686   0.28213   0.00000  Uiso   1.00
O455   O     0.81298   0.92751   0.27013   0.00000  Uiso   1.00
O456   O     0.74078   0.79958   0.23413   0.00000  Uiso   1.00
O457   O     0.93360   0.85939   0.21360   0.00000  Uiso   1.00
C458   C     0.71939   0.82621   0.25997   0.00000  Uiso   1.00
C459   C     0.94740   0.84045   0.24005   0.00000  Uiso   1.00
C460   C     0.82276   0.72249   0.26014   0.00000  Uiso   1.00
C461   C     0.84322   0.94454   0.24020   0.00000  Uiso   1.00
C462   C     0.85173   0.81459   0.12943   0.00000  Uiso   1.00
C463   C     0.81502   0.85107   0.37095   0.00000  Uiso   1.00
C464   C     0.86356   0.75378   0.01884   0.00000  Uiso   1.00
H465   H     0.87967   0.74669   0.08009   0.00000  Uiso   1.00
C466   C     0.85750   0.80586   0.08152   0.00000  Uiso   1.00
C467   C     0.80419   0.90262   0.43649   0.00000  Uiso   1.00
C468   C     0.80827   0.91655   0.47930   0.00000  Uiso   1.00
C469   C     0.82000   0.89036   0.00518   0.00000  Uiso   1.00
C470   C     0.82582   0.84834   0.48953   0.00000  Uiso   1.00
C471   C     0.81919   0.83369   0.44672   0.00000  Uiso   1.00
C472   C     0.83875   0.82071   0.01454   0.00000  Uiso   1.00
C473   C     0.84511   0.77894   0.49623   0.00000  Uiso   1.00
C474   C     0.83188   0.76373   0.45680   0.00000  Uiso   1.00
C475   C     0.81943   0.79107   0.43279   0.00000  Uiso   1.00
C476   C     0.84462   0.83305   0.05781   0.00000  Uiso   1.00
C477   C     0.86830   0.76709   0.06168   0.00000  Uiso   1.00
C478   C     0.81092   0.86174   0.41920   0.00000  Uiso   1.00
H479   H     0.83658   0.86242   0.07546   0.00000  Uiso   1.00
H480   H     0.79764   0.92453   0.41613   0.00000  Uiso   1.00
H481   H     0.82450   0.90432   0.03705   0.00000  Uiso   1.00
H482   H     0.80387   0.94844   0.49198   0.00000  Uiso   1.00
H483   H     0.80767   0.77788   0.40396   0.00000  Uiso   1.00
C484   C     0.99324   0.84320   0.23611   0.00000  Uiso   1.00
H485   H     0.68220   0.86128   0.21061   0.00000  Uiso   1.00
C486   C     0.67412   0.82357   0.26373   0.00000  Uiso   1.00
H487   H     0.98586   0.80536   0.28950   0.00000  Uiso   1.00
C488   C     0.84710   0.98912   0.23662   0.00000  Uiso   1.00
H489   H     0.87358   0.67037   0.21173   0.00000  Uiso   1.00
C490   C     0.81841   0.67835   0.26369   0.00000  Uiso   1.00
H491   H     0.79153   0.99788   0.28863   0.00000  Uiso   1.00
N492   N     0.82551   0.72002   0.44336   0.00000  Uiso   1.00
O493   O     0.83792   0.70687   0.40140   0.00000  Uiso   1.00
O494   O     0.79933   0.69506   0.47089   0.00000  Uiso   1.00
Br495  Br    0.88722   0.70305   0.49297   0.00000  Uiso   1.00
Zn496  Zn    0.19338   0.13994   0.78734   0.00000  Uiso   1.00
Zn497  Zn    0.13379   0.12458   0.71875   0.00000  Uiso   1.00
Zn498  Zn    0.21056   0.19775   0.70657   0.00000  Uiso   1.00
Zn499  Zn    0.12893   0.20439   0.78733   0.00000  Uiso   1.00
O500   O     0.16667   0.16667   0.75000   0.00000  Uiso   1.00
O501   O     0.07071   0.18878   0.78213   0.00000  Uiso   1.00
O502   O     0.25491   0.15226   0.77013   0.00000  Uiso   1.00
O503   O     0.13760   0.06944   0.73413   0.00000  Uiso   1.00
O504   O     0.20345   0.25620   0.71360   0.00000  Uiso   1.00
O505   O     0.15451   0.12637   0.65458   0.00000  Uiso   1.00
O506   O     0.12940   0.20391   0.84968   0.00000  Uiso   1.00
O507   O     0.20824   0.17759   0.64606   0.00000  Uiso   1.00
O508   O     0.17451   0.15880   0.84968   0.00000  Uiso   1.00
O509   O     0.17930   0.08019   0.78213   0.00000  Uiso   1.00
O510   O     0.14632   0.26085   0.77013   0.00000  Uiso   1.00
O511   O     0.07412   0.13291   0.73413   0.00000  Uiso   1.00
O512   O     0.26693   0.19272   0.71360   0.00000  Uiso   1.00
C513   C     0.05272   0.15954   0.75997   0.00000  Uiso   1.00
C514   C     0.28073   0.17378   0.74005   0.00000  Uiso   1.00
C515   C     0.15610   0.05582   0.76014   0.00000  Uiso   1.00
C516   C     0.17655   0.27787   0.74020   0.00000  Uiso   1.00
C517   C     0.18507   0.14793   0.62943   0.00000  Uiso   1.00
C518   C     0.14835   0.18441   0.87095   0.00000  Uiso   1.00
C519   C     0.19689   0.08711   0.51884   0.00000  Uiso   1.00
H520   H     0.21300   0.08003   0.58009   0.00000  Uiso   1.00
C521   C     0.19083   0.13920   0.58152   0.00000  Uiso   1.00
C522   C     0.13752   0.23595   0.93649   0.00000  Uiso   1.00
C523   C     0.14160   0.24988   0.97930   0.00000  Uiso   1.00
C524   C     0.15333   0.22369   0.50518   0.00000  Uiso   1.00
C525   C     0.15915   0.18168   0.98953   0.00000  Uiso   1.00
C526   C     0.15252   0.16702   0.94672   0.00000  Uiso   1.00
C527   C     0.17209   0.15404   0.51454   0.00000  Uiso   1.00
C528   C     0.17845   0.11227   0.99623   0.00000  Uiso   1.00
C529   C     0.16522   0.09707   0.95680   0.00000  Uiso   1.00
C530   C     0.15277   0.12441   0.93279   0.00000  Uiso   1.00
C531   C     0.17795   0.16638   0.55781   0.00000  Uiso   1.00
C532   C     0.20163   0.10042   0.56168   0.00000  Uiso   1.00
C533   C     0.14426   0.19507   0.91920   0.00000  Uiso   1.00
H534   H     0.16992   0.19575   0.57546   0.00000  Uiso   1.00
H535   H     0.13097   0.25786   0.91613   0.00000  Uiso   1.00
H536   H     0.15784   0.23765   0.53705   0.00000  Uiso   1.00
H537   H     0.13720   0.28178   0.99198   0.00000  Uiso   1.00
H538   H     0.14100   0.11122   0.90396   0.00000  Uiso   1.00
C539   C     0.32657   0.17653   0.73611   0.00000  Uiso   1.00
H540   H     0.01554   0.19461   0.71061   0.00000  Uiso   1.00
C541   C     0.00746   0.15690   0.76373   0.00000  Uiso   1.00
H542   H     0.31919   0.13869   0.78950   0.00000  Uiso   1.00
C543   C     0.18043   0.32245   0.73662   0.00000  Uiso   1.00
H544   H     0.20691   0.00370   0.71173   0.00000  Uiso   1.00
C545   C     0.15175   0.01169   0.76369   0.00000  Uiso   1.00
H546   H     0.12486   0.33121   0.78863   0.00000  Uiso   1.00
N547   N     0.15885   0.05335   0.94336   0.00000  Uiso   1.00
O548   O     0.17126   0.04020   0.90140   0.00000  Uiso   1.00
O549   O     0.13266   0.02840   0.97089   0.00000  Uiso   1.00
Br550  Br    0.22056   0.03638   0.99297   0.00000  Uiso   1.00
Zn551  Zn    0.52672   0.13994   0.78734   0.00000  Uiso   1.00
Zn552  Zn    0.46713   0.12458   0.71875   0.00000  Uiso   1.00
Zn553  Zn    0.54389   0.19775   0.70657   0.00000  Uiso   1.00
Zn554  Zn    0.46226   0.20439   0.78733   0.00000  Uiso   1.00
O555   O     0.50000   0.16667   0.75000   0.00000  Uiso   1.00
O556   O     0.40405   0.18878   0.78213   0.00000  Uiso   1.00
O557   O     0.58824   0.15226   0.77013   0.00000  Uiso   1.00
O558   O     0.47093   0.06944   0.73413   0.00000  Uiso   1.00
O559   O     0.53678   0.25620   0.71360   0.00000  Uiso   1.00
O560   O     0.48784   0.12637   0.65458   0.00000  Uiso   1.00
O561   O     0.46274   0.20391   0.84968   0.00000  Uiso   1.00
O562   O     0.54157   0.17759   0.64606   0.00000  Uiso   1.00
O563   O     0.50785   0.15880   0.84968   0.00000  Uiso   1.00
O564   O     0.51264   0.08019   0.78213   0.00000  Uiso   1.00
O565   O     0.47965   0.26085   0.77013   0.00000  Uiso   1.00
O566   O     0.40745   0.13291   0.73413   0.00000  Uiso   1.00
O567   O     0.60026   0.19272   0.71360   0.00000  Uiso   1.00
C568   C     0.38605   0.15954   0.75997   0.00000  Uiso   1.00
C569   C     0.61407   0.17378   0.74005   0.00000  Uiso   1.00
C570   C     0.48943   0.05582   0.76014   0.00000  Uiso   1.00
C571   C     0.50989   0.27787   0.74020   0.00000  Uiso   1.00
C572   C     0.51840   0.14793   0.62943   0.00000  Uiso   1.00
C573   C     0.48169   0.18441   0.87095   0.00000  Uiso   1.00
C574   C     0.53022   0.08711   0.51884   0.00000  Uiso   1.00
H575   H     0.54633   0.08003   0.58009   0.00000  Uiso   1.00
C576   C     0.52416   0.13920   0.58152   0.00000  Uiso   1.00
C577   C     0.47086   0.23595   0.93649   0.00000  Uiso   1.00
C578   C     0.47493   0.24988   0.97930   0.00000  Uiso   1.00
C579   C     0.48666   0.22369   0.50518   0.00000  Uiso   1.00
C580   C     0.49249   0.18168   0.98953   0.00000  Uiso   1.00
C581   C     0.48585   0.16702   0.94672   0.00000  Uiso   1.00
C582   C     0.50542   0.15404   0.51454   0.00000  Uiso   1.00
C583   C     0.51178   0.11227   0.99623   0.00000  Uiso   1.00
C584   C     0.49855   0.09707   0.95680   0.00000  Uiso   1.00
C585   C     0.48610   0.12441   0.93279   0.00000  Uiso   1.00
C586   C     0.51129   0.16638   0.55781   0.00000  Uiso   1.00
C587   C     0.53496   0.10042   0.56168   0.00000  Uiso   1.00
C588   C     0.47759   0.19507   0.91920   0.00000  Uiso   1.00
H589   H     0.50325   0.19575   0.57546   0.00000  Uiso   1.00
H590   H     0.46431   0.25786   0.91613   0.00000  Uiso   1.00
H591   H     0.49117   0.23765   0.53705   0.00000  Uiso   1.00
H592   H     0.47053   0.28178   0.99198   0.00000  Uiso   1.00
H593   H     0.47433   0.11122   0.90396   0.00000  Uiso   1.00
C594   C     0.65991   0.17653   0.73611   0.00000  Uiso   1.00
H595   H     0.34887   0.19461   0.71061   0.00000  Uiso   1.00
C596   C     0.34079   0.15690   0.76373   0.00000  Uiso   1.00
H597   H     0.65253   0.13869   0.78950   0.00000  Uiso   1.00
C598   C     0.51376   0.32245   0.73662   0.00000  Uiso   1.00
H599   H     0.54024   0.00370   0.71173   0.00000  Uiso   1.00
C600   C     0.48508   0.01169   0.76369   0.00000  Uiso   1.00
H601   H     0.45819   0.33121   0.78863   0.00000  Uiso   1.00
N602   N     0.49218   0.05335   0.94336   0.00000  Uiso   1.00
O603   O     0.50459   0.04020   0.90140   0.00000  Uiso   1.00
O604   O     0.46599   0.02840   0.97089   0.00000  Uiso   1.00
Br605  Br    0.55389   0.03638   0.99297   0.00000  Uiso   1.00
Zn606  Zn    0.86005   0.13994   0.78734   0.00000  Uiso   1.00
Zn607  Zn    0.80046   0.12458   0.71875   0.00000  Uiso   1.00
Zn608  Zn    0.87723   0.19775   0.70657   0.00000  Uiso   1.00
Zn609  Zn    0.79560   0.20439   0.78733   0.00000  Uiso   1.00
O610   O     0.83333   0.16667   0.75000   0.00000  Uiso   1.00
O611   O     0.73738   0.18878   0.78213   0.00000  Uiso   1.00
O612   O     0.92158   0.15226   0.77013   0.00000  Uiso   1.00
O613   O     0.80426   0.06944   0.73413   0.00000  Uiso   1.00
O614   O     0.87012   0.25620   0.71360   0.00000  Uiso   1.00
O615   O     0.82118   0.12637   0.65458   0.00000  Uiso   1.00
O616   O     0.79607   0.20391   0.84968   0.00000  Uiso   1.00
O617   O     0.87491   0.17759   0.64606   0.00000  Uiso   1.00
O618   O     0.84118   0.15880   0.84968   0.00000  Uiso   1.00
O619   O     0.84597   0.08019   0.78213   0.00000  Uiso   1.00
O620   O     0.81298   0.26085   0.77013   0.00000  Uiso   1.00
O621   O     0.74078   0.13291   0.73413   0.00000  Uiso   1.00
O622   O     0.93360   0.19272   0.71360   0.00000  Uiso   1.00
C623   C     0.71939   0.15954   0.75997   0.00000  Uiso   1.00
C624   C     0.94740   0.17378   0.74005   0.00000  Uiso   1.00
C625   C     0.82276   0.05582   0.76014   0.00000  Uiso   1.00
C626   C     0.84322   0.27787   0.74020   0.00000  Uiso   1.00
C627   C     0.85173   0.14793   0.62943   0.00000  Uiso   1.00
C628   C     0.81502   0.18441   0.87095   0.00000  Uiso   1.00
C629   C     0.86356   0.08711   0.51884   0.00000  Uiso   1.00
H630   H     0.87967   0.08003   0.58009   0.00000  Uiso   1.00
C631   C     0.85750   0.13920   0.58152   0.00000  Uiso   1.00
C632   C     0.80419   0.23595   0.93649   0.00000  Uiso   1.00
C633   C     0.80827   0.24988   0.97930   0.00000  Uiso   1.00
C634   C     0.82000   0.22369   0.50518   0.00000  Uiso   1.00
C635   C     0.82582   0.18168   0.98953   0.00000  Uiso   1.00
C636   C     0.81919   0.16702   0.94672   0.00000  Uiso   1.00
C637   C     0.83875   0.15404   0.51454   0.00000  Uiso   1.00
C638   C     0.84511   0.11227   0.99623   0.00000  Uiso   1.00
C639   C     0.83188   0.09707   0.95680   0.00000  Uiso   1.00
C640   C     0.81943   0.12441   0.93279   0.00000  Uiso   1.00
C641   C     0.84462   0.16638   0.55781   0.00000  Uiso   1.00
C642   C     0.86830   0.10042   0.56168   0.00000  Uiso   1.00
C643   C     0.81092   0.19507   0.91920   0.00000  Uiso   1.00
H644   H     0.83658   0.19575   0.57546   0.00000  Uiso   1.00
H645   H     0.79764   0.25786   0.91613   0.00000  Uiso   1.00
H646   H     0.82450   0.23765   0.53705   0.00000  Uiso   1.00
H647   H     0.80387   0.28178   0.99198   0.00000  Uiso   1.00
H648   H     0.80767   0.11122   0.90396   0.00000  Uiso   1.00
C649   C     0.99324   0.17653   0.73611   0.00000  Uiso   1.00
H650   H     0.68220   0.19461   0.71061   0.00000  Uiso   1.00
C651   C     0.67412   0.15690   0.76373   0.00000  Uiso   1.00
H652   H     0.98586   0.13869   0.78950   0.00000  Uiso   1.00
C653   C     0.84710   0.32245   0.73662   0.00000  Uiso   1.00
H654   H     0.87358   0.00370   0.71173   0.00000  Uiso   1.00
C655   C     0.81841   0.01169   0.76369   0.00000  Uiso   1.00
H656   H     0.79153   0.33121   0.78863   0.00000  Uiso   1.00
N657   N     0.82551   0.05335   0.94336   0.00000  Uiso   1.00
O658   O     0.83792   0.04020   0.90140   0.00000  Uiso   1.00
O659   O     0.79933   0.02840   0.97089   0.00000  Uiso   1.00
Br660  Br    0.88722   0.03638   0.99297   0.00000  Uiso   1.00
Zn661  Zn    0.19338   0.47327   0.78734   0.00000  Uiso   1.00
Zn662  Zn    0.13379   0.45791   0.71875   0.00000  Uiso   1.00
Zn663  Zn    0.21056   0.53109   0.70657   0.00000  Uiso   1.00
Zn664  Zn    0.12893   0.53773   0.78733   0.00000  Uiso   1.00
O665   O     0.16667   0.50000   0.75000   0.00000  Uiso   1.00
O666   O     0.07071   0.52211   0.78213   0.00000  Uiso   1.00
O667   O     0.25491   0.48559   0.77013   0.00000  Uiso   1.00
O668   O     0.13760   0.40277   0.73413   0.00000  Uiso   1.00
O669   O     0.20345   0.58953   0.71360   0.00000  Uiso   1.00
O670   O     0.15451   0.45970   0.65458   0.00000  Uiso   1.00
O671   O     0.12940   0.53724   0.84968   0.00000  Uiso   1.00
O672   O     0.20824   0.51092   0.64606   0.00000  Uiso   1.00
O673   O     0.17451   0.49213   0.84968   0.00000  Uiso   1.00
O674   O     0.17930   0.41352   0.78213   0.00000  Uiso   1.00
O675   O     0.14632   0.59418   0.77013   0.00000  Uiso   1.00
O676   O     0.07412   0.46625   0.73413   0.00000  Uiso   1.00
O677   O     0.26693   0.52605   0.71360   0.00000  Uiso   1.00
C678   C     0.05272   0.49288   0.75997   0.00000  Uiso   1.00
C679   C     0.28073   0.50712   0.74005   0.00000  Uiso   1.00
C680   C     0.15610   0.38916   0.76014   0.00000  Uiso   1.00
C681   C     0.17655   0.61121   0.74020   0.00000  Uiso   1.00
C682   C     0.18507   0.48126   0.62943   0.00000  Uiso   1.00
C683   C     0.14835   0.51774   0.87095   0.00000  Uiso   1.00
C684   C     0.19689   0.42045   0.51884   0.00000  Uiso   1.00
H685   H     0.21300   0.41336   0.58009   0.00000  Uiso   1.00
C686   C     0.19083   0.47253   0.58152   0.00000  Uiso   1.00
C687   C     0.13752   0.56929   0.93649   0.00000  Uiso   1.00
C688   C     0.14160   0.58322   0.97930   0.00000  Uiso   1.00
C689   C     0.15333   0.55702   0.50518   0.00000  Uiso   1.00
C690   C     0.15915   0.51501   0.98953   0.00000  Uiso   1.00
C691   C     0.15252   0.50035   0.94672   0.00000  Uiso   1.00
C692   C     0.17209   0.48737   0.51454   0.00000  Uiso   1.00
C693   C     0.17845   0.44560   0.99623   0.00000  Uiso   1.00
C694   C     0.16522   0.43040   0.95680   0.00000  Uiso   1.00
C695   C     0.15277   0.45774   0.93279   0.00000  Uiso   1.00
C696   C     0.17795   0.49972   0.55781   0.00000  Uiso   1.00
C697   C     0.20163   0.43375   0.56168   0.00000  Uiso   1.00
C698   C     0.14426   0.52841   0.91920   0.00000  Uiso   1.00
H699   H     0.16992   0.52908   0.57546   0.00000  Uiso   1.00
H700   H     0.13097   0.59120   0.91613   0.00000  Uiso   1.00
H701   H     0.15784   0.57098   0.53705   0.00000  Uiso   1.00
H702   H     0.13720   0.61511   0.99198   0.00000  Uiso   1.00
H703   H     0.14100   0.44455   0.90396   0.00000  Uiso   1.00
C704   C     0.32657   0.50987   0.73611   0.00000  Uiso   1.00
H705   H     0.01554   0.52795   0.71061   0.00000  Uiso   1.00
C706   C     0.00746   0.49023   0.76373   0.00000  Uiso   1.00
H707   H     0.31919   0.47203   0.78950   0.00000  Uiso   1.00
C708   C     0.18043   0.65578   0.73662   0.00000  Uiso   1.00
H709   H     0.20691   0.33703   0.71173   0.00000  Uiso   1.00
C710   C     0.15175   0.34502   0.76369   0.00000  Uiso   1.00
H711   H     0.12486   0.66455   0.78863   0.00000  Uiso   1.00
N712   N     0.15885   0.38669   0.94336   0.00000  Uiso   1.00
O713   O     0.17126   0.37354   0.90140   0.00000  Uiso   1.00
O714   O     0.13266   0.36173   0.97089   0.00000  Uiso   1.00
Br715  Br    0.22056   0.36972   0.99297   0.00000  Uiso   1.00
Zn716  Zn    0.52672   0.47327   0.78734   0.00000  Uiso   1.00
Zn717  Zn    0.46713   0.45791   0.71875   0.00000  Uiso   1.00
Zn718  Zn    0.54389   0.53109   0.70657   0.00000  Uiso   1.00
Zn719  Zn    0.46226   0.53773   0.78733   0.00000  Uiso   1.00
O720   O     0.50000   0.50000   0.75000   0.00000  Uiso   1.00
O721   O     0.40405   0.52211   0.78213   0.00000  Uiso   1.00
O722   O     0.58824   0.48559   0.77013   0.00000  Uiso   1.00
O723   O     0.47093   0.40277   0.73413   0.00000  Uiso   1.00
O724   O     0.53678   0.58953   0.71360   0.00000  Uiso   1.00
O725   O     0.48784   0.45970   0.65458   0.00000  Uiso   1.00
O726   O     0.46274   0.53724   0.84968   0.00000  Uiso   1.00
O727   O     0.54157   0.51092   0.64606   0.00000  Uiso   1.00
O728   O     0.50785   0.49213   0.84968   0.00000  Uiso   1.00
O729   O     0.51264   0.41352   0.78213   0.00000  Uiso   1.00
O730   O     0.47965   0.59418   0.77013   0.00000  Uiso   1.00
O731   O     0.40745   0.46625   0.73413   0.00000  Uiso   1.00
O732   O     0.60026   0.52605   0.71360   0.00000  Uiso   1.00
C733   C     0.38605   0.49288   0.75997   0.00000  Uiso   1.00
C734   C     0.61407   0.50712   0.74005   0.00000  Uiso   1.00
C735   C     0.48943   0.38916   0.76014   0.00000  Uiso   1.00
C736   C     0.50989   0.61121   0.74020   0.00000  Uiso   1.00
C737   C     0.51840   0.48126   0.62943   0.00000  Uiso   1.00
C738   C     0.48169   0.51774   0.87095   0.00000  Uiso   1.00
C739   C     0.53022   0.42045   0.51884   0.00000  Uiso   1.00
H740   H     0.54633   0.41336   0.58009   0.00000  Uiso   1.00
C741   C     0.52416   0.47253   0.58152   0.00000  Uiso   1.00
C742   C     0.47086   0.56929   0.93649   0.00000  Uiso   1.00
C743   C     0.47493   0.58322   0.97930   0.00000  Uiso   1.00
C744   C     0.48666   0.55702   0.50518   0.00000  Uiso   1.00
C745   C     0.49249   0.51501   0.98953   0.00000  Uiso   1.00
C746   C     0.48585   0.50035   0.94672   0.00000  Uiso   1.00
C747   C     0.50542   0.48737   0.51454   0.00000  Uiso   1.00
C748   C     0.51178   0.44560   0.99623   0.00000  Uiso   1.00
C749   C     0.49855   0.43040   0.95680   0.00000  Uiso   1.00
C750   C     0.48610   0.45774   0.93279   0.00000  Uiso   1.00
C751   C     0.51129   0.49972   0.55781   0.00000  Uiso   1.00
C752   C     0.53496   0.43375   0.56168   0.00000  Uiso   1.00
C753   C     0.47759   0.52841   0.91920   0.00000  Uiso   1.00
H754   H     0.50325   0.52908   0.57546   0.00000  Uiso   1.00
H755   H     0.46431   0.59120   0.91613   0.00000  Uiso   1.00
H756   H     0.49117   0.57098   0.53705   0.00000  Uiso   1.00
H757   H     0.47053   0.61511   0.99198   0.00000  Uiso   1.00
H758   H     0.47433   0.44455   0.90396   0.00000  Uiso   1.00
C759   C     0.65991   0.50987   0.73611   0.00000  Uiso   1.00
H760   H     0.34887   0.52795   0.71061   0.00000  Uiso   1.00
C761   C     0.34079   0.49023   0.76373   0.00000  Uiso   1.00
H762   H     0.65253   0.47203   0.78950   0.00000  Uiso   1.00
C763   C     0.51376   0.65578   0.73662   0.00000  Uiso   1.00
H764   H     0.54024   0.33703   0.71173   0.00000  Uiso   1.00
C765   C     0.48508   0.34502   0.76369   0.00000  Uiso   1.00
H766   H     0.45819   0.66455   0.78863   0.00000  Uiso   1.00
N767   N     0.49218   0.38669   0.94336   0.00000  Uiso   1.00
O768   O     0.50459   0.37354   0.90140   0.00000  Uiso   1.00
O769   O     0.46599   0.36173   0.97089   0.00000  Uiso   1.00
Br770  Br    0.55389   0.36972   0.99297   0.00000  Uiso   1.00
Zn771  Zn    0.86005   0.47327   0.78734   0.00000  Uiso   1.00
Zn772  Zn    0.80046   0.45791   0.71875   0.00000  Uiso   1.00
Zn773  Zn    0.87723   0.53109   0.70657   0.00000  Uiso   1.00
Zn774  Zn    0.79560   0.53773   0.78733   0.00000  Uiso   1.00
O775   O     0.83333   0.50000   0.75000   0.00000  Uiso   1.00
O776   O     0.73738   0.52211   0.78213   0.00000  Uiso   1.00
O777   O     0.92158   0.48559   0.77013   0.00000  Uiso   1.00
O778   O     0.80426   0.40277   0.73413   0.00000  Uiso   1.00
O779   O     0.87012   0.58953   0.71360   0.00000  Uiso   1.00
O780   O     0.82118   0.45970   0.65458   0.00000  Uiso   1.00
O781   O     0.79607   0.53724   0.84968   0.00000  Uiso   1.00
O782   O     0.87491   0.51092   0.64606   0.00000  Uiso   1.00
O783   O     0.84118   0.49213   0.84968   0.00000  Uiso   1.00
O784   O     0.84597   0.41352   0.78213   0.00000  Uiso   1.00
O785   O     0.81298   0.59418   0.77013   0.00000  Uiso   1.00
O786   O     0.74078   0.46625   0.73413   0.00000  Uiso   1.00
O787   O     0.93360   0.52605   0.71360   0.00000  Uiso   1.00
C788   C     0.71939   0.49288   0.75997   0.00000  Uiso   1.00
C789   C     0.94740   0.50712   0.74005   0.00000  Uiso   1.00
C790   C     0.82276   0.38916   0.76014   0.00000  Uiso   1.00
C791   C     0.84322   0.61121   0.74020   0.00000  Uiso   1.00
C792   C     0.85173   0.48126   0.62943   0.00000  Uiso   1.00
C793   C     0.81502   0.51774   0.87095   0.00000  Uiso   1.00
C794   C     0.86356   0.42045   0.51884   0.00000  Uiso   1.00
H795   H     0.87967   0.41336   0.58009   0.00000  Uiso   1.00
C796   C     0.85750   0.47253   0.58152   0.00000  Uiso   1.00
C797   C     0.80419   0.56929   0.93649   0.00000  Uiso   1.00
C798   C     0.80827   0.58322   0.97930   0.00000  Uiso   1.00
C799   C     0.82000   0.55702   0.50518   0.00000  Uiso   1.00
C800   C     0.82582   0.51501   0.98953   0.00000  Uiso   1.00
C801   C     0.81919   0.50035   0.94672   0.00000  Uiso   1.00
C802   C     0.83875   0.48737   0.51454   0.00000  Uiso   1.00
C803   C     0.84511   0.44560   0.99623   0.00000  Uiso   1.00
C804   C     0.83188   0.43040   0.95680   0.00000  Uiso   1.00
C805   C     0.81943   0.45774   0.93279   0.00000  Uiso   1.00
C806   C     0.84462   0.49972   0.55781   0.00000  Uiso   1.00
C807   C     0.86830   0.43375   0.56168   0.00000  Uiso   1.00
C808   C     0.81092   0.52841   0.91920   0.00000  Uiso   1.00
H809   H     0.83658   0.52908   0.57546   0.00000  Uiso   1.00
H810   H     0.79764   0.59120   0.91613   0.00000  Uiso   1.00
H811   H     0.82450   0.57098   0.53705   0.00000  Uiso   1.00
H812   H     0.80387   0.61511   0.99198   0.00000  Uiso   1.00
H813   H     0.80767   0.44455   0.90396   0.00000  Uiso   1.00
C814   C     0.99324   0.50987   0.73611   0.00000  Uiso   1.00
H815   H     0.68220   0.52795   0.71061   0.00000  Uiso   1.00
C816   C     0.67412   0.49023   0.76373   0.00000  Uiso   1.00
H817   H     0.98586   0.47203   0.78950   0.00000  Uiso   1.00
C818   C     0.84710   0.65578   0.73662   0.00000  Uiso   1.00
H819   H     0.87358   0.33703   0.71173   0.00000  Uiso   1.00
C820   C     0.81841   0.34502   0.76369   0.00000  Uiso   1.00
H821   H     0.79153   0.66455   0.78863   0.00000  Uiso   1.00
N822   N     0.82551   0.38669   0.94336   0.00000  Uiso   1.00
O823   O     0.83792   0.37354   0.90140   0.00000  Uiso   1.00
O824   O     0.79933   0.36173   0.97089   0.00000  Uiso   1.00
Br825  Br    0.88722   0.36972   0.99297   0.00000  Uiso   1.00
Zn826  Zn    0.19338   0.80661   0.78734   0.00000  Uiso   1.00
Zn827  Zn    0.13379   0.79124   0.71875   0.00000  Uiso   1.00
Zn828  Zn    0.21056   0.86442   0.70657   0.00000  Uiso   1.00
Zn829  Zn    0.12893   0.87106   0.78733   0.00000  Uiso   1.00
O830   O     0.16667   0.83333   0.75000   0.00000  Uiso   1.00
O831   O     0.07071   0.85544   0.78213   0.00000  Uiso   1.00
O832   O     0.25491   0.81892   0.77013   0.00000  Uiso   1.00
O833   O     0.13760   0.73610   0.73413   0.00000  Uiso   1.00
O834   O     0.20345   0.92286   0.71360   0.00000  Uiso   1.00
O835   O     0.15451   0.79304   0.65458   0.00000  Uiso   1.00
O836   O     0.12940   0.87058   0.84968   0.00000  Uiso   1.00
O837   O     0.20824   0.84425   0.64606   0.00000  Uiso   1.00
O838   O     0.17451   0.82546   0.84968   0.00000  Uiso   1.00
O839   O     0.17930   0.74686   0.78213   0.00000  Uiso   1.00
O840   O     0.14632   0.92751   0.77013   0.00000  Uiso   1.00
O841   O     0.07412   0.79958   0.73413   0.00000  Uiso   1.00
O842   O     0.26693   0.85939   0.71360   0.00000  Uiso   1.00
C843   C     0.05272   0.82621   0.75997   0.00000  Uiso   1.00
C844   C     0.28073   0.84045   0.74005   0.00000  Uiso   1.00
C845   C     0.15610   0.72249   0.76014   0.00000  Uiso   1.00
C846   C     0.17655   0.94454   0.74020   0.00000  Uiso   1.00
C847   C     0.18507   0.81459   0.62943   0.00000  Uiso   1.00
C848   C     0.14835   0.85107   0.87095   0.00000  Uiso   1.00
C849   C     0.19689   0.75378   0.51884   0.00000  Uiso   1.00
H850   H     0.21300   0.74669   0.58009   0.00000  Uiso   1.00
C851   C     0.19083   0.80586   0.58152   0.00000  Uiso   1.00
C852   C     0.13752   0.90262   0.93649   0.00000  Uiso   1.00
C853   C     0.14160   0.91655   0.97930   0.00000  Uiso   1.00
C854   C     0.15333   0.89036   0.50518   0.00000  Uiso   1.00
C855   C     0.15915   0.84834   0.98953   0.00000  Uiso   1.00
C856   C     0.15252   0.83369   0.94672   0.00000  Uiso   1.00
C857   C     0.17209   0.82071   0.51454   0.00000  Uiso   1.00
C858   C     0.17845   0.77894   0.99623   0.00000  Uiso   1.00
C859   C     0.16522   0.76373   0.95680   0.00000  Uiso   1.00
C860   C     0.15277   0.79107   0.93279   0.00000  Uiso   1.00
C861   C     0.17795   0.83305   0.55781   0.00000  Uiso   1.00
C862   C     0.20163   0.76709   0.56168   0.00000  Uiso   1.00
C863   C     0.14426   0.86174   0.91920   0.00000  Uiso   1.00
H864   H     0.16992   0.86242   0.57546   0.00000  Uiso   1.00
H865   H     0.13097   0.92453   0.91613   0.00000  Uiso   1.00
H866   H     0.15784   0.90432   0.53705   0.00000  Uiso   1.00
H867   H     0.13720   0.94844   0.99198   0.00000  Uiso   1.00
H868   H     0.14100   0.77788   0.90396   0.00000  Uiso   1.00
C869   C     0.32657   0.84320   0.73611   0.00000  Uiso   1.00
H870   H     0.01554   0.86128   0.71061   0.00000  Uiso   1.00
C871   C     0.00746   0.82357   0.76373   0.00000  Uiso   1.00
H872   H     0.31919   0.80536   0.78950   0.00000  Uiso   1.00
C873   C     0.18043   0.98912   0.73662   0.00000  Uiso   1.00
H874   H     0.20691   0.67037   0.71173   0.00000  Uiso   1.00
C875   C     0.15175   0.67835   0.76369   0.00000  Uiso   1.00
H876   H     0.12486   0.99788   0.78863   0.00000  Uiso   1.00
N877   N     0.15885   0.72002   0.94336   0.00000  Uiso   1.00
O878   O     0.17126   0.70687   0.90140   0.00000  Uiso   1.00
O879   O     0.13266   0.69506   0.97089   0.00000  Uiso   1.00
Br880  Br    0.22056   0.70305   0.99297   0.00000  Uiso   1.00
Zn881  Zn    0.52672   0.80661   0.78734   0.00000  Uiso   1.00
Zn882  Zn    0.46713   0.79124   0.71875   0.00000  Uiso   1.00
Zn883  Zn    0.54389   0.86442   0.70657   0.00000  Uiso   1.00
Zn884  Zn    0.46226   0.87106   0.78733   0.00000  Uiso   1.00
O885   O     0.50000   0.83333   0.75000   0.00000  Uiso   1.00
O886   O     0.40405   0.85544   0.78213   0.00000  Uiso   1.00
O887   O     0.58824   0.81892   0.77013   0.00000  Uiso   1.00
O888   O     0.47093   0.73610   0.73413   0.00000  Uiso   1.00
O889   O     0.53678   0.92286   0.71360   0.00000  Uiso   1.00
O890   O     0.48784   0.79304   0.65458   0.00000  Uiso   1.00
O891   O     0.46274   0.87058   0.84968   0.00000  Uiso   1.00
O892   O     0.54157   0.84425   0.64606   0.00000  Uiso   1.00
O893   O     0.50785   0.82546   0.84968   0.00000  Uiso   1.00
O894   O     0.51264   0.74686   0.78213   0.00000  Uiso   1.00
O895   O     0.47965   0.92751   0.77013   0.00000  Uiso   1.00
O896   O     0.40745   0.79958   0.73413   0.00000  Uiso   1.00
O897   O     0.60026   0.85939   0.71360   0.00000  Uiso   1.00
C898   C     0.38605   0.82621   0.75997   0.00000  Uiso   1.00
C899   C     0.61407   0.84045   0.74005   0.00000  Uiso   1.00
C900   C     0.48943   0.72249   0.76014   0.00000  Uiso   1.00
C901   C     0.50989   0.94454   0.74020   0.00000  Uiso   1.00
C902   C     0.51840   0.81459   0.62943   0.00000  Uiso   1.00
C903   C     0.48169   0.85107   0.87095   0.00000  Uiso   1.00
C904   C     0.53022   0.75378   0.51884   0.00000  Uiso   1.00
H905   H     0.54633   0.74669   0.58009   0.00000  Uiso   1.00
C906   C     0.52416   0.80586   0.58152   0.00000  Uiso   1.00
C907   C     0.47086   0.90262   0.93649   0.00000  Uiso   1.00
C908   C     0.47493   0.91655   0.97930   0.00000  Uiso   1.00
C909   C     0.48666   0.89036   0.50518   0.00000  Uiso   1.00
C910   C     0.49249   0.84834   0.98953   0.00000  Uiso   1.00
C911   C     0.48585   0.83369   0.94672   0.00000  Uiso   1.00
C912   C     0.50542   0.82071   0.51454   0.00000  Uiso   1.00
C913   C     0.51178   0.77894   0.99623   0.00000  Uiso   1.00
C914   C     0.49855   0.76373   0.95680   0.00000  Uiso   1.00
C915   C     0.48610   0.79107   0.93279   0.00000  Uiso   1.00
C916   C     0.51129   0.83305   0.55781   0.00000  Uiso   1.00
C917   C     0.53496   0.76709   0.56168   0.00000  Uiso   1.00
C918   C     0.47759   0.86174   0.91920   0.00000  Uiso   1.00
H919   H     0.50325   0.86242   0.57546   0.00000  Uiso   1.00
H920   H     0.46431   0.92453   0.91613   0.00000  Uiso   1.00
H921   H     0.49117   0.90432   0.53705   0.00000  Uiso   1.00
H922   H     0.47053   0.94844   0.99198   0.00000  Uiso   1.00
H923   H     0.47433   0.77788   0.90396   0.00000  Uiso   1.00
C924   C     0.65991   0.84320   0.73611   0.00000  Uiso   1.00
H925   H     0.34887   0.86128   0.71061   0.00000  Uiso   1.00
C926   C     0.34079   0.82357   0.76373   0.00000  Uiso   1.00
H927   H     0.65253   0.80536   0.78950   0.00000  Uiso   1.00
C928   C     0.51376   0.98912   0.73662   0.00000  Uiso   1.00
H929   H     0.54024   0.67037   0.71173   0.00000  Uiso   1.00
C930   C     0.48508   0.67835   0.76369   0.00000  Uiso   1.00
H931   H     0.45819   0.99788   0.78863   0.00000  Uiso   1.00
N932   N     0.49218   0.72002   0.94336   0.00000  Uiso   1.00
O933   O     0.50459   0.70687   0.90140   0.00000  Uiso   1.00
O934   O     0.46599   0.69506   0.97089   0.00000  Uiso   1.00
Br935  Br    0.55389   0.70305   0.99297   0.00000  Uiso   1.00
Zn936  Zn    0.86005   0.80661   0.78734   0.00000  Uiso   1.00
Zn937  Zn    0.80046   0.79124   0.71875   0.00000  Uiso   1.00
Zn938  Zn    0.87723   0.86442   0.70657   0.00000  Uiso   1.00
Zn939  Zn    0.79560   0.87106   0.78733   0.00000  Uiso   1.00
O940   O     0.83333   0.83333   0.75000   0.00000  Uiso   1.00
O941   O     0.73738   0.85544   0.78213   0.00000  Uiso   1.00
O942   O     0.92158   0.81892   0.77013   0.00000  Uiso   1.00
O943   O     0.80426   0.73610   0.73413   0.00000  Uiso   1.00
O944   O     0.87012   0.92286   0.71360   0.00000  Uiso   1.00
O945   O     0.82118   0.79304   0.65458   0.00000  Uiso   1.00
O946   O     0.79607   0.87058   0.84968   0.00000  Uiso   1.00
O947   O     0.87491   0.84425   0.64606   0.00000  Uiso   1.00
O948   O     0.84118   0.82546   0.84968   0.00000  Uiso   1.00
O949   O     0.84597   0.74686   0.78213   0.00000  Uiso   1.00
O950   O     0.81298   0.92751   0.77013   0.00000  Uiso   1.00
O951   O     0.74078   0.79958   0.73413   0.00000  Uiso   1.00
O952   O     0.93360   0.85939   0.71360   0.00000  Uiso   1.00
C953   C     0.71939   0.82621   0.75997   0.00000  Uiso   1.00
C954   C     0.94740   0.84045   0.74005   0.00000  Uiso   1.00
C955   C     0.82276   0.72249   0.76014   0.00000  Uiso   1.00
C956   C     0.84322   0.94454   0.74020   0.00000  Uiso   1.00
C957   C     0.85173   0.81459   0.62943   0.00000  Uiso   1.00
C958   C     0.81502   0.85107   0.87095   0.00000  Uiso   1.00
C959   C     0.86356   0.75378   0.51884   0.00000  Uiso   1.00
H960   H     0.87967   0.74669   0.58009   0.00000  Uiso   1.00
C961   C     0.85750   0.80586   0.58152   0.00000  Uiso   1.00
C962   C     0.80419   0.90262   0.93649   0.00000  Uiso   1.00
C963   C     0.80827   0.91655   0.97930   0.00000  Uiso   1.00
C964   C     0.82000   0.89036   0.50518   0.00000  Uiso   1.00
C965   C     0.82582   0.84834   0.98953   0.00000  Uiso   1.00
C966   C     0.81919   0.83369   0.94672   0.00000  Uiso   1.00
C967   C     0.83875   0.82071   0.51454   0.00000  Uiso   1.00
C968   C     0.84511   0.77894   0.99623   0.00000  Uiso   1.00
C969   C     0.83188   0.76373   0.95680   0.00000  Uiso   1.00
C970   C     0.81943   0.79107   0.93279   0.00000  Uiso   1.00
C971   C     0.84462   0.83305   0.55781   0.00000  Uiso   1.00
C972   C     0.86830   0.76709   0.56168   0.00000  Uiso   1.00
C973   C     0.81092   0.86174   0.91920   0.00000  Uiso   1.00
H974   H     0.83658   0.86242   0.57546   0.00000  Uiso   1.00
H975   H     0.79764   0.92453   0.91613   0.00000  Uiso   1.00
H976   H     0.82450   0.90432   0.53705   0.00000  Uiso   1.00
H977   H     0.80387   0.94844   0.99198   0.00000  Uiso   1.00
H978   H     0.80767   0.77788   0.90396   0.00000  Uiso   1.00
C979   C     0.99324   0.84320   0.73611   0.00000  Uiso   1.00
H980   H     0.68220   0.86128   0.71061   0.00000  Uiso   1.00
C981   C     0.67412   0.82357   0.76373   0.00000  Uiso   1.00
H982   H     0.98586   0.80536   0.78950   0.00000  Uiso   1.00
C983   C     0.84710   0.98912   0.73662   0.00000  Uiso   1.00
H984   H     0.87358   0.67037   0.71173   0.00000  Uiso   1.00
C985   C     0.81841   0.67835   0.76369   0.00000  Uiso   1.00
H986   H     0.79153   0.99788   0.78863   0.00000  Uiso   1.00
N987   N     0.82551   0.72002   0.94336   0.00000  Uiso   1.00
O988   O     0.83792   0.70687   0.90140   0.00000  Uiso   1.00
O989   O     0.79933   0.69506   0.97089   0.00000  Uiso   1.00
Br990  Br    0.88722   0.70305   0.99297   0.00000  Uiso   1.00
loop_
_geom_bond_atom_site_label_1
_geom_bond_atom_site_label_2
_geom_bond_distance
_geom_bond_site_symmetry_2
_ccdc_geom_bond_type
Zn1    O5      1.959   .     S
Zn1    O13     1.930   .     S
Zn1    O14     1.926   .     S
Zn1    O7      1.926   .     S
Zn2    O16     1.929   .     S
Zn2    O5      1.935   .     S
Zn2    O10     1.937   .     S
Zn2    O8      1.939   .     S
Zn3    O17     1.935   .     S
Zn3    O9      1.930   .     S
Zn3    O12     1.933   .     S
Zn3    O5      1.942   .     S
Zn4    O11     1.942   .     S
Zn4    O15     1.934   .     S
Zn4    O6      1.929   .     S
Zn4    O5      1.934   .     S
O6     C18     1.268   .     A
O7     C19     1.281   .     A
O8     C20     1.275   .     A
O9     C21     1.273   .     A
O10    C22     1.268   .     A
O11    C23     1.282   .     A
O12    C22     1.278   .     A
O13    C23     1.284   .     A
O14    C20     1.275   .     A
O15    C21     1.274   .     A
O16    C18     1.268   .     A
O17    C19     1.284   .     A
C18    C46     1.437   .     S
C19    C44     1.454   .     S
C20    C50     1.436   .     S
C21    C48     1.451   .     S
C22    C26     1.450   .     S
C23    C38     1.474   .     S
C24    C37     1.390   .     A
C24    C528    1.422   1_554 S
C24    Br550   1.927   1_554 S
H25    C37     1.084   .     S
C26    C37     1.391   .     A
C26    C36     1.387   .     A
C27    H40     1.083   .     S
C27    C38     1.402   .     A
C27    C28     1.387   .     A
C28    H42     1.083   .     S
C28    C524    1.391   .     S
C29    H41     1.076   .     S
C29    C523    1.391   1_554 S
C29    C525    1.419   1_554 S
C30    C31     1.418   .     A
C30    C524    1.419   .     S
C30    C527    1.426   .     S
C31    C38     1.418   .     A
C31    C35     1.404   .     A
C32    C36     1.410   .     A
C32    C525    1.426   1_554 S
C32    C528    1.434   1_554 S
C33    C34     1.413   .     A
C33    C527    1.434   .     S
C33    C519    1.422   .     S
C34    N52     1.434   .     S
C34    C35     1.389   .     A
C35    H43     1.082   .     S
C36    H39     1.077   .     S
C44    H100    1.088   .     S
C44    C101    1.334   .     S
H45    C154    1.088   1_455 S
C46    C154    1.334   1_455 S
C46    H157    1.086   1_455 S
H47    C101    1.086   .     S
C48    H214    1.088   .     S
C48    C215    1.331   .     S
H49    C378    1.088   1_545 S
C50    C378    1.331   1_545 S
C50    H381    1.086   1_545 S
H51    C215    1.086   .     S
N52    O53     1.302   .     A
N52    O54     1.302   .     A
Br55   C519    1.927   .     S
Zn56   O60     1.959   .     S
Zn56   O68     1.930   .     S
Zn56   O69     1.926   .     S
Zn56   O62     1.926   .     S
Zn57   O71     1.929   .     S
Zn57   O60     1.935   .     S
Zn57   O65     1.937   .     S
Zn57   O63     1.939   .     S
Zn58   O72     1.935   .     S
Zn58   O64     1.930   .     S
Zn58   O67     1.933   .     S
Zn58   O60     1.942   .     S
Zn59   O66     1.942   .     S
Zn59   O70     1.934   .     S
Zn59   O61     1.929   .     S
Zn59   O60     1.934   .     S
O61    C73     1.268   .     A
O62    C74     1.281   .     A
O63    C75     1.275   .     A
O64    C76     1.273   .     A
O65    C77     1.268   .     A
O66    C78     1.282   .     A
O67    C77     1.278   .     A
O68    C78     1.284   .     A
O69    C75     1.275   .     A
O70    C76     1.274   .     A
O71    C73     1.268   .     A
O72    C74     1.284   .     A
C73    C101    1.437   .     S
C74    C99     1.454   .     S
C75    C105    1.436   .     S
C76    C103    1.451   .     S
C77    C81     1.450   .     S
C78    C93     1.474   .     S
C79    C92     1.390   .     A
C79    C583    1.422   1_554 S
C79    Br605   1.927   1_554 S
H80    C92     1.084   .     S
C81    C92     1.391   .     A
C81    C91     1.387   .     A
C82    H95     1.083   .     S
C82    C93     1.402   .     A
C82    C83     1.387   .     A
C83    H97     1.083   .     S
C83    C579    1.391   .     S
C84    H96     1.076   .     S
C84    C578    1.391   1_554 S
C84    C580    1.419   1_554 S
C85    C86     1.418   .     A
C85    C579    1.419   .     S
C85    C582    1.426   .     S
C86    C93     1.418   .     A
C86    C90     1.404   .     A
C87    C91     1.410   .     A
C87    C580    1.426   1_554 S
C87    C583    1.434   1_554 S
C88    C89     1.413   .     A
C88    C582    1.434   .     S
C88    C574    1.422   .     S
C89    N107    1.434   .     S
C89    C90     1.389   .     A
C90    H98     1.082   .     S
C91    H94     1.077   .     S
C99    H155    1.088   .     S
C99    C156    1.334   .     S
H102   C156    1.086   .     S
C103   H269    1.088   .     S
C103   C270    1.331   .     S
H104   C433    1.088   1_545 S
C105   C433    1.331   1_545 S
C105   H436    1.086   1_545 S
H106   C270    1.086   .     S
N107   O108    1.302   .     A
N107   O109    1.302   .     A
Br110  C574    1.927   .     S
Zn111  O115    1.959   .     S
Zn111  O123    1.930   .     S
Zn111  O124    1.926   .     S
Zn111  O117    1.926   .     S
Zn112  O126    1.929   .     S
Zn112  O115    1.935   .     S
Zn112  O120    1.937   .     S
Zn112  O118    1.939   .     S
Zn113  O127    1.935   .     S
Zn113  O119    1.930   .     S
Zn113  O122    1.933   .     S
Zn113  O115    1.942   .     S
Zn114  O121    1.942   .     S
Zn114  O125    1.934   .     S
Zn114  O116    1.929   .     S
Zn114  O115    1.934   .     S
O116   C128    1.268   .     A
O117   C129    1.281   .     A
O118   C130    1.275   .     A
O119   C131    1.273   .     A
O120   C132    1.268   .     A
O121   C133    1.282   .     A
O122   C132    1.278   .     A
O123   C133    1.284   .     A
O124   C130    1.275   .     A
O125   C131    1.274   .     A
O126   C128    1.268   .     A
O127   C129    1.284   .     A
C128   C156    1.437   .     S
C129   C154    1.454   .     S
C130   C160    1.436   .     S
C131   C158    1.451   .     S
C132   C136    1.450   .     S
C133   C148    1.474   .     S
C134   C147    1.390   .     A
C134   C638    1.422   1_554 S
C134   Br660   1.927   1_554 S
H135   C147    1.084   .     S
C136   C147    1.391   .     A
C136   C146    1.387   .     A
C137   H150    1.083   .     S
C137   C148    1.402   .     A
C137   C138    1.387   .     A
C138   H152    1.083   .     S
C138   C634    1.391   .     S
C139   H151    1.076   .     S
C139   C633    1.391   1_554 S
C139   C635    1.419   1_554 S
C140   C141    1.418   .     A
C140   C634    1.419   .     S
C140   C637    1.426   .     S
C141   C148    1.418   .     A
C141   C145    1.404   .     A
C142   C146    1.410   .     A
C142   C635    1.426   1_554 S
C142   C638    1.434   1_554 S
C143   C144    1.413   .     A
C143   C637    1.434   .     S
C143   C629    1.422   .     S
C144   N162    1.434   .     S
C144   C145    1.389   .     A
C145   H153    1.082   .     S
C146   H149    1.077   .     S
C154   H45     1.088   1_655 S
C154   C46     1.334   1_655 S
H157   C46     1.086   1_655 S
C158   H324    1.088   .     S
C158   C325    1.331   .     S
H159   C488    1.088   1_545 S
C160   C488    1.331   1_545 S
C160   H491    1.086   1_545 S
H161   C325    1.086   .     S
N162   O163    1.302   .     A
N162   O164    1.302   .     A
Br165  C629    1.927   .     S
Zn166  O170    1.959   .     S
Zn166  O178    1.930   .     S
Zn166  O179    1.926   .     S
Zn166  O172    1.926   .     S
Zn167  O181    1.929   .     S
Zn167  O170    1.935   .     S
Zn167  O175    1.937   .     S
Zn167  O173    1.939   .     S
Zn168  O182    1.935   .     S
Zn168  O174    1.930   .     S
Zn168  O177    1.933   .     S
Zn168  O170    1.942   .     S
Zn169  O176    1.942   .     S
Zn169  O180    1.934   .     S
Zn169  O171    1.929   .     S
Zn169  O170    1.934   .     S
O171   C183    1.268   .     A
O172   C184    1.281   .     A
O173   C185    1.275   .     A
O174   C186    1.273   .     A
O175   C187    1.268   .     A
O176   C188    1.282   .     A
O177   C187    1.278   .     A
O178   C188    1.284   .     A
O179   C185    1.275   .     A
O180   C186    1.274   .     A
O181   C183    1.268   .     A
O182   C184    1.284   .     A
C183   C211    1.437   .     S
C184   C209    1.454   .     S
C185   C215    1.436   .     S
C186   C213    1.451   .     S
C187   C191    1.450   .     S
C188   C203    1.474   .     S
C189   C202    1.390   .     A
C189   C693    1.422   1_554 S
C189   Br715   1.927   1_554 S
H190   C202    1.084   .     S
C191   C202    1.391   .     A
C191   C201    1.387   .     A
C192   H205    1.083   .     S
C192   C203    1.402   .     A
C192   C193    1.387   .     A
C193   H207    1.083   .     S
C193   C689    1.391   .     S
C194   H206    1.076   .     S
C194   C688    1.391   1_554 S
C194   C690    1.419   1_554 S
C195   C196    1.418   .     A
C195   C689    1.419   .     S
C195   C692    1.426   .     S
C196   C203    1.418   .     A
C196   C200    1.404   .     A
C197   C201    1.410   .     A
C197   C690    1.426   1_554 S
C197   C693    1.434   1_554 S
C198   C199    1.413   .     A
C198   C692    1.434   .     S
C198   C684    1.422   .     S
C199   N217    1.434   .     S
C199   C200    1.389   .     A
C200   H208    1.082   .     S
C201   H204    1.077   .     S
C209   H265    1.088   .     S
C209   C266    1.334   .     S
H210   C319    1.088   1_455 S
C211   C319    1.334   1_455 S
C211   H322    1.086   1_455 S
H212   C266    1.086   .     S
C213   H379    1.088   .     S
C213   C380    1.331   .     S
H216   C380    1.086   .     S
N217   O218    1.302   .     A
N217   O219    1.302   .     A
Br220  C684    1.927   .     S
Zn221  O225    1.959   .     S
Zn221  O233    1.930   .     S
Zn221  O234    1.926   .     S
Zn221  O227    1.926   .     S
Zn222  O236    1.929   .     S
Zn222  O225    1.935   .     S
Zn222  O230    1.937   .     S
Zn222  O228    1.939   .     S
Zn223  O237    1.935   .     S
Zn223  O229    1.930   .     S
Zn223  O232    1.933   .     S
Zn223  O225    1.942   .     S
Zn224  O231    1.942   .     S
Zn224  O235    1.934   .     S
Zn224  O226    1.929   .     S
Zn224  O225    1.934   .     S
O226   C238    1.268   .     A
O227   C239    1.281   .     A
O228   C240    1.275   .     A
O229   C241    1.273   .     A
O230   C242    1.268   .     A
O231   C243    1.282   .     A
O232   C242    1.278   .     A
O233   C243    1.284   .     A
O234   C240    1.275   .     A
O235   C241    1.274   .     A
O236   C238    1.268   .     A
O237   C239    1.284   .     A
C238   C266    1.437   .     S
C239   C264    1.454   .     S
C240   C270    1.436   .     S
C241   C268    1.451   .     S
C242   C246    1.450   .     S
C243   C258    1.474   .     S
C244   C257    1.390   .     A
C244   C748    1.422   1_554 S
C244   Br770   1.927   1_554 S
H245   C257    1.084   .     S
C246   C257    1.391   .     A
C246   C256    1.387   .     A
C247   H260    1.083   .     S
C247   C258    1.402   .     A
C247   C248    1.387   .     A
C248   H262    1.083   .     S
C248   C744    1.391   .     S
C249   H261    1.076   .     S
C249   C743    1.391   1_554 S
C249   C745    1.419   1_554 S
C250   C251    1.418   .     A
C250   C744    1.419   .     S
C250   C747    1.426   .     S
C251   C258    1.418   .     A
C251   C255    1.404   .     A
C252   C256    1.410   .     A
C252   C745    1.426   1_554 S
C252   C748    1.434   1_554 S
C253   C254    1.413   .     A
C253   C747    1.434   .     S
C253   C739    1.422   .     S
C254   N272    1.434   .     S
C254   C255    1.389   .     A
C255   H263    1.082   .     S
C256   H259    1.077   .     S
C264   H320    1.088   .     S
C264   C321    1.334   .     S
H267   C321    1.086   .     S
C268   H434    1.088   .     S
C268   C435    1.331   .     S
H271   C435    1.086   .     S
N272   O273    1.302   .     A
N272   O274    1.302   .     A
Br275  C739    1.927   .     S
Zn276  O280    1.959   .     S
Zn276  O288    1.930   .     S
Zn276  O289    1.926   .     S
Zn276  O282    1.926   .     S
Zn277  O291    1.929   .     S
Zn277  O280    1.935   .     S
Zn277  O285    1.937   .     S
Zn277  O283    1.939   .     S
Zn278  O292    1.935   .     S
Zn278  O284    1.930   .     S
Zn278  O287    1.933   .     S
Zn278  O280    1.942   .     S
Zn279  O286    1.942   .     S
Zn279  O290    1.934   .     S
Zn279  O281    1.929   .     S
Zn279  O280    1.934   .     S
O281   C293    1.268   .     A
O282   C294    1.281   .     A
O283   C295    1.275   .     A
O284   C296    1.273   .     A
O285   C297    1.268   .     A
O286   C298    1.282   .     A
O287   C297    1.278   .     A
O288   C298    1.284   .     A
O289   C295    1.275   .     A
O290   C296    1.274   .     A
O291   C293    1.268   .     A
O292   C294    1.284   .     A
C293   C321    1.437   .     S
C294   C319    1.454   .     S
C295   C325    1.436   .     S
C296   C323    1.451   .     S
C297   C301    1.450   .     S
C298   C313    1.474   .     S
C299   C312    1.390   .     A
C299   C803    1.422   1_554 S
C299   Br825   1.927   1_554 S
H300   C312    1.084   .     S
C301   C312    1.391   .     A
C301   C311    1.387   .     A
C302   H315    1.083   .     S
C302   C313    1.402   .     A
C302   C303    1.387   .     A
C303   H317    1.083   .     S
C303   C799    1.391   .     S
C304   H316    1.076   .     S
C304   C798    1.391   1_554 S
C304   C800    1.419   1_554 S
C305   C306    1.418   .     A
C305   C799    1.419   .     S
C305   C802    1.426   .     S
C306   C313    1.418   .     A
C306   C310    1.404   .     A
C307   C311    1.410   .     A
C307   C800    1.426   1_554 S
C307   C803    1.434   1_554 S
C308   C309    1.413   .     A
C308   C802    1.434   .     S
C308   C794    1.422   .     S
C309   N327    1.434   .     S
C309   C310    1.389   .     A
C310   H318    1.082   .     S
C311   H314    1.077   .     S
C319   H210    1.088   1_655 S
C319   C211    1.334   1_655 S
H322   C211    1.086   1_655 S
C323   H489    1.088   .     S
C323   C490    1.331   .     S
H326   C490    1.086   .     S
N327   O328    1.302   .     A
N327   O329    1.302   .     A
Br330  C794    1.927   .     S
Zn331  O335    1.959   .     S
Zn331  O343    1.930   .     S
Zn331  O344    1.926   .     S
Zn331  O337    1.926   .     S
Zn332  O346    1.929   .     S
Zn332  O335    1.935   .     S
Zn332  O340    1.937   .     S
Zn332  O338    1.939   .     S
Zn333  O347    1.935   .     S
Zn333  O339    1.930   .     S
Zn333  O342    1.933   .     S
Zn333  O335    1.942   .     S
Zn334  O341    1.942   .     S
Zn334  O345    1.934   .     S
Zn334  O336    1.929   .     S
Zn334  O335    1.934   .     S
O336   C348    1.268   .     A
O337   C349    1.281   .     A
O338   C350    1.275   .     A
O339   C351    1.273   .     A
O340   C352    1.268   .     A
O341   C353    1.282   .     A
O342   C352    1.278   .     A
O343   C353    1.284   .     A
O344   C350    1.275   .     A
O345   C351    1.274   .     A
O346   C348    1.268   .     A
O347   C349    1.284   .     A
C348   C376    1.437   .     S
C349   C374    1.454   .     S
C350   C380    1.436   .     S
C351   C378    1.451   .     S
C352   C356    1.450   .     S
C353   C368    1.474   .     S
C354   C367    1.390   .     A
C354   C858    1.422   1_554 S
C354   Br880   1.927   1_554 S
H355   C367    1.084   .     S
C356   C367    1.391   .     A
C356   C366    1.387   .     A
C357   H370    1.083   .     S
C357   C368    1.402   .     A
C357   C358    1.387   .     A
C358   H372    1.083   .     S
C358   C854    1.391   .     S
C359   H371    1.076   .     S
C359   C853    1.391   1_554 S
C359   C855    1.419   1_554 S
C360   C361    1.418   .     A
C360   C854    1.419   .     S
C360   C857    1.426   .     S
C361   C368    1.418   .     A
C361   C365    1.404   .     A
C362   C366    1.410   .     A
C362   C855    1.426   1_554 S
C362   C858    1.434   1_554 S
C363   C364    1.413   .     A
C363   C857    1.434   .     S
C363   C849    1.422   .     S
C364   N382    1.434   .     S
C364   C365    1.389   .     A
C365   H373    1.082   .     S
C366   H369    1.077   .     S
C374   H430    1.088   .     S
C374   C431    1.334   .     S
H375   C484    1.088   1_455 S
C376   C484    1.334   1_455 S
C376   H487    1.086   1_455 S
H377   C431    1.086   .     S
C378   H49     1.088   1_565 S
C378   C50     1.331   1_565 S
H381   C50     1.086   1_565 S
N382   O383    1.302   .     A
N382   O384    1.302   .     A
Br385  C849    1.927   .     S
Zn386  O390    1.959   .     S
Zn386  O398    1.930   .     S
Zn386  O399    1.926   .     S
Zn386  O392    1.926   .     S
Zn387  O401    1.929   .     S
Zn387  O390    1.935   .     S
Zn387  O395    1.937   .     S
Zn387  O393    1.939   .     S
Zn388  O402    1.935   .     S
Zn388  O394    1.930   .     S
Zn388  O397    1.933   .     S
Zn388  O390    1.942   .     S
Zn389  O396    1.942   .     S
Zn389  O400    1.934   .     S
Zn389  O391    1.929   .     S
Zn389  O390    1.934   .     S
O391   C403    1.268   .     A
O392   C404    1.281   .     A
O393   C405    1.275   .     A
O394   C406    1.273   .     A
O395   C407    1.268   .     A
O396   C408    1.282   .     A
O397   C407    1.278   .     A
O398   C408    1.284   .     A
O399   C405    1.275   .     A
O400   C406    1.274   .     A
O401   C403    1.268   .     A
O402   C404    1.284   .     A
C403   C431    1.437   .     S
C404   C429    1.454   .     S
C405   C435    1.436   .     S
C406   C433    1.451   .     S
C407   C411    1.450   .     S
C408   C423    1.474   .     S
C409   C422    1.390   .     A
C409   C913    1.422   1_554 S
C409   Br935   1.927   1_554 S
H410   C422    1.084   .     S
C411   C422    1.391   .     A
C411   C421    1.387   .     A
C412   H425    1.083   .     S
C412   C423    1.402   .     A
C412   C413    1.387   .     A
C413   H427    1.083   .     S
C413   C909    1.391   .     S
C414   H426    1.076   .     S
C414   C908    1.391   1_554 S
C414   C910    1.419   1_554 S
C415   C416    1.418   .     A
C415   C909    1.419   .     S
C415   C912    1.426   .     S
C416   C423    1.418   .     A
C416   C420    1.404   .     A
C417   C421    1.410   .     A
C417   C910    1.426   1_554 S
C417   C913    1.434   1_554 S
C418   C419    1.413   .     A
C418   C912    1.434   .     S
C418   C904    1.422   .     S
C419   N437    1.434   .     S
C419   C420    1.389   .     A
C420   H428    1.082   .     S
C421   H424    1.077   .     S
C429   H485    1.088   .     S
C429   C486    1.334   .     S
H432   C486    1.086   .     S
C433   H104    1.088   1_565 S
C433   C105    1.331   1_565 S
H436   C105    1.086   1_565 S
N437   O438    1.302   .     A
N437   O439    1.302   .     A
Br440  C904    1.927   .     S
Zn441  O445    1.959   .     S
Zn441  O453    1.930   .     S
Zn441  O454    1.926   .     S
Zn441  O447    1.926   .     S
Zn442  O456    1.929   .     S
Zn442  O445    1.935   .     S
Zn442  O450    1.937   .     S
Zn442  O448    1.939   .     S
Zn443  O457    1.935   .     S
Zn443  O449    1.930   .     S
Zn443  O452    1.933   .     S
Zn443  O445    1.942   .     S
Zn444  O451    1.942   .     S
Zn444  O455    1.934   .     S
Zn444  O446    1.929   .     S
Zn444  O445    1.934   .     S
O446   C458    1.268   .     A
O447   C459    1.281   .     A
O448   C460    1.275   .     A
O449   C461    1.273   .     A
O450   C462    1.268   .     A
O451   C463    1.282   .     A
O452   C462    1.278   .     A
O453   C463    1.284   .     A
O454   C460    1.275   .     A
O455   C461    1.274   .     A
O456   C458    1.268   .     A
O457   C459    1.284   .     A
C458   C486    1.437   .     S
C459   C484    1.454   .     S
C460   C490    1.436   .     S
C461   C488    1.451   .     S
C462   C466    1.450   .     S
C463   C478    1.474   .     S
C464   C477    1.390   .     A
C464   C968    1.422   1_554 S
C464   Br990   1.927   1_554 S
H465   C477    1.084   .     S
C466   C477    1.391   .     A
C466   C476    1.387   .     A
C467   H480    1.083   .     S
C467   C478    1.402   .     A
C467   C468    1.387   .     A
C468   H482    1.083   .     S
C468   C964    1.391   .     S
C469   H481    1.076   .     S
C469   C963    1.391   1_554 S
C469   C965    1.419   1_554 S
C470   C471    1.418   .     A
C470   C964    1.419   .     S
C470   C967    1.426   .     S
C471   C478    1.418   .     A
C471   C475    1.404   .     A
C472   C476    1.410   .     A
C472   C965    1.426   1_554 S
C472   C968    1.434   1_554 S
C473   C474    1.413   .     A
C473   C967    1.434   .     S
C473   C959    1.422   .     S
C474   N492    1.434   .     S
C474   C475    1.389   .     A
C475   H483    1.082   .     S
C476   H479    1.077   .     S
C484   H375    1.088   1_655 S
C484   C376    1.334   1_655 S
H487   C376    1.086   1_655 S
C488   H159    1.088   1_565 S
C488   C160    1.331   1_565 S
H491   C160    1.086   1_565 S
N492   O493    1.302   .     A
N492   O494    1.302   .     A
Br495  C959    1.927   .     S
Zn496  O500    1.959   .     S
Zn496  O508    1.930   .     S
Zn496  O509    1.926   .     S
Zn496  O502    1.926   .     S
Zn497  O511    1.929   .     S
Zn497  O500    1.935   .     S
Zn497  O505    1.937   .     S
Zn497  O503    1.939   .     S
Zn498  O512    1.935   .     S
Zn498  O504    1.930   .     S
Zn498  O507    1.933   .     S
Zn498  O500    1.942   .     S
Zn499  O506    1.942   .     S
Zn499  O510    1.934   .     S
Zn499  O501    1.929   .     S
Zn499  O500    1.934   .     S
O501   C513    1.268   .     A
O502   C514    1.281   .     A
O503   C515    1.275   .     A
O504   C516    1.273   .     A
O505   C517    1.268   .     A
O506   C518    1.282   .     A
O507   C517    1.278   .     A
O508   C518    1.284   .     A
O509   C515    1.275   .     A
O510   C516    1.274   .     A
O511   C513    1.268   .     A
O512   C514    1.284   .     A
C513   C541    1.437   .     S
C514   C539    1.454   .     S
C515   C545    1.436   .     S
C516   C543    1.451   .     S
C517   C521    1.450   .     S
C518   C533    1.474   .     S
C519   C532    1.390   .     A
H520   C532    1.084   .     S
C521   C532    1.391   .     A
C521   C531    1.387   .     A
C522   H535    1.083   .     S
C522   C533    1.402   .     A
C522   C523    1.387   .     A
C523   H537    1.083   .     S
C523   C29     1.391   1_556 S
C524   H536    1.076   .     S
C525   C526    1.418   .     A
C525   C29     1.419   1_556 S
C525   C32     1.426   1_556 S
C526   C533    1.418   .     A
C526   C530    1.404   .     A
C527   C531    1.410   .     A
C528   C529    1.413   .     A
C528   C32     1.434   1_556 S
C528   C24     1.422   1_556 S
C529   N547    1.434   .     S
C529   C530    1.389   .     A
C530   H538    1.082   .     S
C531   H534    1.077   .     S
C539   H595    1.088   .     S
C539   C596    1.334   .     S
H540   C649    1.088   1_455 S
C541   C649    1.334   1_455 S
C541   H652    1.086   1_455 S
H542   C596    1.086   .     S
C543   H709    1.088   .     S
C543   C710    1.331   .     S
H544   C873    1.088   1_545 S
C545   C873    1.331   1_545 S
C545   H876    1.086   1_545 S
H546   C710    1.086   .     S
N547   O548    1.302   .     A
N547   O549    1.302   .     A
Br550  C24     1.927   1_556 S
Zn551  O555    1.959   .     S
Zn551  O563    1.930   .     S
Zn551  O564    1.926   .     S
Zn551  O557    1.926   .     S
Zn552  O566    1.929   .     S
Zn552  O555    1.935   .     S
Zn552  O560    1.937   .     S
Zn552  O558    1.939   .     S
Zn553  O567    1.935   .     S
Zn553  O559    1.930   .     S
Zn553  O562    1.933   .     S
Zn553  O555    1.942   .     S
Zn554  O561    1.942   .     S
Zn554  O565    1.934   .     S
Zn554  O556    1.929   .     S
Zn554  O555    1.934   .     S
O556   C568    1.268   .     A
O557   C569    1.281   .     A
O558   C570    1.275   .     A
O559   C571    1.273   .     A
O560   C572    1.268   .     A
O561   C573    1.282   .     A
O562   C572    1.278   .     A
O563   C573    1.284   .     A
O564   C570    1.275   .     A
O565   C571    1.274   .     A
O566   C568    1.268   .     A
O567   C569    1.284   .     A
C568   C596    1.437   .     S
C569   C594    1.454   .     S
C570   C600    1.436   .     S
C571   C598    1.451   .     S
C572   C576    1.450   .     S
C573   C588    1.474   .     S
C574   C587    1.390   .     A
H575   C587    1.084   .     S
C576   C587    1.391   .     A
C576   C586    1.387   .     A
C577   H590    1.083   .     S
C577   C588    1.402   .     A
C577   C578    1.387   .     A
C578   H592    1.083   .     S
C578   C84     1.391   1_556 S
C579   H591    1.076   .     S
C580   C581    1.418   .     A
C580   C84     1.419   1_556 S
C580   C87     1.426   1_556 S
C581   C588    1.418   .     A
C581   C585    1.404   .     A
C582   C586    1.410   .     A
C583   C584    1.413   .     A
C583   C87     1.434   1_556 S
C583   C79     1.422   1_556 S
C584   N602    1.434   .     S
C584   C585    1.389   .     A
C585   H593    1.082   .     S
C586   H589    1.077   .     S
C594   H650    1.088   .     S
C594   C651    1.334   .     S
H597   C651    1.086   .     S
C598   H764    1.088   .     S
C598   C765    1.331   .     S
H599   C928    1.088   1_545 S
C600   C928    1.331   1_545 S
C600   H931    1.086   1_545 S
H601   C765    1.086   .     S
N602   O603    1.302   .     A
N602   O604    1.302   .     A
Br605  C79     1.927   1_556 S
Zn606  O610    1.959   .     S
Zn606  O618    1.930   .     S
Zn606  O619    1.926   .     S
Zn606  O612    1.926   .     S
Zn607  O621    1.929   .     S
Zn607  O610    1.935   .     S
Zn607  O615    1.937   .     S
Zn607  O613    1.939   .     S
Zn608  O622    1.935   .     S
Zn608  O614    1.930   .     S
Zn608  O617    1.933   .     S
Zn608  O610    1.942   .     S
Zn609  O616    1.942   .     S
Zn609  O620    1.934   .     S
Zn609  O611    1.929   .     S
Zn609  O610    1.934   .     S
O611   C623    1.268   .     A
O612   C624    1.281   .     A
O613   C625    1.275   .     A
O614   C626    1.273   .     A
O615   C627    1.268   .     A
O616   C628    1.282   .     A
O617   C627    1.278   .     A
O618   C628    1.284   .     A
O619   C625    1.275   .     A
O620   C626    1.274   .     A
O621   C623    1.268   .     A
O622   C624    1.284   .     A
C623   C651    1.437   .     S
C624   C649    1.454   .     S
C625   C655    1.436   .     S
C626   C653    1.451   .     S
C627   C631    1.450   .     S
C628   C643    1.474   .     S
C629   C642    1.390   .     A
H630   C642    1.084   .     S
C631   C642    1.391   .     A
C631   C641    1.387   .     A
C632   H645    1.083   .     S
C632   C643    1.402   .     A
C632   C633    1.387   .     A
C633   H647    1.083   .     S
C633   C139    1.391   1_556 S
C634   H646    1.076   .     S
C635   C636    1.418   .     A
C635   C139    1.419   1_556 S
C635   C142    1.426   1_556 S
C636   C643    1.418   .     A
C636   C640    1.404   .     A
C637   C641    1.410   .     A
C638   C639    1.413   .     A
C638   C142    1.434   1_556 S
C638   C134    1.422   1_556 S
C639   N657    1.434   .     S
C639   C640    1.389   .     A
C640   H648    1.082   .     S
C641   H644    1.077   .     S
C649   H540    1.088   1_655 S
C649   C541    1.334   1_655 S
H652   C541    1.086   1_655 S
C653   H819    1.088   .     S
C653   C820    1.331   .     S
H654   C983    1.088   1_545 S
C655   C983    1.331   1_545 S
C655   H986    1.086   1_545 S
H656   C820    1.086   .     S
N657   O658    1.302   .     A
N657   O659    1.302   .     A
Br660  C134    1.927   1_556 S
Zn661  O665    1.959   .     S
Zn661  O673    1.930   .     S
Zn661  O674    1.926   .     S
Zn661  O667    1.926   .     S
Zn662  O676    1.929   .     S
Zn662  O665    1.935   .     S
Zn662  O670    1.937   .     S
Zn662  O668    1.939   .     S
Zn663  O677    1.935   .     S
Zn663  O669    1.930   .     S
Zn663  O672    1.933   .     S
Zn663  O665    1.942   .     S
Zn664  O671    1.942   .     S
Zn664  O675    1.934   .     S
Zn664  O666    1.929   .     S
Zn664  O665    1.934   .     S
O666   C678    1.268   .     A
O667   C679    1.281   .     A
O668   C680    1.275   .     A
O669   C681    1.273   .     A
O670   C682    1.268   .     A
O671   C683    1.282   .     A
O672   C682    1.278   .     A
O673   C683    1.284   .     A
O674   C680    1.275   .     A
O675   C681    1.274   .     A
O676   C678    1.268   .     A
O677   C679    1.284   .     A
C678   C706    1.437   .     S
C679   C704    1.454   .     S
C680   C710    1.436   .     S
C681   C708    1.451   .     S
C682   C686    1.450   .     S
C683   C698    1.474   .     S
C684   C697    1.390   .     A
H685   C697    1.084   .     S
C686   C697    1.391   .     A
C686   C696    1.387   .     A
C687   H700    1.083   .     S
C687   C698    1.402   .     A
C687   C688    1.387   .     A
C688   H702    1.083   .     S
C688   C194    1.391   1_556 S
C689   H701    1.076   .     S
C690   C691    1.418   .     A
C690   C194    1.419   1_556 S
C690   C197    1.426   1_556 S
C691   C698    1.418   .     A
C691   C695    1.404   .     A
C692   C696    1.410   .     A
C693   C694    1.413   .     A
C693   C197    1.434   1_556 S
C693   C189    1.422   1_556 S
C694   N712    1.434   .     S
C694   C695    1.389   .     A
C695   H703    1.082   .     S
C696   H699    1.077   .     S
C704   H760    1.088   .     S
C704   C761    1.334   .     S
H705   C814    1.088   1_455 S
C706   C814    1.334   1_455 S
C706   H817    1.086   1_455 S
H707   C761    1.086   .     S
C708   H874    1.088   .     S
C708   C875    1.331   .     S
H711   C875    1.086   .     S
N712   O713    1.302   .     A
N712   O714    1.302   .     A
Br715  C189    1.927   1_556 S
Zn716  O720    1.959   .     S
Zn716  O728    1.930   .     S
Zn716  O729    1.926   .     S
Zn716  O722    1.926   .     S
Zn717  O731    1.929   .     S
Zn717  O720    1.935   .     S
Zn717  O725    1.937   .     S
Zn717  O723    1.939   .     S
Zn718  O732    1.935   .     S
Zn718  O724    1.930   .     S
Zn718  O727    1.933   .     S
Zn718  O720    1.942   .     S
Zn719  O726    1.942   .     S
Zn719  O730    1.934   .     S
Zn719  O721    1.929   .     S
Zn719  O720    1.934   .     S
O721   C733    1.268   .     A
O722   C734    1.281   .     A
O723   C735    1.275   .     A
O724   C736    1.273   .     A
O725   C737    1.268   .     A
O726   C738    1.282   .     A
O727   C737    1.278   .     A
O728   C738    1.284   .     A
O729   C735    1.275   .     A
O730   C736    1.274   .     A
O731   C733    1.268   .     A
O732   C734    1.284   .     A
C733   C761    1.437   .     S
C734   C759    1.454   .     S
C735   C765    1.436   .     S
C736   C763    1.451   .     S
C737   C741    1.450   .     S
C738   C753    1.474   .     S
C739   C752    1.390   .     A
H740   C752    1.084   .     S
C741   C752    1.391   .     A
C741   C751    1.387   .     A
C742   H755    1.083   .     S
C742   C753    1.402   .     A
C742   C743    1.387   .     A
C743   H757    1.083   .     S
C743   C249    1.391   1_556 S
C744   H756    1.076   .     S
C745   C746    1.418   .     A
C745   C249    1.419   1_556 S
C745   C252    1.426   1_556 S
C746   C753    1.418   .     A
C746   C750    1.404   .     A
C747   C751    1.410   .     A
C748   C749    1.413   .     A
C748   C252    1.434   1_556 S
C748   C244    1.422   1_556 S
C749   N767    1.434   .     S
C749   C750    1.389   .     A
C750   H758    1.082   .     S
C751   H754    1.077   .     S
C759   H815    1.088   .     S
C759   C816    1.334   .     S
H762   C816    1.086   .     S
C763   H929    1.088   .     S
C763   C930    1.331   .     S
H766   C930    1.086   .     S
N767   O768    1.302   .     A
N767   O769    1.302   .     A
Br770  C244    1.927   1_556 S
Zn771  O775    1.959   .     S
Zn771  O783    1.930   .     S
Zn771  O784    1.926   .     S
Zn771  O777    1.926   .     S
Zn772  O786    1.929   .     S
Zn772  O775    1.935   .     S
Zn772  O780    1.937   .     S
Zn772  O778    1.939   .     S
Zn773  O787    1.935   .     S
Zn773  O779    1.930   .     S
Zn773  O782    1.933   .     S
Zn773  O775    1.942   .     S
Zn774  O781    1.942   .     S
Zn774  O785    1.934   .     S
Zn774  O776    1.929   .     S
Zn774  O775    1.934   .     S
O776   C788    1.268   .     A
O777   C789    1.281   .     A
O778   C790    1.275   .     A
O779   C791    1.273   .     A
O780   C792    1.268   .     A
O781   C793    1.282   .     A
O782   C792    1.278   .     A
O783   C793    1.284   .     A
O784   C790    1.275   .     A
O785   C791    1.274   .     A
O786   C788    1.268   .     A
O787   C789    1.284   .     A
C788   C816    1.437   .     S
C789   C814    1.454   .     S
C790   C820    1.436   .     S
C791   C818    1.451   .     S
C792   C796    1.450   .     S
C793   C808    1.474   .     S
C794   C807    1.390   .     A
H795   C807    1.084   .     S
C796   C807    1.391   .     A
C796   C806    1.387   .     A
C797   H810    1.083   .     S
C797   C808    1.402   .     A
C797   C798    1.387   .     A
C798   H812    1.083   .     S
C798   C304    1.391   1_556 S
C799   H811    1.076   .     S
C800   C801    1.418   .     A
C800   C304    1.419   1_556 S
C800   C307    1.426   1_556 S
C801   C808    1.418   .     A
C801   C805    1.404   .     A
C802   C806    1.410   .     A
C803   C804    1.413   .     A
C803   C307    1.434   1_556 S
C803   C299    1.422   1_556 S
C804   N822    1.434   .     S
C804   C805    1.389   .     A
C805   H813    1.082   .     S
C806   H809    1.077   .     S
C814   H705    1.088   1_655 S
C814   C706    1.334   1_655 S
H817   C706    1.086   1_655 S
C818   H984    1.088   .     S
C818   C985    1.331   .     S
H821   C985    1.086   .     S
N822   O823    1.302   .     A
N822   O824    1.302   .     A
Br825  C299    1.927   1_556 S
Zn826  O830    1.959   .     S
Zn826  O838    1.930   .     S
Zn826  O839    1.926   .     S
Zn826  O832    1.926   .     S
Zn827  O841    1.929   .     S
Zn827  O830    1.935   .     S
Zn827  O835    1.937   .     S
Zn827  O833    1.939   .     S
Zn828  O842    1.935   .     S
Zn828  O834    1.930   .     S
Zn828  O837    1.933   .     S
Zn828  O830    1.942   .     S
Zn829  O836    1.942   .     S
Zn829  O840    1.934   .     S
Zn829  O831    1.929   .     S
Zn829  O830    1.934   .     S
O831   C843    1.268   .     A
O832   C844    1.281   .     A
O833   C845    1.275   .     A
O834   C846    1.273   .     A
O835   C847    1.268   .     A
O836   C848    1.282   .     A
O837   C847    1.278   .     A
O838   C848    1.284   .     A
O839   C845    1.275   .     A
O840   C846    1.274   .     A
O841   C843    1.268   .     A
O842   C844    1.284   .     A
C843   C871    1.437   .     S
C844   C869    1.454   .     S
C845   C875    1.436   .     S
C846   C873    1.451   .     S
C847   C851    1.450   .     S
C848   C863    1.474   .     S
C849   C862    1.390   .     A
H850   C862    1.084   .     S
C851   C862    1.391   .     A
C851   C861    1.387   .     A
C852   H865    1.083   .     S
C852   C863    1.402   .     A
C852   C853    1.387   .     A
C853   H867    1.083   .     S
C853   C359    1.391   1_556 S
C854   H866    1.076   .     S
C855   C856    1.418   .     A
C855   C359    1.419   1_556 S
C855   C362    1.426   1_556 S
C856   C863    1.418   .     A
C856   C860    1.404   .     A
C857   C861    1.410   .     A
C858   C859    1.413   .     A
C858   C362    1.434   1_556 S
C858   C354    1.422   1_556 S
C859   N877    1.434   .     S
C859   C860    1.389   .     A
C860   H868    1.082   .     S
C861   H864    1.077   .     S
C869   H925    1.088   .     S
C869   C926    1.334   .     S
H870   C979    1.088   1_455 S
C871   C979    1.334   1_455 S
C871   H982    1.086   1_455 S
H872   C926    1.086   .     S
C873   H544    1.088   1_565 S
C873   C545    1.331   1_565 S
H876   C545    1.086   1_565 S
N877   O878    1.302   .     A
N877   O879    1.302   .     A
Br880  C354    1.927   1_556 S
Zn881  O885    1.959   .     S
Zn881  O893    1.930   .     S
Zn881  O894    1.926   .     S
Zn881  O887    1.926   .     S
Zn882  O896    1.929   .     S
Zn882  O885    1.935   .     S
Zn882  O890    1.937   .     S
Zn882  O888    1.939   .     S
Zn883  O897    1.935   .     S
Zn883  O889    1.930   .     S
Zn883  O892    1.933   .     S
Zn883  O885    1.942   .     S
Zn884  O891    1.942   .     S
Zn884  O895    1.934   .     S
Zn884  O886    1.929   .     S
Zn884  O885    1.934   .     S
O886   C898    1.268   .     A
O887   C899    1.281   .     A
O888   C900    1.275   .     A
O889   C901    1.273   .     A
O890   C902    1.268   .     A
O891   C903    1.282   .     A
O892   C902    1.278   .     A
O893   C903    1.284   .     A
O894   C900    1.275   .     A
O895   C901    1.274   .     A
O896   C898    1.268   .     A
O897   C899    1.284   .     A
C898   C926    1.437   .     S
C899   C924    1.454   .     S
C900   C930    1.436   .     S
C901   C928    1.451   .     S
C902   C906    1.450   .     S
C903   C918    1.474   .     S
C904   C917    1.390   .     A
H905   C917    1.084   .     S
C906   C917    1.391   .     A
C906   C916    1.387   .     A
C907   H920    1.083   .     S
C907   C918    1.402   .     A
C907   C908    1.387   .     A
C908   H922    1.083   .     S
C908   C414    1.391   1_556 S
C909   H921    1.076   .     S
C910   C911    1.418   .     A
C910   C414    1.419   1_556 S
C910   C417    1.426   1_556 S
C911   C918    1.418   .     A
C911   C915    1.404   .     A
C912   C916    1.410   .     A
C913   C914    1.413   .     A
C913   C417    1.434   1_556 S
C913   C409    1.422   1_556 S
C914   N932    1.434   .     S
C914   C915    1.389   .     A
C915   H923    1.082   .     S
C916   H919    1.077   .     S
C924   H980    1.088   .     S
C924   C981    1.334   .     S
H927   C981    1.086   .     S
C928   H599    1.088   1_565 S
C928   C600    1.331   1_565 S
H931   C600    1.086   1_565 S
N932   O933    1.302   .     A
N932   O934    1.302   .     A
Br935  C409    1.927   1_556 S
Zn936  O940    1.959   .     S
Zn936  O948    1.930   .     S
Zn936  O949    1.926   .     S
Zn936  O942    1.926   .     S
Zn937  O951    1.929   .     S
Zn937  O940    1.935   .     S
Zn937  O945    1.937   .     S
Zn937  O943    1.939   .     S
Zn938  O952    1.935   .     S
Zn938  O944    1.930   .     S
Zn938  O947    1.933   .     S
Zn938  O940    1.942   .     S
Zn939  O946    1.942   .     S
Zn939  O950    1.934   .     S
Zn939  O941    1.929   .     S
Zn939  O940    1.934   .     S
O941   C953    1.268   .     A
O942   C954    1.281   .     A
O943   C955    1.275   .     A
O944   C956    1.273   .     A
O945   C957    1.268   .     A
O946   C958    1.282   .     A
O947   C957    1.278   .     A
O948   C958    1.284   .     A
O949   C955    1.275   .     A
O950   C956    1.274   .     A
O951   C953    1.268   .     A
O952   C954    1.284   .     A
C953   C981    1.437   .     S
C954   C979    1.454   .     S
C955   C985    1.436   .     S
C956   C983    1.451   .     S
C957   C961    1.450   .     S
C958   C973    1.474   .     S
C959   C972    1.390   .     A
H960   C972    1.084   .     S
C961   C972    1.391   .     A
C961   C971    1.387   .     A
C962   H975    1.083   .     S
C962   C973    1.402   .     A
C962   C963    1.387   .     A
C963   H977    1.083   .     S
C963   C469    1.391   1_556 S
C964   H976    1.076   .     S
C965   C966    1.418   .     A
C965   C469    1.419   1_556 S
C965   C472    1.426   1_556 S
C966   C973    1.418   .     A
C966   C970    1.404   .     A
C967   C971    1.410   .     A
C968   C969    1.413   .     A
C968   C472    1.434   1_556 S
C968   C464    1.422   1_556 S
C969   N987    1.434   .     S
C969   C970    1.389   .     A
C970   H978    1.082   .     S
C971   H974    1.077   .     S
C979   H870    1.088   1_655 S
C979   C871    1.334   1_655 S
H982   C871    1.086   1_655 S
C983   H654    1.088   1_565 S
C983   C655    1.331   1_565 S
H986   C655    1.086   1_565 S
N987   O988    1.302   .     A
N987   O989    1.302   .     A
Br990  C464    1.927   1_556 S
