data_str_m3_o2_o5_pcu_sym.56
_audit_creation_date              2020-01-03
_audit_creation_method            'Materials Studio'
_symmetry_space_group_name_H-M    'P1'
_symmetry_Int_Tables_number       1
_symmetry_cell_setting            triclinic
loop_
_symmetry_equiv_pos_as_xyz
  x,y,z
_cell_length_a                    29.9721
_cell_length_b                    28.6739
_cell_length_c                    26.6335
_cell_angle_alpha                 89.9859
_cell_angle_beta                  91.3971
_cell_angle_gamma                 90.0580
loop_
_atom_site_label
_atom_site_type_symbol
_atom_site_fract_x
_atom_site_fract_y
_atom_site_fract_z
_atom_site_U_iso_or_equiv
_atom_site_adp_type
_atom_site_occupancy
C1     C     0.16417   0.25005   0.16664   0.00000  Uiso   1.00
C2     C     0.21463   0.44764   0.14477   0.00000  Uiso   1.00
C3     C     0.24992   0.25001   0.07299   0.00000  Uiso   1.00
C4     C     0.25008   0.25000   0.26034   0.00000  Uiso   1.00
C5     C     0.25066   0.02620   0.16594   0.00000  Uiso   1.00
C6     C     0.25119   0.47293   0.16543   0.00000  Uiso   1.00
C7     C     0.24997   0.25001   0.02184   0.00000  Uiso   1.00
C8     C     0.25003   0.25000   0.31150   0.00000  Uiso   1.00
C9     C     0.04599   0.22689   0.12923   0.00000  Uiso   1.00
C10    C     0.45385   0.22654   0.20451   0.00000  Uiso   1.00
C11    C     0.45170   0.27820   0.13030   0.00000  Uiso   1.00
C12    C     0.33584   0.25009   0.16673   0.00000  Uiso   1.00
C13    C     0.04857   0.27752   0.20423   0.00000  Uiso   1.00
C14    C     0.09219   0.22757   0.12859   0.00000  Uiso   1.00
C15    C     0.40765   0.22721   0.20490   0.00000  Uiso   1.00
C16    C     0.40549   0.27577   0.12937   0.00000  Uiso   1.00
C17    C     0.09478   0.27509   0.20485   0.00000  Uiso   1.00
C18    C     0.11634   0.25051   0.16693   0.00000  Uiso   1.00
C19    C     0.38369   0.25064   0.16676   0.00000  Uiso   1.00
C20    C     0.02416   0.25249   0.16685   0.00000  Uiso   1.00
C21    C     0.47590   0.25262   0.16738   0.00000  Uiso   1.00
C22    C     0.23511   0.10142   0.12518   0.00000  Uiso   1.00
C23    C     0.28358   0.39790   0.19102   0.00000  Uiso   1.00
C24    C     0.26489   0.10113   0.20795   0.00000  Uiso   1.00
C25    C     0.21678   0.39805   0.14188   0.00000  Uiso   1.00
C26    C     0.23960   0.05242   0.12220   0.00000  Uiso   1.00
C27    C     0.28714   0.44683   0.18694   0.00000  Uiso   1.00
C28    C     0.26108   0.05201   0.21016   0.00000  Uiso   1.00
Cl29   Cl    0.20848   0.12855   0.07356   0.00000  Uiso   1.00
Cl30   Cl    0.32351   0.36858   0.22871   0.00000  Uiso   1.00
Cl31   Cl    0.29046   0.12809   0.26034   0.00000  Uiso   1.00
Cl32   Cl    0.17830   0.36790   0.10280   0.00000  Uiso   1.00
Cl33   Cl    0.11911   0.20075   0.07789   0.00000  Uiso   1.00
Cl34   Cl    0.38046   0.19969   0.25503   0.00000  Uiso   1.00
Cl35   Cl    0.37542   0.30417   0.08019   0.00000  Uiso   1.00
Cl36   Cl    0.12515   0.30285   0.25425   0.00000  Uiso   1.00
H37    H     0.49205   0.19705   0.10081   0.00000  Uiso   1.00
H38    H     0.00765   0.19645   0.23287   0.00000  Uiso   1.00
H39    H     0.00359   0.31026   0.10285   0.00000  Uiso   1.00
H40    H     0.49685   0.30906   0.23258   0.00000  Uiso   1.00
H41    H     0.24934   0.00199   0.07491   0.00000  Uiso   1.00
H42    H     0.32966   0.49807   0.18819   0.00000  Uiso   1.00
H43    H     0.25251   0.00057   0.25654   0.00000  Uiso   1.00
H44    H     0.15208   0.45085   0.12271   0.00000  Uiso   1.00
N45    N     0.25000   0.12624   0.16667   0.00000  Uiso   1.00
N46    N     0.25000   0.37376   0.16667   0.00000  Uiso   1.00
O47    O     0.18453   0.28974   0.16667   0.00000  Uiso   1.00
O48    O     0.47597   0.20063   0.24126   0.00000  Uiso   1.00
O49    O     0.47176   0.30507   0.09398   0.00000  Uiso   1.00
O50    O     0.02875   0.30389   0.24107   0.00000  Uiso   1.00
O51    O     0.23274   0.03179   0.07575   0.00000  Uiso   1.00
O52    O     0.32593   0.46757   0.20500   0.00000  Uiso   1.00
O53    O     0.26857   0.03074   0.25616   0.00000  Uiso   1.00
O54    O     0.17770   0.47226   0.12750   0.00000  Uiso   1.00
O55    O     0.31547   0.21026   0.16666   0.00000  Uiso   1.00
O56    O     0.31547   0.28974   0.16666   0.00000  Uiso   1.00
O57    O     0.18453   0.21026   0.16667   0.00000  Uiso   1.00
O58    O     0.25000   0.28973   0.09511   0.00000  Uiso   1.00
O59    O     0.25000   0.21027   0.23822   0.00000  Uiso   1.00
O60    O     0.25000   0.28973   0.23822   0.00000  Uiso   1.00
O61    O     0.25000   0.21027   0.09511   0.00000  Uiso   1.00
O62    O     0.02365   0.20149   0.09220   0.00000  Uiso   1.00
Zn63   Zn    0.25000   0.30307   0.16667   0.00000  Uiso   1.00
Zn64   Zn    0.25000   0.19693   0.16667   0.00000  Uiso   1.00
C65    C     0.66417   0.25005   0.16664   0.00000  Uiso   1.00
C66    C     0.71463   0.44764   0.14477   0.00000  Uiso   1.00
C67    C     0.74992   0.25001   0.07299   0.00000  Uiso   1.00
C68    C     0.75008   0.25000   0.26034   0.00000  Uiso   1.00
C69    C     0.75066   0.02620   0.16594   0.00000  Uiso   1.00
C70    C     0.75119   0.47293   0.16543   0.00000  Uiso   1.00
C71    C     0.74997   0.25001   0.02184   0.00000  Uiso   1.00
C72    C     0.75003   0.25000   0.31150   0.00000  Uiso   1.00
C73    C     0.54599   0.22689   0.12923   0.00000  Uiso   1.00
C74    C     0.95385   0.22654   0.20451   0.00000  Uiso   1.00
C75    C     0.95170   0.27820   0.13030   0.00000  Uiso   1.00
C76    C     0.83584   0.25009   0.16673   0.00000  Uiso   1.00
C77    C     0.54857   0.27752   0.20423   0.00000  Uiso   1.00
C78    C     0.59219   0.22757   0.12859   0.00000  Uiso   1.00
C79    C     0.90765   0.22721   0.20490   0.00000  Uiso   1.00
C80    C     0.90549   0.27577   0.12937   0.00000  Uiso   1.00
C81    C     0.59478   0.27509   0.20485   0.00000  Uiso   1.00
C82    C     0.61634   0.25051   0.16693   0.00000  Uiso   1.00
C83    C     0.88369   0.25064   0.16676   0.00000  Uiso   1.00
C84    C     0.52416   0.25249   0.16685   0.00000  Uiso   1.00
C85    C     0.97590   0.25262   0.16738   0.00000  Uiso   1.00
C86    C     0.73511   0.10142   0.12518   0.00000  Uiso   1.00
C87    C     0.78358   0.39790   0.19102   0.00000  Uiso   1.00
C88    C     0.76489   0.10113   0.20795   0.00000  Uiso   1.00
C89    C     0.71678   0.39805   0.14188   0.00000  Uiso   1.00
C90    C     0.73960   0.05242   0.12220   0.00000  Uiso   1.00
C91    C     0.78714   0.44683   0.18694   0.00000  Uiso   1.00
C92    C     0.76108   0.05201   0.21016   0.00000  Uiso   1.00
Cl93   Cl    0.70848   0.12855   0.07356   0.00000  Uiso   1.00
Cl94   Cl    0.82351   0.36858   0.22871   0.00000  Uiso   1.00
Cl95   Cl    0.79046   0.12809   0.26034   0.00000  Uiso   1.00
Cl96   Cl    0.67830   0.36790   0.10280   0.00000  Uiso   1.00
Cl97   Cl    0.61911   0.20075   0.07789   0.00000  Uiso   1.00
Cl98   Cl    0.88046   0.19969   0.25503   0.00000  Uiso   1.00
Cl99   Cl    0.87542   0.30417   0.08019   0.00000  Uiso   1.00
Cl100  Cl    0.62515   0.30285   0.25425   0.00000  Uiso   1.00
H101   H     0.99205   0.19705   0.10081   0.00000  Uiso   1.00
H102   H     0.50765   0.19645   0.23287   0.00000  Uiso   1.00
H103   H     0.50359   0.31026   0.10285   0.00000  Uiso   1.00
H104   H     0.99685   0.30906   0.23258   0.00000  Uiso   1.00
H105   H     0.74934   0.00199   0.07491   0.00000  Uiso   1.00
H106   H     0.82966   0.49807   0.18819   0.00000  Uiso   1.00
H107   H     0.75251   0.00057   0.25654   0.00000  Uiso   1.00
H108   H     0.65208   0.45085   0.12271   0.00000  Uiso   1.00
N109   N     0.75000   0.12624   0.16667   0.00000  Uiso   1.00
N110   N     0.75000   0.37376   0.16667   0.00000  Uiso   1.00
O111   O     0.68453   0.28974   0.16667   0.00000  Uiso   1.00
O112   O     0.97597   0.20063   0.24126   0.00000  Uiso   1.00
O113   O     0.97176   0.30507   0.09398   0.00000  Uiso   1.00
O114   O     0.52875   0.30389   0.24107   0.00000  Uiso   1.00
O115   O     0.73274   0.03179   0.07575   0.00000  Uiso   1.00
O116   O     0.82593   0.46757   0.20500   0.00000  Uiso   1.00
O117   O     0.76857   0.03074   0.25616   0.00000  Uiso   1.00
O118   O     0.67770   0.47226   0.12750   0.00000  Uiso   1.00
O119   O     0.81547   0.21026   0.16666   0.00000  Uiso   1.00
O120   O     0.81547   0.28974   0.16666   0.00000  Uiso   1.00
O121   O     0.68453   0.21026   0.16667   0.00000  Uiso   1.00
O122   O     0.75000   0.28973   0.09511   0.00000  Uiso   1.00
O123   O     0.75000   0.21027   0.23822   0.00000  Uiso   1.00
O124   O     0.75000   0.28973   0.23822   0.00000  Uiso   1.00
O125   O     0.75000   0.21027   0.09511   0.00000  Uiso   1.00
O126   O     0.52365   0.20149   0.09220   0.00000  Uiso   1.00
Zn127  Zn    0.75000   0.30307   0.16667   0.00000  Uiso   1.00
Zn128  Zn    0.75000   0.19693   0.16667   0.00000  Uiso   1.00
C129   C     0.16417   0.75005   0.16664   0.00000  Uiso   1.00
C130   C     0.21463   0.94764   0.14477   0.00000  Uiso   1.00
C131   C     0.24992   0.75001   0.07299   0.00000  Uiso   1.00
C132   C     0.25008   0.75000   0.26034   0.00000  Uiso   1.00
C133   C     0.25066   0.52620   0.16594   0.00000  Uiso   1.00
C134   C     0.25119   0.97293   0.16543   0.00000  Uiso   1.00
C135   C     0.24997   0.75001   0.02184   0.00000  Uiso   1.00
C136   C     0.25003   0.75000   0.31150   0.00000  Uiso   1.00
C137   C     0.04599   0.72689   0.12923   0.00000  Uiso   1.00
C138   C     0.45385   0.72654   0.20451   0.00000  Uiso   1.00
C139   C     0.45170   0.77820   0.13030   0.00000  Uiso   1.00
C140   C     0.33584   0.75009   0.16673   0.00000  Uiso   1.00
C141   C     0.04857   0.77752   0.20423   0.00000  Uiso   1.00
C142   C     0.09219   0.72757   0.12859   0.00000  Uiso   1.00
C143   C     0.40765   0.72721   0.20490   0.00000  Uiso   1.00
C144   C     0.40549   0.77577   0.12937   0.00000  Uiso   1.00
C145   C     0.09478   0.77509   0.20485   0.00000  Uiso   1.00
C146   C     0.11634   0.75051   0.16693   0.00000  Uiso   1.00
C147   C     0.38369   0.75064   0.16676   0.00000  Uiso   1.00
C148   C     0.02416   0.75249   0.16685   0.00000  Uiso   1.00
C149   C     0.47590   0.75262   0.16738   0.00000  Uiso   1.00
C150   C     0.23511   0.60142   0.12518   0.00000  Uiso   1.00
C151   C     0.28358   0.89790   0.19102   0.00000  Uiso   1.00
C152   C     0.26489   0.60113   0.20795   0.00000  Uiso   1.00
C153   C     0.21678   0.89805   0.14188   0.00000  Uiso   1.00
C154   C     0.23960   0.55242   0.12220   0.00000  Uiso   1.00
C155   C     0.28714   0.94683   0.18694   0.00000  Uiso   1.00
C156   C     0.26108   0.55201   0.21016   0.00000  Uiso   1.00
Cl157  Cl    0.20848   0.62855   0.07356   0.00000  Uiso   1.00
Cl158  Cl    0.32351   0.86858   0.22871   0.00000  Uiso   1.00
Cl159  Cl    0.29046   0.62809   0.26034   0.00000  Uiso   1.00
Cl160  Cl    0.17830   0.86790   0.10280   0.00000  Uiso   1.00
Cl161  Cl    0.11911   0.70075   0.07789   0.00000  Uiso   1.00
Cl162  Cl    0.38046   0.69969   0.25503   0.00000  Uiso   1.00
Cl163  Cl    0.37542   0.80417   0.08019   0.00000  Uiso   1.00
Cl164  Cl    0.12515   0.80285   0.25425   0.00000  Uiso   1.00
H165   H     0.49205   0.69705   0.10081   0.00000  Uiso   1.00
H166   H     0.00765   0.69645   0.23287   0.00000  Uiso   1.00
H167   H     0.00359   0.81026   0.10285   0.00000  Uiso   1.00
H168   H     0.49685   0.80906   0.23258   0.00000  Uiso   1.00
H169   H     0.24934   0.50199   0.07491   0.00000  Uiso   1.00
H170   H     0.32966   0.99807   0.18819   0.00000  Uiso   1.00
H171   H     0.25251   0.50057   0.25654   0.00000  Uiso   1.00
H172   H     0.15208   0.95085   0.12271   0.00000  Uiso   1.00
N173   N     0.25000   0.62624   0.16667   0.00000  Uiso   1.00
N174   N     0.25000   0.87376   0.16667   0.00000  Uiso   1.00
O175   O     0.18453   0.78974   0.16667   0.00000  Uiso   1.00
O176   O     0.47597   0.70063   0.24126   0.00000  Uiso   1.00
O177   O     0.47176   0.80507   0.09398   0.00000  Uiso   1.00
O178   O     0.02875   0.80389   0.24107   0.00000  Uiso   1.00
O179   O     0.23274   0.53179   0.07575   0.00000  Uiso   1.00
O180   O     0.32593   0.96757   0.20500   0.00000  Uiso   1.00
O181   O     0.26857   0.53074   0.25616   0.00000  Uiso   1.00
O182   O     0.17770   0.97226   0.12750   0.00000  Uiso   1.00
O183   O     0.31547   0.71026   0.16666   0.00000  Uiso   1.00
O184   O     0.31547   0.78974   0.16666   0.00000  Uiso   1.00
O185   O     0.18453   0.71026   0.16667   0.00000  Uiso   1.00
O186   O     0.25000   0.78973   0.09511   0.00000  Uiso   1.00
O187   O     0.25000   0.71027   0.23822   0.00000  Uiso   1.00
O188   O     0.25000   0.78973   0.23822   0.00000  Uiso   1.00
O189   O     0.25000   0.71027   0.09511   0.00000  Uiso   1.00
O190   O     0.02365   0.70149   0.09220   0.00000  Uiso   1.00
Zn191  Zn    0.25000   0.80307   0.16667   0.00000  Uiso   1.00
Zn192  Zn    0.25000   0.69693   0.16667   0.00000  Uiso   1.00
C193   C     0.66417   0.75005   0.16664   0.00000  Uiso   1.00
C194   C     0.71463   0.94764   0.14477   0.00000  Uiso   1.00
C195   C     0.74992   0.75001   0.07299   0.00000  Uiso   1.00
C196   C     0.75008   0.75000   0.26034   0.00000  Uiso   1.00
C197   C     0.75066   0.52620   0.16594   0.00000  Uiso   1.00
C198   C     0.75119   0.97293   0.16543   0.00000  Uiso   1.00
C199   C     0.74997   0.75001   0.02184   0.00000  Uiso   1.00
C200   C     0.75003   0.75000   0.31150   0.00000  Uiso   1.00
C201   C     0.54599   0.72689   0.12923   0.00000  Uiso   1.00
C202   C     0.95385   0.72654   0.20451   0.00000  Uiso   1.00
C203   C     0.95170   0.77820   0.13030   0.00000  Uiso   1.00
C204   C     0.83584   0.75009   0.16673   0.00000  Uiso   1.00
C205   C     0.54857   0.77752   0.20423   0.00000  Uiso   1.00
C206   C     0.59219   0.72757   0.12859   0.00000  Uiso   1.00
C207   C     0.90765   0.72721   0.20490   0.00000  Uiso   1.00
C208   C     0.90549   0.77577   0.12937   0.00000  Uiso   1.00
C209   C     0.59478   0.77509   0.20485   0.00000  Uiso   1.00
C210   C     0.61634   0.75051   0.16693   0.00000  Uiso   1.00
C211   C     0.88369   0.75064   0.16676   0.00000  Uiso   1.00
C212   C     0.52416   0.75249   0.16685   0.00000  Uiso   1.00
C213   C     0.97590   0.75262   0.16738   0.00000  Uiso   1.00
C214   C     0.73511   0.60142   0.12518   0.00000  Uiso   1.00
C215   C     0.78358   0.89790   0.19102   0.00000  Uiso   1.00
C216   C     0.76489   0.60113   0.20795   0.00000  Uiso   1.00
C217   C     0.71678   0.89805   0.14188   0.00000  Uiso   1.00
C218   C     0.73960   0.55242   0.12220   0.00000  Uiso   1.00
C219   C     0.78714   0.94683   0.18694   0.00000  Uiso   1.00
C220   C     0.76108   0.55201   0.21016   0.00000  Uiso   1.00
Cl221  Cl    0.70848   0.62855   0.07356   0.00000  Uiso   1.00
Cl222  Cl    0.82351   0.86858   0.22871   0.00000  Uiso   1.00
Cl223  Cl    0.79046   0.62809   0.26034   0.00000  Uiso   1.00
Cl224  Cl    0.67830   0.86790   0.10280   0.00000  Uiso   1.00
Cl225  Cl    0.61911   0.70075   0.07789   0.00000  Uiso   1.00
Cl226  Cl    0.88046   0.69969   0.25503   0.00000  Uiso   1.00
Cl227  Cl    0.87542   0.80417   0.08019   0.00000  Uiso   1.00
Cl228  Cl    0.62515   0.80285   0.25425   0.00000  Uiso   1.00
H229   H     0.99205   0.69705   0.10081   0.00000  Uiso   1.00
H230   H     0.50765   0.69645   0.23287   0.00000  Uiso   1.00
H231   H     0.50359   0.81026   0.10285   0.00000  Uiso   1.00
H232   H     0.99685   0.80906   0.23258   0.00000  Uiso   1.00
H233   H     0.74934   0.50199   0.07491   0.00000  Uiso   1.00
H234   H     0.82966   0.99807   0.18819   0.00000  Uiso   1.00
H235   H     0.75251   0.50057   0.25654   0.00000  Uiso   1.00
H236   H     0.65208   0.95085   0.12271   0.00000  Uiso   1.00
N237   N     0.75000   0.62624   0.16667   0.00000  Uiso   1.00
N238   N     0.75000   0.87376   0.16667   0.00000  Uiso   1.00
O239   O     0.68453   0.78974   0.16667   0.00000  Uiso   1.00
O240   O     0.97597   0.70063   0.24126   0.00000  Uiso   1.00
O241   O     0.97176   0.80507   0.09398   0.00000  Uiso   1.00
O242   O     0.52875   0.80389   0.24107   0.00000  Uiso   1.00
O243   O     0.73274   0.53179   0.07575   0.00000  Uiso   1.00
O244   O     0.82593   0.96757   0.20500   0.00000  Uiso   1.00
O245   O     0.76857   0.53074   0.25616   0.00000  Uiso   1.00
O246   O     0.67770   0.97226   0.12750   0.00000  Uiso   1.00
O247   O     0.81547   0.71026   0.16666   0.00000  Uiso   1.00
O248   O     0.81547   0.78974   0.16666   0.00000  Uiso   1.00
O249   O     0.68453   0.71026   0.16667   0.00000  Uiso   1.00
O250   O     0.75000   0.78973   0.09511   0.00000  Uiso   1.00
O251   O     0.75000   0.71027   0.23822   0.00000  Uiso   1.00
O252   O     0.75000   0.78973   0.23822   0.00000  Uiso   1.00
O253   O     0.75000   0.71027   0.09511   0.00000  Uiso   1.00
O254   O     0.52365   0.70149   0.09220   0.00000  Uiso   1.00
Zn255  Zn    0.75000   0.80307   0.16667   0.00000  Uiso   1.00
Zn256  Zn    0.75000   0.69693   0.16667   0.00000  Uiso   1.00
C257   C     0.16417   0.25005   0.49997   0.00000  Uiso   1.00
C258   C     0.21463   0.44764   0.47811   0.00000  Uiso   1.00
C259   C     0.24992   0.25001   0.40633   0.00000  Uiso   1.00
C260   C     0.25008   0.25000   0.59367   0.00000  Uiso   1.00
C261   C     0.25066   0.02620   0.49927   0.00000  Uiso   1.00
C262   C     0.25119   0.47293   0.49877   0.00000  Uiso   1.00
C263   C     0.24997   0.25001   0.35517   0.00000  Uiso   1.00
C264   C     0.25003   0.25000   0.64483   0.00000  Uiso   1.00
C265   C     0.04599   0.22689   0.46256   0.00000  Uiso   1.00
C266   C     0.45385   0.22654   0.53784   0.00000  Uiso   1.00
C267   C     0.45170   0.27820   0.46363   0.00000  Uiso   1.00
C268   C     0.33584   0.25009   0.50006   0.00000  Uiso   1.00
C269   C     0.04857   0.27752   0.53756   0.00000  Uiso   1.00
C270   C     0.09219   0.22757   0.46192   0.00000  Uiso   1.00
C271   C     0.40765   0.22721   0.53823   0.00000  Uiso   1.00
C272   C     0.40549   0.27577   0.46270   0.00000  Uiso   1.00
C273   C     0.09478   0.27509   0.53818   0.00000  Uiso   1.00
C274   C     0.11634   0.25051   0.50026   0.00000  Uiso   1.00
C275   C     0.38369   0.25064   0.50009   0.00000  Uiso   1.00
C276   C     0.02416   0.25249   0.50018   0.00000  Uiso   1.00
C277   C     0.47590   0.25262   0.50071   0.00000  Uiso   1.00
C278   C     0.23511   0.10142   0.45852   0.00000  Uiso   1.00
C279   C     0.28358   0.39790   0.52435   0.00000  Uiso   1.00
C280   C     0.26489   0.10113   0.54128   0.00000  Uiso   1.00
C281   C     0.21678   0.39805   0.47521   0.00000  Uiso   1.00
C282   C     0.23960   0.05242   0.45554   0.00000  Uiso   1.00
C283   C     0.28714   0.44683   0.52028   0.00000  Uiso   1.00
C284   C     0.26108   0.05201   0.54349   0.00000  Uiso   1.00
Cl285  Cl    0.20848   0.12855   0.40689   0.00000  Uiso   1.00
Cl286  Cl    0.32351   0.36858   0.56204   0.00000  Uiso   1.00
Cl287  Cl    0.29046   0.12809   0.59368   0.00000  Uiso   1.00
Cl288  Cl    0.17830   0.36790   0.43614   0.00000  Uiso   1.00
Cl289  Cl    0.11911   0.20075   0.41123   0.00000  Uiso   1.00
Cl290  Cl    0.38046   0.19969   0.58836   0.00000  Uiso   1.00
Cl291  Cl    0.37542   0.30417   0.41352   0.00000  Uiso   1.00
Cl292  Cl    0.12515   0.30285   0.58758   0.00000  Uiso   1.00
H293   H     0.49205   0.19705   0.43415   0.00000  Uiso   1.00
H294   H     0.00765   0.19645   0.56621   0.00000  Uiso   1.00
H295   H     0.00359   0.31026   0.43619   0.00000  Uiso   1.00
H296   H     0.49685   0.30906   0.56591   0.00000  Uiso   1.00
H297   H     0.24934   0.00199   0.40825   0.00000  Uiso   1.00
H298   H     0.32966   0.49807   0.52152   0.00000  Uiso   1.00
H299   H     0.25251   0.00057   0.58987   0.00000  Uiso   1.00
H300   H     0.15208   0.45085   0.45605   0.00000  Uiso   1.00
N301   N     0.25000   0.12624   0.50000   0.00000  Uiso   1.00
N302   N     0.25000   0.37376   0.50000   0.00000  Uiso   1.00
O303   O     0.18453   0.28974   0.50000   0.00000  Uiso   1.00
O304   O     0.47597   0.20063   0.57459   0.00000  Uiso   1.00
O305   O     0.47176   0.30507   0.42731   0.00000  Uiso   1.00
O306   O     0.02875   0.30389   0.57441   0.00000  Uiso   1.00
O307   O     0.23274   0.03179   0.40909   0.00000  Uiso   1.00
O308   O     0.32593   0.46757   0.53833   0.00000  Uiso   1.00
O309   O     0.26857   0.03074   0.58949   0.00000  Uiso   1.00
O310   O     0.17770   0.47226   0.46083   0.00000  Uiso   1.00
O311   O     0.31547   0.21026   0.50000   0.00000  Uiso   1.00
O312   O     0.31547   0.28974   0.50000   0.00000  Uiso   1.00
O313   O     0.18453   0.21026   0.50000   0.00000  Uiso   1.00
O314   O     0.25000   0.28973   0.42845   0.00000  Uiso   1.00
O315   O     0.25000   0.21027   0.57155   0.00000  Uiso   1.00
O316   O     0.25000   0.28973   0.57155   0.00000  Uiso   1.00
O317   O     0.25000   0.21027   0.42845   0.00000  Uiso   1.00
O318   O     0.02365   0.20149   0.42553   0.00000  Uiso   1.00
Zn319  Zn    0.25000   0.30307   0.50000   0.00000  Uiso   1.00
Zn320  Zn    0.25000   0.19693   0.50000   0.00000  Uiso   1.00
C321   C     0.66417   0.25005   0.49997   0.00000  Uiso   1.00
C322   C     0.71463   0.44764   0.47811   0.00000  Uiso   1.00
C323   C     0.74992   0.25001   0.40633   0.00000  Uiso   1.00
C324   C     0.75008   0.25000   0.59367   0.00000  Uiso   1.00
C325   C     0.75066   0.02620   0.49927   0.00000  Uiso   1.00
C326   C     0.75119   0.47293   0.49877   0.00000  Uiso   1.00
C327   C     0.74997   0.25001   0.35517   0.00000  Uiso   1.00
C328   C     0.75003   0.25000   0.64483   0.00000  Uiso   1.00
C329   C     0.54599   0.22689   0.46256   0.00000  Uiso   1.00
C330   C     0.95385   0.22654   0.53784   0.00000  Uiso   1.00
C331   C     0.95170   0.27820   0.46363   0.00000  Uiso   1.00
C332   C     0.83584   0.25009   0.50006   0.00000  Uiso   1.00
C333   C     0.54857   0.27752   0.53756   0.00000  Uiso   1.00
C334   C     0.59219   0.22757   0.46192   0.00000  Uiso   1.00
C335   C     0.90765   0.22721   0.53823   0.00000  Uiso   1.00
C336   C     0.90549   0.27577   0.46270   0.00000  Uiso   1.00
C337   C     0.59478   0.27509   0.53818   0.00000  Uiso   1.00
C338   C     0.61634   0.25051   0.50026   0.00000  Uiso   1.00
C339   C     0.88369   0.25064   0.50009   0.00000  Uiso   1.00
C340   C     0.52416   0.25249   0.50018   0.00000  Uiso   1.00
C341   C     0.97590   0.25262   0.50071   0.00000  Uiso   1.00
C342   C     0.73511   0.10142   0.45852   0.00000  Uiso   1.00
C343   C     0.78358   0.39790   0.52435   0.00000  Uiso   1.00
C344   C     0.76489   0.10113   0.54128   0.00000  Uiso   1.00
C345   C     0.71678   0.39805   0.47521   0.00000  Uiso   1.00
C346   C     0.73960   0.05242   0.45554   0.00000  Uiso   1.00
C347   C     0.78714   0.44683   0.52028   0.00000  Uiso   1.00
C348   C     0.76108   0.05201   0.54349   0.00000  Uiso   1.00
Cl349  Cl    0.70848   0.12855   0.40689   0.00000  Uiso   1.00
Cl350  Cl    0.82351   0.36858   0.56204   0.00000  Uiso   1.00
Cl351  Cl    0.79046   0.12809   0.59368   0.00000  Uiso   1.00
Cl352  Cl    0.67830   0.36790   0.43614   0.00000  Uiso   1.00
Cl353  Cl    0.61911   0.20075   0.41123   0.00000  Uiso   1.00
Cl354  Cl    0.88046   0.19969   0.58836   0.00000  Uiso   1.00
Cl355  Cl    0.87542   0.30417   0.41352   0.00000  Uiso   1.00
Cl356  Cl    0.62515   0.30285   0.58758   0.00000  Uiso   1.00
H357   H     0.99205   0.19705   0.43415   0.00000  Uiso   1.00
H358   H     0.50765   0.19645   0.56621   0.00000  Uiso   1.00
H359   H     0.50359   0.31026   0.43619   0.00000  Uiso   1.00
H360   H     0.99685   0.30906   0.56591   0.00000  Uiso   1.00
H361   H     0.74934   0.00199   0.40825   0.00000  Uiso   1.00
H362   H     0.82966   0.49807   0.52152   0.00000  Uiso   1.00
H363   H     0.75251   0.00057   0.58987   0.00000  Uiso   1.00
H364   H     0.65208   0.45085   0.45605   0.00000  Uiso   1.00
N365   N     0.75000   0.12624   0.50000   0.00000  Uiso   1.00
N366   N     0.75000   0.37376   0.50000   0.00000  Uiso   1.00
O367   O     0.68453   0.28974   0.50000   0.00000  Uiso   1.00
O368   O     0.97597   0.20063   0.57459   0.00000  Uiso   1.00
O369   O     0.97176   0.30507   0.42731   0.00000  Uiso   1.00
O370   O     0.52875   0.30389   0.57441   0.00000  Uiso   1.00
O371   O     0.73274   0.03179   0.40909   0.00000  Uiso   1.00
O372   O     0.82593   0.46757   0.53833   0.00000  Uiso   1.00
O373   O     0.76857   0.03074   0.58949   0.00000  Uiso   1.00
O374   O     0.67770   0.47226   0.46083   0.00000  Uiso   1.00
O375   O     0.81547   0.21026   0.50000   0.00000  Uiso   1.00
O376   O     0.81547   0.28974   0.50000   0.00000  Uiso   1.00
O377   O     0.68453   0.21026   0.50000   0.00000  Uiso   1.00
O378   O     0.75000   0.28973   0.42845   0.00000  Uiso   1.00
O379   O     0.75000   0.21027   0.57155   0.00000  Uiso   1.00
O380   O     0.75000   0.28973   0.57155   0.00000  Uiso   1.00
O381   O     0.75000   0.21027   0.42845   0.00000  Uiso   1.00
O382   O     0.52365   0.20149   0.42553   0.00000  Uiso   1.00
Zn383  Zn    0.75000   0.30307   0.50000   0.00000  Uiso   1.00
Zn384  Zn    0.75000   0.19693   0.50000   0.00000  Uiso   1.00
C385   C     0.16417   0.75005   0.49997   0.00000  Uiso   1.00
C386   C     0.21463   0.94764   0.47811   0.00000  Uiso   1.00
C387   C     0.24992   0.75001   0.40633   0.00000  Uiso   1.00
C388   C     0.25008   0.75000   0.59367   0.00000  Uiso   1.00
C389   C     0.25066   0.52620   0.49927   0.00000  Uiso   1.00
C390   C     0.25119   0.97293   0.49877   0.00000  Uiso   1.00
C391   C     0.24997   0.75001   0.35517   0.00000  Uiso   1.00
C392   C     0.25003   0.75000   0.64483   0.00000  Uiso   1.00
C393   C     0.04599   0.72689   0.46256   0.00000  Uiso   1.00
C394   C     0.45385   0.72654   0.53784   0.00000  Uiso   1.00
C395   C     0.45170   0.77820   0.46363   0.00000  Uiso   1.00
C396   C     0.33584   0.75009   0.50006   0.00000  Uiso   1.00
C397   C     0.04857   0.77752   0.53756   0.00000  Uiso   1.00
C398   C     0.09219   0.72757   0.46192   0.00000  Uiso   1.00
C399   C     0.40765   0.72721   0.53823   0.00000  Uiso   1.00
C400   C     0.40549   0.77577   0.46270   0.00000  Uiso   1.00
C401   C     0.09478   0.77509   0.53818   0.00000  Uiso   1.00
C402   C     0.11634   0.75051   0.50026   0.00000  Uiso   1.00
C403   C     0.38369   0.75064   0.50009   0.00000  Uiso   1.00
C404   C     0.02416   0.75249   0.50018   0.00000  Uiso   1.00
C405   C     0.47590   0.75262   0.50071   0.00000  Uiso   1.00
C406   C     0.23511   0.60142   0.45852   0.00000  Uiso   1.00
C407   C     0.28358   0.89790   0.52435   0.00000  Uiso   1.00
C408   C     0.26489   0.60113   0.54128   0.00000  Uiso   1.00
C409   C     0.21678   0.89805   0.47521   0.00000  Uiso   1.00
C410   C     0.23960   0.55242   0.45554   0.00000  Uiso   1.00
C411   C     0.28714   0.94683   0.52028   0.00000  Uiso   1.00
C412   C     0.26108   0.55201   0.54349   0.00000  Uiso   1.00
Cl413  Cl    0.20848   0.62855   0.40689   0.00000  Uiso   1.00
Cl414  Cl    0.32351   0.86858   0.56204   0.00000  Uiso   1.00
Cl415  Cl    0.29046   0.62809   0.59368   0.00000  Uiso   1.00
Cl416  Cl    0.17830   0.86790   0.43614   0.00000  Uiso   1.00
Cl417  Cl    0.11911   0.70075   0.41123   0.00000  Uiso   1.00
Cl418  Cl    0.38046   0.69969   0.58836   0.00000  Uiso   1.00
Cl419  Cl    0.37542   0.80417   0.41352   0.00000  Uiso   1.00
Cl420  Cl    0.12515   0.80285   0.58758   0.00000  Uiso   1.00
H421   H     0.49205   0.69705   0.43415   0.00000  Uiso   1.00
H422   H     0.00765   0.69645   0.56621   0.00000  Uiso   1.00
H423   H     0.00359   0.81026   0.43619   0.00000  Uiso   1.00
H424   H     0.49685   0.80906   0.56591   0.00000  Uiso   1.00
H425   H     0.24934   0.50199   0.40825   0.00000  Uiso   1.00
H426   H     0.32966   0.99807   0.52152   0.00000  Uiso   1.00
H427   H     0.25251   0.50057   0.58987   0.00000  Uiso   1.00
H428   H     0.15208   0.95085   0.45605   0.00000  Uiso   1.00
N429   N     0.25000   0.62624   0.50000   0.00000  Uiso   1.00
N430   N     0.25000   0.87376   0.50000   0.00000  Uiso   1.00
O431   O     0.18453   0.78974   0.50000   0.00000  Uiso   1.00
O432   O     0.47597   0.70063   0.57459   0.00000  Uiso   1.00
O433   O     0.47176   0.80507   0.42731   0.00000  Uiso   1.00
O434   O     0.02875   0.80389   0.57441   0.00000  Uiso   1.00
O435   O     0.23274   0.53179   0.40909   0.00000  Uiso   1.00
O436   O     0.32593   0.96757   0.53833   0.00000  Uiso   1.00
O437   O     0.26857   0.53074   0.58949   0.00000  Uiso   1.00
O438   O     0.17770   0.97226   0.46083   0.00000  Uiso   1.00
O439   O     0.31547   0.71026   0.50000   0.00000  Uiso   1.00
O440   O     0.31547   0.78974   0.50000   0.00000  Uiso   1.00
O441   O     0.18453   0.71026   0.50000   0.00000  Uiso   1.00
O442   O     0.25000   0.78973   0.42845   0.00000  Uiso   1.00
O443   O     0.25000   0.71027   0.57155   0.00000  Uiso   1.00
O444   O     0.25000   0.78973   0.57155   0.00000  Uiso   1.00
O445   O     0.25000   0.71027   0.42845   0.00000  Uiso   1.00
O446   O     0.02365   0.70149   0.42553   0.00000  Uiso   1.00
Zn447  Zn    0.25000   0.80307   0.50000   0.00000  Uiso   1.00
Zn448  Zn    0.25000   0.69693   0.50000   0.00000  Uiso   1.00
C449   C     0.66417   0.75005   0.49997   0.00000  Uiso   1.00
C450   C     0.71463   0.94764   0.47811   0.00000  Uiso   1.00
C451   C     0.74992   0.75001   0.40633   0.00000  Uiso   1.00
C452   C     0.75008   0.75000   0.59367   0.00000  Uiso   1.00
C453   C     0.75066   0.52620   0.49927   0.00000  Uiso   1.00
C454   C     0.75119   0.97293   0.49877   0.00000  Uiso   1.00
C455   C     0.74997   0.75001   0.35517   0.00000  Uiso   1.00
C456   C     0.75003   0.75000   0.64483   0.00000  Uiso   1.00
C457   C     0.54599   0.72689   0.46256   0.00000  Uiso   1.00
C458   C     0.95385   0.72654   0.53784   0.00000  Uiso   1.00
C459   C     0.95170   0.77820   0.46363   0.00000  Uiso   1.00
C460   C     0.83584   0.75009   0.50006   0.00000  Uiso   1.00
C461   C     0.54857   0.77752   0.53756   0.00000  Uiso   1.00
C462   C     0.59219   0.72757   0.46192   0.00000  Uiso   1.00
C463   C     0.90765   0.72721   0.53823   0.00000  Uiso   1.00
C464   C     0.90549   0.77577   0.46270   0.00000  Uiso   1.00
C465   C     0.59478   0.77509   0.53818   0.00000  Uiso   1.00
C466   C     0.61634   0.75051   0.50026   0.00000  Uiso   1.00
C467   C     0.88369   0.75064   0.50009   0.00000  Uiso   1.00
C468   C     0.52416   0.75249   0.50018   0.00000  Uiso   1.00
C469   C     0.97590   0.75262   0.50071   0.00000  Uiso   1.00
C470   C     0.73511   0.60142   0.45852   0.00000  Uiso   1.00
C471   C     0.78358   0.89790   0.52435   0.00000  Uiso   1.00
C472   C     0.76489   0.60113   0.54128   0.00000  Uiso   1.00
C473   C     0.71678   0.89805   0.47521   0.00000  Uiso   1.00
C474   C     0.73960   0.55242   0.45554   0.00000  Uiso   1.00
C475   C     0.78714   0.94683   0.52028   0.00000  Uiso   1.00
C476   C     0.76108   0.55201   0.54349   0.00000  Uiso   1.00
Cl477  Cl    0.70848   0.62855   0.40689   0.00000  Uiso   1.00
Cl478  Cl    0.82351   0.86858   0.56204   0.00000  Uiso   1.00
Cl479  Cl    0.79046   0.62809   0.59368   0.00000  Uiso   1.00
Cl480  Cl    0.67830   0.86790   0.43614   0.00000  Uiso   1.00
Cl481  Cl    0.61911   0.70075   0.41123   0.00000  Uiso   1.00
Cl482  Cl    0.88046   0.69969   0.58836   0.00000  Uiso   1.00
Cl483  Cl    0.87542   0.80417   0.41352   0.00000  Uiso   1.00
Cl484  Cl    0.62515   0.80285   0.58758   0.00000  Uiso   1.00
H485   H     0.99205   0.69705   0.43415   0.00000  Uiso   1.00
H486   H     0.50765   0.69645   0.56621   0.00000  Uiso   1.00
H487   H     0.50359   0.81026   0.43619   0.00000  Uiso   1.00
H488   H     0.99685   0.80906   0.56591   0.00000  Uiso   1.00
H489   H     0.74934   0.50199   0.40825   0.00000  Uiso   1.00
H490   H     0.82966   0.99807   0.52152   0.00000  Uiso   1.00
H491   H     0.75251   0.50057   0.58987   0.00000  Uiso   1.00
H492   H     0.65208   0.95085   0.45605   0.00000  Uiso   1.00
N493   N     0.75000   0.62624   0.50000   0.00000  Uiso   1.00
N494   N     0.75000   0.87376   0.50000   0.00000  Uiso   1.00
O495   O     0.68453   0.78974   0.50000   0.00000  Uiso   1.00
O496   O     0.97597   0.70063   0.57459   0.00000  Uiso   1.00
O497   O     0.97176   0.80507   0.42731   0.00000  Uiso   1.00
O498   O     0.52875   0.80389   0.57441   0.00000  Uiso   1.00
O499   O     0.73274   0.53179   0.40909   0.00000  Uiso   1.00
O500   O     0.82593   0.96757   0.53833   0.00000  Uiso   1.00
O501   O     0.76857   0.53074   0.58949   0.00000  Uiso   1.00
O502   O     0.67770   0.97226   0.46083   0.00000  Uiso   1.00
O503   O     0.81547   0.71026   0.50000   0.00000  Uiso   1.00
O504   O     0.81547   0.78974   0.50000   0.00000  Uiso   1.00
O505   O     0.68453   0.71026   0.50000   0.00000  Uiso   1.00
O506   O     0.75000   0.78973   0.42845   0.00000  Uiso   1.00
O507   O     0.75000   0.71027   0.57155   0.00000  Uiso   1.00
O508   O     0.75000   0.78973   0.57155   0.00000  Uiso   1.00
O509   O     0.75000   0.71027   0.42845   0.00000  Uiso   1.00
O510   O     0.52365   0.70149   0.42553   0.00000  Uiso   1.00
Zn511  Zn    0.75000   0.80307   0.50000   0.00000  Uiso   1.00
Zn512  Zn    0.75000   0.69693   0.50000   0.00000  Uiso   1.00
C513   C     0.16417   0.25005   0.83331   0.00000  Uiso   1.00
C514   C     0.21463   0.44764   0.81144   0.00000  Uiso   1.00
C515   C     0.24992   0.25001   0.73966   0.00000  Uiso   1.00
C516   C     0.25008   0.25000   0.92701   0.00000  Uiso   1.00
C517   C     0.25066   0.02620   0.83260   0.00000  Uiso   1.00
C518   C     0.25119   0.47293   0.83210   0.00000  Uiso   1.00
C519   C     0.24997   0.25001   0.68850   0.00000  Uiso   1.00
C520   C     0.25003   0.25000   0.97816   0.00000  Uiso   1.00
C521   C     0.04599   0.22689   0.79590   0.00000  Uiso   1.00
C522   C     0.45385   0.22654   0.87117   0.00000  Uiso   1.00
C523   C     0.45170   0.27820   0.79696   0.00000  Uiso   1.00
C524   C     0.33584   0.25009   0.83340   0.00000  Uiso   1.00
C525   C     0.04857   0.27752   0.87090   0.00000  Uiso   1.00
C526   C     0.09219   0.22757   0.79525   0.00000  Uiso   1.00
C527   C     0.40765   0.22721   0.87156   0.00000  Uiso   1.00
C528   C     0.40549   0.27577   0.79604   0.00000  Uiso   1.00
C529   C     0.09478   0.27509   0.87151   0.00000  Uiso   1.00
C530   C     0.11634   0.25051   0.83359   0.00000  Uiso   1.00
C531   C     0.38369   0.25064   0.83342   0.00000  Uiso   1.00
C532   C     0.02416   0.25249   0.83352   0.00000  Uiso   1.00
C533   C     0.47590   0.25262   0.83404   0.00000  Uiso   1.00
C534   C     0.23511   0.10142   0.79185   0.00000  Uiso   1.00
C535   C     0.28358   0.39790   0.85769   0.00000  Uiso   1.00
C536   C     0.26489   0.10113   0.87462   0.00000  Uiso   1.00
C537   C     0.21678   0.39805   0.80854   0.00000  Uiso   1.00
C538   C     0.23960   0.05242   0.78887   0.00000  Uiso   1.00
C539   C     0.28714   0.44683   0.85361   0.00000  Uiso   1.00
C540   C     0.26108   0.05201   0.87682   0.00000  Uiso   1.00
Cl541  Cl    0.20848   0.12855   0.74023   0.00000  Uiso   1.00
Cl542  Cl    0.32351   0.36858   0.89537   0.00000  Uiso   1.00
Cl543  Cl    0.29046   0.12809   0.92701   0.00000  Uiso   1.00
Cl544  Cl    0.17830   0.36790   0.76947   0.00000  Uiso   1.00
Cl545  Cl    0.11911   0.20075   0.74456   0.00000  Uiso   1.00
Cl546  Cl    0.38046   0.19969   0.92170   0.00000  Uiso   1.00
Cl547  Cl    0.37542   0.30417   0.74685   0.00000  Uiso   1.00
Cl548  Cl    0.12515   0.30285   0.92091   0.00000  Uiso   1.00
H549   H     0.49205   0.19705   0.76748   0.00000  Uiso   1.00
H550   H     0.00765   0.19645   0.89954   0.00000  Uiso   1.00
H551   H     0.00359   0.31026   0.76952   0.00000  Uiso   1.00
H552   H     0.49685   0.30906   0.89925   0.00000  Uiso   1.00
H553   H     0.24934   0.00199   0.74158   0.00000  Uiso   1.00
H554   H     0.32966   0.49807   0.85486   0.00000  Uiso   1.00
H555   H     0.25251   0.00057   0.92320   0.00000  Uiso   1.00
H556   H     0.15208   0.45085   0.78938   0.00000  Uiso   1.00
N557   N     0.25000   0.12624   0.83333   0.00000  Uiso   1.00
N558   N     0.25000   0.37376   0.83333   0.00000  Uiso   1.00
O559   O     0.18453   0.28974   0.83334   0.00000  Uiso   1.00
O560   O     0.47597   0.20063   0.90793   0.00000  Uiso   1.00
O561   O     0.47176   0.30507   0.76065   0.00000  Uiso   1.00
O562   O     0.02875   0.30389   0.90774   0.00000  Uiso   1.00
O563   O     0.23274   0.03179   0.74242   0.00000  Uiso   1.00
O564   O     0.32593   0.46757   0.87166   0.00000  Uiso   1.00
O565   O     0.26857   0.03074   0.92283   0.00000  Uiso   1.00
O566   O     0.17770   0.47226   0.79417   0.00000  Uiso   1.00
O567   O     0.31547   0.21026   0.83333   0.00000  Uiso   1.00
O568   O     0.31547   0.28974   0.83333   0.00000  Uiso   1.00
O569   O     0.18453   0.21026   0.83334   0.00000  Uiso   1.00
O570   O     0.25000   0.28973   0.76178   0.00000  Uiso   1.00
O571   O     0.25000   0.21027   0.90489   0.00000  Uiso   1.00
O572   O     0.25000   0.28973   0.90489   0.00000  Uiso   1.00
O573   O     0.25000   0.21027   0.76178   0.00000  Uiso   1.00
O574   O     0.02365   0.20149   0.75886   0.00000  Uiso   1.00
Zn575  Zn    0.25000   0.30307   0.83333   0.00000  Uiso   1.00
Zn576  Zn    0.25000   0.19693   0.83333   0.00000  Uiso   1.00
C577   C     0.66417   0.25005   0.83331   0.00000  Uiso   1.00
C578   C     0.71463   0.44764   0.81144   0.00000  Uiso   1.00
C579   C     0.74992   0.25001   0.73966   0.00000  Uiso   1.00
C580   C     0.75008   0.25000   0.92701   0.00000  Uiso   1.00
C581   C     0.75066   0.02620   0.83260   0.00000  Uiso   1.00
C582   C     0.75119   0.47293   0.83210   0.00000  Uiso   1.00
C583   C     0.74997   0.25001   0.68850   0.00000  Uiso   1.00
C584   C     0.75003   0.25000   0.97816   0.00000  Uiso   1.00
C585   C     0.54599   0.22689   0.79590   0.00000  Uiso   1.00
C586   C     0.95385   0.22654   0.87117   0.00000  Uiso   1.00
C587   C     0.95170   0.27820   0.79696   0.00000  Uiso   1.00
C588   C     0.83584   0.25009   0.83340   0.00000  Uiso   1.00
C589   C     0.54857   0.27752   0.87090   0.00000  Uiso   1.00
C590   C     0.59219   0.22757   0.79525   0.00000  Uiso   1.00
C591   C     0.90765   0.22721   0.87156   0.00000  Uiso   1.00
C592   C     0.90549   0.27577   0.79604   0.00000  Uiso   1.00
C593   C     0.59478   0.27509   0.87151   0.00000  Uiso   1.00
C594   C     0.61634   0.25051   0.83359   0.00000  Uiso   1.00
C595   C     0.88369   0.25064   0.83342   0.00000  Uiso   1.00
C596   C     0.52416   0.25249   0.83352   0.00000  Uiso   1.00
C597   C     0.97590   0.25262   0.83404   0.00000  Uiso   1.00
C598   C     0.73511   0.10142   0.79185   0.00000  Uiso   1.00
C599   C     0.78358   0.39790   0.85769   0.00000  Uiso   1.00
C600   C     0.76489   0.10113   0.87462   0.00000  Uiso   1.00
C601   C     0.71678   0.39805   0.80854   0.00000  Uiso   1.00
C602   C     0.73960   0.05242   0.78887   0.00000  Uiso   1.00
C603   C     0.78714   0.44683   0.85361   0.00000  Uiso   1.00
C604   C     0.76108   0.05201   0.87682   0.00000  Uiso   1.00
Cl605  Cl    0.70848   0.12855   0.74023   0.00000  Uiso   1.00
Cl606  Cl    0.82351   0.36858   0.89537   0.00000  Uiso   1.00
Cl607  Cl    0.79046   0.12809   0.92701   0.00000  Uiso   1.00
Cl608  Cl    0.67830   0.36790   0.76947   0.00000  Uiso   1.00
Cl609  Cl    0.61911   0.20075   0.74456   0.00000  Uiso   1.00
Cl610  Cl    0.88046   0.19969   0.92170   0.00000  Uiso   1.00
Cl611  Cl    0.87542   0.30417   0.74685   0.00000  Uiso   1.00
Cl612  Cl    0.62515   0.30285   0.92091   0.00000  Uiso   1.00
H613   H     0.99205   0.19705   0.76748   0.00000  Uiso   1.00
H614   H     0.50765   0.19645   0.89954   0.00000  Uiso   1.00
H615   H     0.50359   0.31026   0.76952   0.00000  Uiso   1.00
H616   H     0.99685   0.30906   0.89925   0.00000  Uiso   1.00
H617   H     0.74934   0.00199   0.74158   0.00000  Uiso   1.00
H618   H     0.82966   0.49807   0.85486   0.00000  Uiso   1.00
H619   H     0.75251   0.00057   0.92320   0.00000  Uiso   1.00
H620   H     0.65208   0.45085   0.78938   0.00000  Uiso   1.00
N621   N     0.75000   0.12624   0.83333   0.00000  Uiso   1.00
N622   N     0.75000   0.37376   0.83333   0.00000  Uiso   1.00
O623   O     0.68453   0.28974   0.83334   0.00000  Uiso   1.00
O624   O     0.97597   0.20063   0.90793   0.00000  Uiso   1.00
O625   O     0.97176   0.30507   0.76065   0.00000  Uiso   1.00
O626   O     0.52875   0.30389   0.90774   0.00000  Uiso   1.00
O627   O     0.73274   0.03179   0.74242   0.00000  Uiso   1.00
O628   O     0.82593   0.46757   0.87166   0.00000  Uiso   1.00
O629   O     0.76857   0.03074   0.92283   0.00000  Uiso   1.00
O630   O     0.67770   0.47226   0.79417   0.00000  Uiso   1.00
O631   O     0.81547   0.21026   0.83333   0.00000  Uiso   1.00
O632   O     0.81547   0.28974   0.83333   0.00000  Uiso   1.00
O633   O     0.68453   0.21026   0.83334   0.00000  Uiso   1.00
O634   O     0.75000   0.28973   0.76178   0.00000  Uiso   1.00
O635   O     0.75000   0.21027   0.90489   0.00000  Uiso   1.00
O636   O     0.75000   0.28973   0.90489   0.00000  Uiso   1.00
O637   O     0.75000   0.21027   0.76178   0.00000  Uiso   1.00
O638   O     0.52365   0.20149   0.75886   0.00000  Uiso   1.00
Zn639  Zn    0.75000   0.30307   0.83333   0.00000  Uiso   1.00
Zn640  Zn    0.75000   0.19693   0.83333   0.00000  Uiso   1.00
C641   C     0.16417   0.75005   0.83331   0.00000  Uiso   1.00
C642   C     0.21463   0.94764   0.81144   0.00000  Uiso   1.00
C643   C     0.24992   0.75001   0.73966   0.00000  Uiso   1.00
C644   C     0.25008   0.75000   0.92701   0.00000  Uiso   1.00
C645   C     0.25066   0.52620   0.83260   0.00000  Uiso   1.00
C646   C     0.25119   0.97293   0.83210   0.00000  Uiso   1.00
C647   C     0.24997   0.75001   0.68850   0.00000  Uiso   1.00
C648   C     0.25003   0.75000   0.97816   0.00000  Uiso   1.00
C649   C     0.04599   0.72689   0.79590   0.00000  Uiso   1.00
C650   C     0.45385   0.72654   0.87117   0.00000  Uiso   1.00
C651   C     0.45170   0.77820   0.79696   0.00000  Uiso   1.00
C652   C     0.33584   0.75009   0.83340   0.00000  Uiso   1.00
C653   C     0.04857   0.77752   0.87090   0.00000  Uiso   1.00
C654   C     0.09219   0.72757   0.79525   0.00000  Uiso   1.00
C655   C     0.40765   0.72721   0.87156   0.00000  Uiso   1.00
C656   C     0.40549   0.77577   0.79604   0.00000  Uiso   1.00
C657   C     0.09478   0.77509   0.87151   0.00000  Uiso   1.00
C658   C     0.11634   0.75051   0.83359   0.00000  Uiso   1.00
C659   C     0.38369   0.75064   0.83342   0.00000  Uiso   1.00
C660   C     0.02416   0.75249   0.83352   0.00000  Uiso   1.00
C661   C     0.47590   0.75262   0.83404   0.00000  Uiso   1.00
C662   C     0.23511   0.60142   0.79185   0.00000  Uiso   1.00
C663   C     0.28358   0.89790   0.85769   0.00000  Uiso   1.00
C664   C     0.26489   0.60113   0.87462   0.00000  Uiso   1.00
C665   C     0.21678   0.89805   0.80854   0.00000  Uiso   1.00
C666   C     0.23960   0.55242   0.78887   0.00000  Uiso   1.00
C667   C     0.28714   0.94683   0.85361   0.00000  Uiso   1.00
C668   C     0.26108   0.55201   0.87682   0.00000  Uiso   1.00
Cl669  Cl    0.20848   0.62855   0.74023   0.00000  Uiso   1.00
Cl670  Cl    0.32351   0.86858   0.89537   0.00000  Uiso   1.00
Cl671  Cl    0.29046   0.62809   0.92701   0.00000  Uiso   1.00
Cl672  Cl    0.17830   0.86790   0.76947   0.00000  Uiso   1.00
Cl673  Cl    0.11911   0.70075   0.74456   0.00000  Uiso   1.00
Cl674  Cl    0.38046   0.69969   0.92170   0.00000  Uiso   1.00
Cl675  Cl    0.37542   0.80417   0.74685   0.00000  Uiso   1.00
Cl676  Cl    0.12515   0.80285   0.92091   0.00000  Uiso   1.00
H677   H     0.49205   0.69705   0.76748   0.00000  Uiso   1.00
H678   H     0.00765   0.69645   0.89954   0.00000  Uiso   1.00
H679   H     0.00359   0.81026   0.76952   0.00000  Uiso   1.00
H680   H     0.49685   0.80906   0.89925   0.00000  Uiso   1.00
H681   H     0.24934   0.50199   0.74158   0.00000  Uiso   1.00
H682   H     0.32966   0.99807   0.85486   0.00000  Uiso   1.00
H683   H     0.25251   0.50057   0.92320   0.00000  Uiso   1.00
H684   H     0.15208   0.95085   0.78938   0.00000  Uiso   1.00
N685   N     0.25000   0.62624   0.83333   0.00000  Uiso   1.00
N686   N     0.25000   0.87376   0.83333   0.00000  Uiso   1.00
O687   O     0.18453   0.78974   0.83334   0.00000  Uiso   1.00
O688   O     0.47597   0.70063   0.90793   0.00000  Uiso   1.00
O689   O     0.47176   0.80507   0.76065   0.00000  Uiso   1.00
O690   O     0.02875   0.80389   0.90774   0.00000  Uiso   1.00
O691   O     0.23274   0.53179   0.74242   0.00000  Uiso   1.00
O692   O     0.32593   0.96757   0.87166   0.00000  Uiso   1.00
O693   O     0.26857   0.53074   0.92283   0.00000  Uiso   1.00
O694   O     0.17770   0.97226   0.79417   0.00000  Uiso   1.00
O695   O     0.31547   0.71026   0.83333   0.00000  Uiso   1.00
O696   O     0.31547   0.78974   0.83333   0.00000  Uiso   1.00
O697   O     0.18453   0.71026   0.83334   0.00000  Uiso   1.00
O698   O     0.25000   0.78973   0.76178   0.00000  Uiso   1.00
O699   O     0.25000   0.71027   0.90489   0.00000  Uiso   1.00
O700   O     0.25000   0.78973   0.90489   0.00000  Uiso   1.00
O701   O     0.25000   0.71027   0.76178   0.00000  Uiso   1.00
O702   O     0.02365   0.70149   0.75886   0.00000  Uiso   1.00
Zn703  Zn    0.25000   0.80307   0.83333   0.00000  Uiso   1.00
Zn704  Zn    0.25000   0.69693   0.83333   0.00000  Uiso   1.00
C705   C     0.66417   0.75005   0.83331   0.00000  Uiso   1.00
C706   C     0.71463   0.94764   0.81144   0.00000  Uiso   1.00
C707   C     0.74992   0.75001   0.73966   0.00000  Uiso   1.00
C708   C     0.75008   0.75000   0.92701   0.00000  Uiso   1.00
C709   C     0.75066   0.52620   0.83260   0.00000  Uiso   1.00
C710   C     0.75119   0.97293   0.83210   0.00000  Uiso   1.00
C711   C     0.74997   0.75001   0.68850   0.00000  Uiso   1.00
C712   C     0.75003   0.75000   0.97816   0.00000  Uiso   1.00
C713   C     0.54599   0.72689   0.79590   0.00000  Uiso   1.00
C714   C     0.95385   0.72654   0.87117   0.00000  Uiso   1.00
C715   C     0.95170   0.77820   0.79696   0.00000  Uiso   1.00
C716   C     0.83584   0.75009   0.83340   0.00000  Uiso   1.00
C717   C     0.54857   0.77752   0.87090   0.00000  Uiso   1.00
C718   C     0.59219   0.72757   0.79525   0.00000  Uiso   1.00
C719   C     0.90765   0.72721   0.87156   0.00000  Uiso   1.00
C720   C     0.90549   0.77577   0.79604   0.00000  Uiso   1.00
C721   C     0.59478   0.77509   0.87151   0.00000  Uiso   1.00
C722   C     0.61634   0.75051   0.83359   0.00000  Uiso   1.00
C723   C     0.88369   0.75064   0.83342   0.00000  Uiso   1.00
C724   C     0.52416   0.75249   0.83352   0.00000  Uiso   1.00
C725   C     0.97590   0.75262   0.83404   0.00000  Uiso   1.00
C726   C     0.73511   0.60142   0.79185   0.00000  Uiso   1.00
C727   C     0.78358   0.89790   0.85769   0.00000  Uiso   1.00
C728   C     0.76489   0.60113   0.87462   0.00000  Uiso   1.00
C729   C     0.71678   0.89805   0.80854   0.00000  Uiso   1.00
C730   C     0.73960   0.55242   0.78887   0.00000  Uiso   1.00
C731   C     0.78714   0.94683   0.85361   0.00000  Uiso   1.00
C732   C     0.76108   0.55201   0.87682   0.00000  Uiso   1.00
Cl733  Cl    0.70848   0.62855   0.74023   0.00000  Uiso   1.00
Cl734  Cl    0.82351   0.86858   0.89537   0.00000  Uiso   1.00
Cl735  Cl    0.79046   0.62809   0.92701   0.00000  Uiso   1.00
Cl736  Cl    0.67830   0.86790   0.76947   0.00000  Uiso   1.00
Cl737  Cl    0.61911   0.70075   0.74456   0.00000  Uiso   1.00
Cl738  Cl    0.88046   0.69969   0.92170   0.00000  Uiso   1.00
Cl739  Cl    0.87542   0.80417   0.74685   0.00000  Uiso   1.00
Cl740  Cl    0.62515   0.80285   0.92091   0.00000  Uiso   1.00
H741   H     0.99205   0.69705   0.76748   0.00000  Uiso   1.00
H742   H     0.50765   0.69645   0.89954   0.00000  Uiso   1.00
H743   H     0.50359   0.81026   0.76952   0.00000  Uiso   1.00
H744   H     0.99685   0.80906   0.89925   0.00000  Uiso   1.00
H745   H     0.74934   0.50199   0.74158   0.00000  Uiso   1.00
H746   H     0.82966   0.99807   0.85486   0.00000  Uiso   1.00
H747   H     0.75251   0.50057   0.92320   0.00000  Uiso   1.00
H748   H     0.65208   0.95085   0.78938   0.00000  Uiso   1.00
N749   N     0.75000   0.62624   0.83333   0.00000  Uiso   1.00
N750   N     0.75000   0.87376   0.83333   0.00000  Uiso   1.00
O751   O     0.68453   0.78974   0.83334   0.00000  Uiso   1.00
O752   O     0.97597   0.70063   0.90793   0.00000  Uiso   1.00
O753   O     0.97176   0.80507   0.76065   0.00000  Uiso   1.00
O754   O     0.52875   0.80389   0.90774   0.00000  Uiso   1.00
O755   O     0.73274   0.53179   0.74242   0.00000  Uiso   1.00
O756   O     0.82593   0.96757   0.87166   0.00000  Uiso   1.00
O757   O     0.76857   0.53074   0.92283   0.00000  Uiso   1.00
O758   O     0.67770   0.97226   0.79417   0.00000  Uiso   1.00
O759   O     0.81547   0.71026   0.83333   0.00000  Uiso   1.00
O760   O     0.81547   0.78974   0.83333   0.00000  Uiso   1.00
O761   O     0.68453   0.71026   0.83334   0.00000  Uiso   1.00
O762   O     0.75000   0.78973   0.76178   0.00000  Uiso   1.00
O763   O     0.75000   0.71027   0.90489   0.00000  Uiso   1.00
O764   O     0.75000   0.78973   0.90489   0.00000  Uiso   1.00
O765   O     0.75000   0.71027   0.76178   0.00000  Uiso   1.00
O766   O     0.52365   0.70149   0.75886   0.00000  Uiso   1.00
Zn767  Zn    0.75000   0.80307   0.83333   0.00000  Uiso   1.00
Zn768  Zn    0.75000   0.69693   0.83333   0.00000  Uiso   1.00
loop_
_geom_bond_atom_site_label_1
_geom_bond_atom_site_label_2
_geom_bond_distance
_geom_bond_site_symmetry_2
_ccdc_geom_bond_type
C1     O57     1.294   .     A
C1     C18     1.434   .     S
C1     O47     1.291   .     A
C2     C6      1.414   .     A
C2     C25     1.426   .     A
C2     O54     1.383   .     S
C3     C7      1.363   .     S
C3     O61     1.283   .     A
C3     O58     1.282   .     A
C4     C8      1.363   .     S
C4     O60     1.282   .     A
C4     O59     1.283   .     A
C5     C28     1.419   .     A
C5     C26     1.419   .     A
C5     C134    1.528   1_545 S
C6     C27     1.422   .     A
C6     C133    1.528   .     S
C7     C520    1.163   1_554 S
C8     C263    1.163   .     S
C9     C14     1.385   .     A
C9     O62     1.385   .     S
C9     C20     1.416   .     A
C10    O48     1.385   .     S
C10    C21     1.416   .     A
C10    C15     1.385   .     A
C11    O49     1.385   .     S
C11    C16     1.386   .     A
C11    C21     1.416   .     A
C12    O56     1.291   .     A
C12    C19     1.434   .     S
C12    O55     1.294   .     A
C13    C17     1.386   .     A
C13    C20     1.416   .     A
C13    O50     1.385   .     S
C14    C18     1.401   .     A
C14    Cl33    1.766   .     S
C15    Cl34    1.766   .     S
C15    C19     1.401   .     A
C16    Cl35    1.771   .     S
C16    C19     1.403   .     A
C17    Cl36    1.770   .     S
C17    C18     1.403   .     A
C20    C85     1.447   1_455 S
C21    C84     1.447   .     S
C22    Cl29    1.755   .     S
C22    C26     1.414   .     A
C22    N45     1.379   .     A
C23    Cl30    1.758   .     S
C23    N46     1.371   .     A
C23    C27     1.411   .     A
C24    C28     1.414   .     A
C24    N45     1.379   .     A
C24    Cl31    1.755   .     S
C25    N46     1.372   .     A
C25    Cl32    1.761   .     S
C26    O51     1.382   .     S
C27    O52     1.381   .     S
C28    O53     1.382   .     S
H37    O126    0.988   .     S
H38    O112    0.988   1_455 S
H39    O113    0.988   1_455 S
H40    O114    0.988   .     S
H41    O51     0.990   .     S
H42    O52     0.990   .     S
H43    O53     0.990   .     S
H44    O54     0.989   .     S
N45    Zn64    2.027   .     S
N46    Zn63    2.027   .     S
O47    Zn63    1.999   .     S
O48    H102    0.988   .     S
O49    H103    0.988   .     S
O50    H104    0.988   1_455 S
O55    Zn64    1.999   .     S
O56    Zn63    2.000   .     S
O57    Zn64    2.000   .     S
O58    Zn63    1.944   .     S
O59    Zn64    1.944   .     S
O60    Zn63    1.944   .     S
O61    Zn64    1.944   .     S
O62    H101    0.988   1_455 S
C65    O121    1.294   .     A
C65    C82     1.434   .     S
C65    O111    1.291   .     A
C66    C70     1.414   .     A
C66    C89     1.426   .     A
C66    O118    1.383   .     S
C67    C71     1.363   .     S
C67    O125    1.283   .     A
C67    O122    1.282   .     A
C68    C72     1.363   .     S
C68    O124    1.282   .     A
C68    O123    1.283   .     A
C69    C92     1.419   .     A
C69    C90     1.419   .     A
C69    C198    1.528   1_545 S
C70    C91     1.422   .     A
C70    C197    1.528   .     S
C71    C584    1.163   1_554 S
C72    C327    1.163   .     S
C73    C78     1.385   .     A
C73    O126    1.385   .     S
C73    C84     1.416   .     A
C74    O112    1.385   .     S
C74    C85     1.416   .     A
C74    C79     1.385   .     A
C75    O113    1.385   .     S
C75    C80     1.386   .     A
C75    C85     1.416   .     A
C76    O120    1.291   .     A
C76    C83     1.434   .     S
C76    O119    1.294   .     A
C77    C81     1.386   .     A
C77    C84     1.416   .     A
C77    O114    1.385   .     S
C78    C82     1.401   .     A
C78    Cl97    1.766   .     S
C79    Cl98    1.766   .     S
C79    C83     1.401   .     A
C80    Cl99    1.771   .     S
C80    C83     1.403   .     A
C81    Cl100   1.770   .     S
C81    C82     1.403   .     A
C85    C20     1.447   1_655 S
C86    Cl93    1.755   .     S
C86    C90     1.414   .     A
C86    N109    1.379   .     A
C87    Cl94    1.758   .     S
C87    N110    1.371   .     A
C87    C91     1.411   .     A
C88    C92     1.414   .     A
C88    N109    1.379   .     A
C88    Cl95    1.755   .     S
C89    N110    1.372   .     A
C89    Cl96    1.761   .     S
C90    O115    1.382   .     S
C91    O116    1.381   .     S
C92    O117    1.382   .     S
H101   O62     0.988   1_655 S
H104   O50     0.988   1_655 S
H105   O115    0.990   .     S
H106   O116    0.990   .     S
H107   O117    0.990   .     S
H108   O118    0.989   .     S
N109   Zn128   2.027   .     S
N110   Zn127   2.027   .     S
O111   Zn127   1.999   .     S
O112   H38     0.988   1_655 S
O113   H39     0.988   1_655 S
O119   Zn128   1.999   .     S
O120   Zn127   2.000   .     S
O121   Zn128   2.000   .     S
O122   Zn127   1.944   .     S
O123   Zn128   1.944   .     S
O124   Zn127   1.944   .     S
O125   Zn128   1.944   .     S
C129   O185    1.294   .     A
C129   C146    1.434   .     S
C129   O175    1.291   .     A
C130   C134    1.414   .     A
C130   C153    1.426   .     A
C130   O182    1.383   .     S
C131   C135    1.363   .     S
C131   O189    1.283   .     A
C131   O186    1.282   .     A
C132   C136    1.363   .     S
C132   O188    1.282   .     A
C132   O187    1.283   .     A
C133   C156    1.419   .     A
C133   C154    1.419   .     A
C134   C155    1.422   .     A
C134   C5      1.528   1_565 S
C135   C648    1.163   1_554 S
C136   C391    1.163   .     S
C137   C142    1.385   .     A
C137   O190    1.385   .     S
C137   C148    1.416   .     A
C138   O176    1.385   .     S
C138   C149    1.416   .     A
C138   C143    1.385   .     A
C139   O177    1.385   .     S
C139   C144    1.386   .     A
C139   C149    1.416   .     A
C140   O184    1.291   .     A
C140   C147    1.434   .     S
C140   O183    1.294   .     A
C141   C145    1.386   .     A
C141   C148    1.416   .     A
C141   O178    1.385   .     S
C142   C146    1.401   .     A
C142   Cl161   1.766   .     S
C143   Cl162   1.766   .     S
C143   C147    1.401   .     A
C144   Cl163   1.771   .     S
C144   C147    1.403   .     A
C145   Cl164   1.770   .     S
C145   C146    1.403   .     A
C148   C213    1.447   1_455 S
C149   C212    1.447   .     S
C150   Cl157   1.755   .     S
C150   C154    1.414   .     A
C150   N173    1.379   .     A
C151   Cl158   1.758   .     S
C151   N174    1.371   .     A
C151   C155    1.411   .     A
C152   C156    1.414   .     A
C152   N173    1.379   .     A
C152   Cl159   1.755   .     S
C153   N174    1.372   .     A
C153   Cl160   1.761   .     S
C154   O179    1.382   .     S
C155   O180    1.381   .     S
C156   O181    1.382   .     S
H165   O254    0.988   .     S
H166   O240    0.988   1_455 S
H167   O241    0.988   1_455 S
H168   O242    0.988   .     S
H169   O179    0.990   .     S
H170   O180    0.990   .     S
H171   O181    0.990   .     S
H172   O182    0.989   .     S
N173   Zn192   2.027   .     S
N174   Zn191   2.027   .     S
O175   Zn191   1.999   .     S
O176   H230    0.988   .     S
O177   H231    0.988   .     S
O178   H232    0.988   1_455 S
O183   Zn192   1.999   .     S
O184   Zn191   2.000   .     S
O185   Zn192   2.000   .     S
O186   Zn191   1.944   .     S
O187   Zn192   1.944   .     S
O188   Zn191   1.944   .     S
O189   Zn192   1.944   .     S
O190   H229    0.988   1_455 S
C193   O249    1.294   .     A
C193   C210    1.434   .     S
C193   O239    1.291   .     A
C194   C198    1.414   .     A
C194   C217    1.426   .     A
C194   O246    1.383   .     S
C195   C199    1.363   .     S
C195   O253    1.283   .     A
C195   O250    1.282   .     A
C196   C200    1.363   .     S
C196   O252    1.282   .     A
C196   O251    1.283   .     A
C197   C220    1.419   .     A
C197   C218    1.419   .     A
C198   C219    1.422   .     A
C198   C69     1.528   1_565 S
C199   C712    1.163   1_554 S
C200   C455    1.163   .     S
C201   C206    1.385   .     A
C201   O254    1.385   .     S
C201   C212    1.416   .     A
C202   O240    1.385   .     S
C202   C213    1.416   .     A
C202   C207    1.385   .     A
C203   O241    1.385   .     S
C203   C208    1.386   .     A
C203   C213    1.416   .     A
C204   O248    1.291   .     A
C204   C211    1.434   .     S
C204   O247    1.294   .     A
C205   C209    1.386   .     A
C205   C212    1.416   .     A
C205   O242    1.385   .     S
C206   C210    1.401   .     A
C206   Cl225   1.766   .     S
C207   Cl226   1.766   .     S
C207   C211    1.401   .     A
C208   Cl227   1.771   .     S
C208   C211    1.403   .     A
C209   Cl228   1.770   .     S
C209   C210    1.403   .     A
C213   C148    1.447   1_655 S
C214   Cl221   1.755   .     S
C214   C218    1.414   .     A
C214   N237    1.379   .     A
C215   Cl222   1.758   .     S
C215   N238    1.371   .     A
C215   C219    1.411   .     A
C216   C220    1.414   .     A
C216   N237    1.379   .     A
C216   Cl223   1.755   .     S
C217   N238    1.372   .     A
C217   Cl224   1.761   .     S
C218   O243    1.382   .     S
C219   O244    1.381   .     S
C220   O245    1.382   .     S
H229   O190    0.988   1_655 S
H232   O178    0.988   1_655 S
H233   O243    0.990   .     S
H234   O244    0.990   .     S
H235   O245    0.990   .     S
H236   O246    0.989   .     S
N237   Zn256   2.027   .     S
N238   Zn255   2.027   .     S
O239   Zn255   1.999   .     S
O240   H166    0.988   1_655 S
O241   H167    0.988   1_655 S
O247   Zn256   1.999   .     S
O248   Zn255   2.000   .     S
O249   Zn256   2.000   .     S
O250   Zn255   1.944   .     S
O251   Zn256   1.944   .     S
O252   Zn255   1.944   .     S
O253   Zn256   1.944   .     S
C257   O313    1.294   .     A
C257   C274    1.434   .     S
C257   O303    1.291   .     A
C258   C262    1.414   .     A
C258   C281    1.426   .     A
C258   O310    1.383   .     S
C259   C263    1.363   .     S
C259   O317    1.283   .     A
C259   O314    1.282   .     A
C260   C264    1.363   .     S
C260   O316    1.282   .     A
C260   O315    1.283   .     A
C261   C284    1.419   .     A
C261   C282    1.419   .     A
C261   C390    1.528   1_545 S
C262   C283    1.422   .     A
C262   C389    1.528   .     S
C264   C519    1.163   .     S
C265   C270    1.385   .     A
C265   O318    1.385   .     S
C265   C276    1.416   .     A
C266   O304    1.385   .     S
C266   C277    1.416   .     A
C266   C271    1.385   .     A
C267   O305    1.385   .     S
C267   C272    1.386   .     A
C267   C277    1.416   .     A
C268   O312    1.291   .     A
C268   C275    1.434   .     S
C268   O311    1.294   .     A
C269   C273    1.386   .     A
C269   C276    1.416   .     A
C269   O306    1.385   .     S
C270   C274    1.401   .     A
C270   Cl289   1.766   .     S
C271   Cl290   1.766   .     S
C271   C275    1.401   .     A
C272   Cl291   1.771   .     S
C272   C275    1.403   .     A
C273   Cl292   1.770   .     S
C273   C274    1.403   .     A
C276   C341    1.447   1_455 S
C277   C340    1.447   .     S
C278   Cl285   1.755   .     S
C278   C282    1.414   .     A
C278   N301    1.379   .     A
C279   Cl286   1.758   .     S
C279   N302    1.371   .     A
C279   C283    1.411   .     A
C280   C284    1.414   .     A
C280   N301    1.379   .     A
C280   Cl287   1.755   .     S
C281   N302    1.372   .     A
C281   Cl288   1.761   .     S
C282   O307    1.382   .     S
C283   O308    1.381   .     S
C284   O309    1.382   .     S
H293   O382    0.988   .     S
H294   O368    0.988   1_455 S
H295   O369    0.988   1_455 S
H296   O370    0.988   .     S
H297   O307    0.990   .     S
H298   O308    0.990   .     S
H299   O309    0.990   .     S
H300   O310    0.989   .     S
N301   Zn320   2.027   .     S
N302   Zn319   2.027   .     S
O303   Zn319   1.999   .     S
O304   H358    0.988   .     S
O305   H359    0.988   .     S
O306   H360    0.988   1_455 S
O311   Zn320   1.999   .     S
O312   Zn319   2.000   .     S
O313   Zn320   2.000   .     S
O314   Zn319   1.944   .     S
O315   Zn320   1.944   .     S
O316   Zn319   1.944   .     S
O317   Zn320   1.944   .     S
O318   H357    0.988   1_455 S
C321   O377    1.294   .     A
C321   C338    1.434   .     S
C321   O367    1.291   .     A
C322   C326    1.414   .     A
C322   C345    1.426   .     A
C322   O374    1.383   .     S
C323   C327    1.363   .     S
C323   O381    1.283   .     A
C323   O378    1.282   .     A
C324   C328    1.363   .     S
C324   O380    1.282   .     A
C324   O379    1.283   .     A
C325   C348    1.419   .     A
C325   C346    1.419   .     A
C325   C454    1.528   1_545 S
C326   C347    1.422   .     A
C326   C453    1.528   .     S
C328   C583    1.163   .     S
C329   C334    1.385   .     A
C329   O382    1.385   .     S
C329   C340    1.416   .     A
C330   O368    1.385   .     S
C330   C341    1.416   .     A
C330   C335    1.385   .     A
C331   O369    1.385   .     S
C331   C336    1.386   .     A
C331   C341    1.416   .     A
C332   O376    1.291   .     A
C332   C339    1.434   .     S
C332   O375    1.294   .     A
C333   C337    1.386   .     A
C333   C340    1.416   .     A
C333   O370    1.385   .     S
C334   C338    1.401   .     A
C334   Cl353   1.766   .     S
C335   Cl354   1.766   .     S
C335   C339    1.401   .     A
C336   Cl355   1.771   .     S
C336   C339    1.403   .     A
C337   Cl356   1.770   .     S
C337   C338    1.403   .     A
C341   C276    1.447   1_655 S
C342   Cl349   1.755   .     S
C342   C346    1.414   .     A
C342   N365    1.379   .     A
C343   Cl350   1.758   .     S
C343   N366    1.371   .     A
C343   C347    1.411   .     A
C344   C348    1.414   .     A
C344   N365    1.379   .     A
C344   Cl351   1.755   .     S
C345   N366    1.372   .     A
C345   Cl352   1.761   .     S
C346   O371    1.382   .     S
C347   O372    1.381   .     S
C348   O373    1.382   .     S
H357   O318    0.988   1_655 S
H360   O306    0.988   1_655 S
H361   O371    0.990   .     S
H362   O372    0.990   .     S
H363   O373    0.990   .     S
H364   O374    0.989   .     S
N365   Zn384   2.027   .     S
N366   Zn383   2.027   .     S
O367   Zn383   1.999   .     S
O368   H294    0.988   1_655 S
O369   H295    0.988   1_655 S
O375   Zn384   1.999   .     S
O376   Zn383   2.000   .     S
O377   Zn384   2.000   .     S
O378   Zn383   1.944   .     S
O379   Zn384   1.944   .     S
O380   Zn383   1.944   .     S
O381   Zn384   1.944   .     S
C385   O441    1.294   .     A
C385   C402    1.434   .     S
C385   O431    1.291   .     A
C386   C390    1.414   .     A
C386   C409    1.426   .     A
C386   O438    1.383   .     S
C387   C391    1.363   .     S
C387   O445    1.283   .     A
C387   O442    1.282   .     A
C388   C392    1.363   .     S
C388   O444    1.282   .     A
C388   O443    1.283   .     A
C389   C412    1.419   .     A
C389   C410    1.419   .     A
C390   C411    1.422   .     A
C390   C261    1.528   1_565 S
C392   C647    1.163   .     S
C393   C398    1.385   .     A
C393   O446    1.385   .     S
C393   C404    1.416   .     A
C394   O432    1.385   .     S
C394   C405    1.416   .     A
C394   C399    1.385   .     A
C395   O433    1.385   .     S
C395   C400    1.386   .     A
C395   C405    1.416   .     A
C396   O440    1.291   .     A
C396   C403    1.434   .     S
C396   O439    1.294   .     A
C397   C401    1.386   .     A
C397   C404    1.416   .     A
C397   O434    1.385   .     S
C398   C402    1.401   .     A
C398   Cl417   1.766   .     S
C399   Cl418   1.766   .     S
C399   C403    1.401   .     A
C400   Cl419   1.771   .     S
C400   C403    1.403   .     A
C401   Cl420   1.770   .     S
C401   C402    1.403   .     A
C404   C469    1.447   1_455 S
C405   C468    1.447   .     S
C406   Cl413   1.755   .     S
C406   C410    1.414   .     A
C406   N429    1.379   .     A
C407   Cl414   1.758   .     S
C407   N430    1.371   .     A
C407   C411    1.411   .     A
C408   C412    1.414   .     A
C408   N429    1.379   .     A
C408   Cl415   1.755   .     S
C409   N430    1.372   .     A
C409   Cl416   1.761   .     S
C410   O435    1.382   .     S
C411   O436    1.381   .     S
C412   O437    1.382   .     S
H421   O510    0.988   .     S
H422   O496    0.988   1_455 S
H423   O497    0.988   1_455 S
H424   O498    0.988   .     S
H425   O435    0.990   .     S
H426   O436    0.990   .     S
H427   O437    0.990   .     S
H428   O438    0.989   .     S
N429   Zn448   2.027   .     S
N430   Zn447   2.027   .     S
O431   Zn447   1.999   .     S
O432   H486    0.988   .     S
O433   H487    0.988   .     S
O434   H488    0.988   1_455 S
O439   Zn448   1.999   .     S
O440   Zn447   2.000   .     S
O441   Zn448   2.000   .     S
O442   Zn447   1.944   .     S
O443   Zn448   1.944   .     S
O444   Zn447   1.944   .     S
O445   Zn448   1.944   .     S
O446   H485    0.988   1_455 S
C449   O505    1.294   .     A
C449   C466    1.434   .     S
C449   O495    1.291   .     A
C450   C454    1.414   .     A
C450   C473    1.426   .     A
C450   O502    1.383   .     S
C451   C455    1.363   .     S
C451   O509    1.283   .     A
C451   O506    1.282   .     A
C452   C456    1.363   .     S
C452   O508    1.282   .     A
C452   O507    1.283   .     A
C453   C476    1.419   .     A
C453   C474    1.419   .     A
C454   C475    1.422   .     A
C454   C325    1.528   1_565 S
C456   C711    1.163   .     S
C457   C462    1.385   .     A
C457   O510    1.385   .     S
C457   C468    1.416   .     A
C458   O496    1.385   .     S
C458   C469    1.416   .     A
C458   C463    1.385   .     A
C459   O497    1.385   .     S
C459   C464    1.386   .     A
C459   C469    1.416   .     A
C460   O504    1.291   .     A
C460   C467    1.434   .     S
C460   O503    1.294   .     A
C461   C465    1.386   .     A
C461   C468    1.416   .     A
C461   O498    1.385   .     S
C462   C466    1.401   .     A
C462   Cl481   1.766   .     S
C463   Cl482   1.766   .     S
C463   C467    1.401   .     A
C464   Cl483   1.771   .     S
C464   C467    1.403   .     A
C465   Cl484   1.770   .     S
C465   C466    1.403   .     A
C469   C404    1.447   1_655 S
C470   Cl477   1.755   .     S
C470   C474    1.414   .     A
C470   N493    1.379   .     A
C471   Cl478   1.758   .     S
C471   N494    1.371   .     A
C471   C475    1.411   .     A
C472   C476    1.414   .     A
C472   N493    1.379   .     A
C472   Cl479   1.755   .     S
C473   N494    1.372   .     A
C473   Cl480   1.761   .     S
C474   O499    1.382   .     S
C475   O500    1.381   .     S
C476   O501    1.382   .     S
H485   O446    0.988   1_655 S
H488   O434    0.988   1_655 S
H489   O499    0.990   .     S
H490   O500    0.990   .     S
H491   O501    0.990   .     S
H492   O502    0.989   .     S
N493   Zn512   2.027   .     S
N494   Zn511   2.027   .     S
O495   Zn511   1.999   .     S
O496   H422    0.988   1_655 S
O497   H423    0.988   1_655 S
O503   Zn512   1.999   .     S
O504   Zn511   2.000   .     S
O505   Zn512   2.000   .     S
O506   Zn511   1.944   .     S
O507   Zn512   1.944   .     S
O508   Zn511   1.944   .     S
O509   Zn512   1.944   .     S
C513   O569    1.294   .     A
C513   C530    1.434   .     S
C513   O559    1.291   .     A
C514   C518    1.414   .     A
C514   C537    1.426   .     A
C514   O566    1.383   .     S
C515   C519    1.363   .     S
C515   O573    1.283   .     A
C515   O570    1.282   .     A
C516   C520    1.363   .     S
C516   O572    1.282   .     A
C516   O571    1.283   .     A
C517   C540    1.419   .     A
C517   C538    1.419   .     A
C517   C646    1.528   1_545 S
C518   C539    1.422   .     A
C518   C645    1.528   .     S
C520   C7      1.163   1_556 S
C521   C526    1.385   .     A
C521   O574    1.385   .     S
C521   C532    1.416   .     A
C522   O560    1.385   .     S
C522   C533    1.416   .     A
C522   C527    1.385   .     A
C523   O561    1.385   .     S
C523   C528    1.386   .     A
C523   C533    1.416   .     A
C524   O568    1.291   .     A
C524   C531    1.434   .     S
C524   O567    1.294   .     A
C525   C529    1.386   .     A
C525   C532    1.416   .     A
C525   O562    1.385   .     S
C526   C530    1.401   .     A
C526   Cl545   1.766   .     S
C527   Cl546   1.766   .     S
C527   C531    1.401   .     A
C528   Cl547   1.771   .     S
C528   C531    1.403   .     A
C529   Cl548   1.770   .     S
C529   C530    1.403   .     A
C532   C597    1.447   1_455 S
C533   C596    1.447   .     S
C534   Cl541   1.755   .     S
C534   C538    1.414   .     A
C534   N557    1.379   .     A
C535   Cl542   1.758   .     S
C535   N558    1.371   .     A
C535   C539    1.411   .     A
C536   C540    1.414   .     A
C536   N557    1.379   .     A
C536   Cl543   1.755   .     S
C537   N558    1.372   .     A
C537   Cl544   1.761   .     S
C538   O563    1.382   .     S
C539   O564    1.381   .     S
C540   O565    1.382   .     S
H549   O638    0.988   .     S
H550   O624    0.988   1_455 S
H551   O625    0.988   1_455 S
H552   O626    0.988   .     S
H553   O563    0.990   .     S
H554   O564    0.990   .     S
H555   O565    0.990   .     S
H556   O566    0.989   .     S
N557   Zn576   2.027   .     S
N558   Zn575   2.027   .     S
O559   Zn575   1.999   .     S
O560   H614    0.988   .     S
O561   H615    0.988   .     S
O562   H616    0.988   1_455 S
O567   Zn576   1.999   .     S
O568   Zn575   2.000   .     S
O569   Zn576   2.000   .     S
O570   Zn575   1.944   .     S
O571   Zn576   1.944   .     S
O572   Zn575   1.944   .     S
O573   Zn576   1.944   .     S
O574   H613    0.988   1_455 S
C577   O633    1.294   .     A
C577   C594    1.434   .     S
C577   O623    1.291   .     A
C578   C582    1.414   .     A
C578   C601    1.426   .     A
C578   O630    1.383   .     S
C579   C583    1.363   .     S
C579   O637    1.283   .     A
C579   O634    1.282   .     A
C580   C584    1.363   .     S
C580   O636    1.282   .     A
C580   O635    1.283   .     A
C581   C604    1.419   .     A
C581   C602    1.419   .     A
C581   C710    1.528   1_545 S
C582   C603    1.422   .     A
C582   C709    1.528   .     S
C584   C71     1.163   1_556 S
C585   C590    1.385   .     A
C585   O638    1.385   .     S
C585   C596    1.416   .     A
C586   O624    1.385   .     S
C586   C597    1.416   .     A
C586   C591    1.385   .     A
C587   O625    1.385   .     S
C587   C592    1.386   .     A
C587   C597    1.416   .     A
C588   O632    1.291   .     A
C588   C595    1.434   .     S
C588   O631    1.294   .     A
C589   C593    1.386   .     A
C589   C596    1.416   .     A
C589   O626    1.385   .     S
C590   C594    1.401   .     A
C590   Cl609   1.766   .     S
C591   Cl610   1.766   .     S
C591   C595    1.401   .     A
C592   Cl611   1.771   .     S
C592   C595    1.403   .     A
C593   Cl612   1.770   .     S
C593   C594    1.403   .     A
C597   C532    1.447   1_655 S
C598   Cl605   1.755   .     S
C598   C602    1.414   .     A
C598   N621    1.379   .     A
C599   Cl606   1.758   .     S
C599   N622    1.371   .     A
C599   C603    1.411   .     A
C600   C604    1.414   .     A
C600   N621    1.379   .     A
C600   Cl607   1.755   .     S
C601   N622    1.372   .     A
C601   Cl608   1.761   .     S
C602   O627    1.382   .     S
C603   O628    1.381   .     S
C604   O629    1.382   .     S
H613   O574    0.988   1_655 S
H616   O562    0.988   1_655 S
H617   O627    0.990   .     S
H618   O628    0.990   .     S
H619   O629    0.990   .     S
H620   O630    0.989   .     S
N621   Zn640   2.027   .     S
N622   Zn639   2.027   .     S
O623   Zn639   1.999   .     S
O624   H550    0.988   1_655 S
O625   H551    0.988   1_655 S
O631   Zn640   1.999   .     S
O632   Zn639   2.000   .     S
O633   Zn640   2.000   .     S
O634   Zn639   1.944   .     S
O635   Zn640   1.944   .     S
O636   Zn639   1.944   .     S
O637   Zn640   1.944   .     S
C641   O697    1.294   .     A
C641   C658    1.434   .     S
C641   O687    1.291   .     A
C642   C646    1.414   .     A
C642   C665    1.426   .     A
C642   O694    1.383   .     S
C643   C647    1.363   .     S
C643   O701    1.283   .     A
C643   O698    1.282   .     A
C644   C648    1.363   .     S
C644   O700    1.282   .     A
C644   O699    1.283   .     A
C645   C668    1.419   .     A
C645   C666    1.419   .     A
C646   C667    1.422   .     A
C646   C517    1.528   1_565 S
C648   C135    1.163   1_556 S
C649   C654    1.385   .     A
C649   O702    1.385   .     S
C649   C660    1.416   .     A
C650   O688    1.385   .     S
C650   C661    1.416   .     A
C650   C655    1.385   .     A
C651   O689    1.385   .     S
C651   C656    1.386   .     A
C651   C661    1.416   .     A
C652   O696    1.291   .     A
C652   C659    1.434   .     S
C652   O695    1.294   .     A
C653   C657    1.386   .     A
C653   C660    1.416   .     A
C653   O690    1.385   .     S
C654   C658    1.401   .     A
C654   Cl673   1.766   .     S
C655   Cl674   1.766   .     S
C655   C659    1.401   .     A
C656   Cl675   1.771   .     S
C656   C659    1.403   .     A
C657   Cl676   1.770   .     S
C657   C658    1.403   .     A
C660   C725    1.447   1_455 S
C661   C724    1.447   .     S
C662   Cl669   1.755   .     S
C662   C666    1.414   .     A
C662   N685    1.379   .     A
C663   Cl670   1.758   .     S
C663   N686    1.371   .     A
C663   C667    1.411   .     A
C664   C668    1.414   .     A
C664   N685    1.379   .     A
C664   Cl671   1.755   .     S
C665   N686    1.372   .     A
C665   Cl672   1.761   .     S
C666   O691    1.382   .     S
C667   O692    1.381   .     S
C668   O693    1.382   .     S
H677   O766    0.988   .     S
H678   O752    0.988   1_455 S
H679   O753    0.988   1_455 S
H680   O754    0.988   .     S
H681   O691    0.990   .     S
H682   O692    0.990   .     S
H683   O693    0.990   .     S
H684   O694    0.989   .     S
N685   Zn704   2.027   .     S
N686   Zn703   2.027   .     S
O687   Zn703   1.999   .     S
O688   H742    0.988   .     S
O689   H743    0.988   .     S
O690   H744    0.988   1_455 S
O695   Zn704   1.999   .     S
O696   Zn703   2.000   .     S
O697   Zn704   2.000   .     S
O698   Zn703   1.944   .     S
O699   Zn704   1.944   .     S
O700   Zn703   1.944   .     S
O701   Zn704   1.944   .     S
O702   H741    0.988   1_455 S
C705   O761    1.294   .     A
C705   C722    1.434   .     S
C705   O751    1.291   .     A
C706   C710    1.414   .     A
C706   C729    1.426   .     A
C706   O758    1.383   .     S
C707   C711    1.363   .     S
C707   O765    1.283   .     A
C707   O762    1.282   .     A
C708   C712    1.363   .     S
C708   O764    1.282   .     A
C708   O763    1.283   .     A
C709   C732    1.419   .     A
C709   C730    1.419   .     A
C710   C731    1.422   .     A
C710   C581    1.528   1_565 S
C712   C199    1.163   1_556 S
C713   C718    1.385   .     A
C713   O766    1.385   .     S
C713   C724    1.416   .     A
C714   O752    1.385   .     S
C714   C725    1.416   .     A
C714   C719    1.385   .     A
C715   O753    1.385   .     S
C715   C720    1.386   .     A
C715   C725    1.416   .     A
C716   O760    1.291   .     A
C716   C723    1.434   .     S
C716   O759    1.294   .     A
C717   C721    1.386   .     A
C717   C724    1.416   .     A
C717   O754    1.385   .     S
C718   C722    1.401   .     A
C718   Cl737   1.766   .     S
C719   Cl738   1.766   .     S
C719   C723    1.401   .     A
C720   Cl739   1.771   .     S
C720   C723    1.403   .     A
C721   Cl740   1.770   .     S
C721   C722    1.403   .     A
C725   C660    1.447   1_655 S
C726   Cl733   1.755   .     S
C726   C730    1.414   .     A
C726   N749    1.379   .     A
C727   Cl734   1.758   .     S
C727   N750    1.371   .     A
C727   C731    1.411   .     A
C728   C732    1.414   .     A
C728   N749    1.379   .     A
C728   Cl735   1.755   .     S
C729   N750    1.372   .     A
C729   Cl736   1.761   .     S
C730   O755    1.382   .     S
C731   O756    1.381   .     S
C732   O757    1.382   .     S
H741   O702    0.988   1_655 S
H744   O690    0.988   1_655 S
H745   O755    0.990   .     S
H746   O756    0.990   .     S
H747   O757    0.990   .     S
H748   O758    0.989   .     S
N749   Zn768   2.027   .     S
N750   Zn767   2.027   .     S
O751   Zn767   1.999   .     S
O752   H678    0.988   1_655 S
O753   H679    0.988   1_655 S
O759   Zn768   1.999   .     S
O760   Zn767   2.000   .     S
O761   Zn768   2.000   .     S
O762   Zn767   1.944   .     S
O763   Zn768   1.944   .     S
O764   Zn767   1.944   .     S
O765   Zn768   1.944   .     S
