data_str_m3_o1_o16_pcu_sym.59
_audit_creation_date              2020-01-03
_audit_creation_method            'Materials Studio'
_symmetry_space_group_name_H-M    'P1'
_symmetry_Int_Tables_number       1
_symmetry_cell_setting            triclinic
loop_
_symmetry_equiv_pos_as_xyz
  x,y,z
_cell_length_a                    29.8061
_cell_length_b                    31.7875
_cell_length_c                    26.3289
_cell_angle_alpha                 90.7680
_cell_angle_beta                  71.4843
_cell_angle_gamma                 89.8590
loop_
_atom_site_label
_atom_site_type_symbol
_atom_site_fract_x
_atom_site_fract_y
_atom_site_fract_z
_atom_site_U_iso_or_equiv
_atom_site_adp_type
_atom_site_occupancy
C1     C     0.16668   0.24644   0.25003   0.00000  Uiso   1.00
C2     C     0.12578   0.16001   0.40934   0.00000  Uiso   1.00
C3     C     0.19748   0.31180   0.20692   0.00000  Uiso   1.00
C4     C     0.14091   0.16384   0.35139   0.00000  Uiso   1.00
C5     C     0.19731   0.02162   0.20798   0.00000  Uiso   1.00
C6     C     0.16586   0.04286   0.25120   0.00000  Uiso   1.00
C7     C     0.13403   0.02232   0.29446   0.00000  Uiso   1.00
C8     C     0.13576   0.31198   0.29517   0.00000  Uiso   1.00
C9     C     0.16673   0.29071   0.25064   0.00000  Uiso   1.00
C10    C     0.31432   0.13114   0.23489   0.00000  Uiso   1.00
C11    C     0.02900   0.13200   0.23414   0.00000  Uiso   1.00
C12    C     0.14689   0.15060   0.49038   0.00000  Uiso   1.00
C13    C     0.01910   0.20096   0.26751   0.00000  Uiso   1.00
C14    C     0.30472   0.20137   0.26725   0.00000  Uiso   1.00
C15    C     0.16649   0.08692   0.25043   0.00000  Uiso   1.00
C16    C     0.19242   0.16317   0.14836   0.00000  Uiso   1.00
C17    C     0.26565   0.13737   0.00401   0.00000  Uiso   1.00
C18    C     0.20661   0.15148   0.09120   0.00000  Uiso   1.00
C19    C     0.08439   0.18125   0.43904   0.00000  Uiso   1.00
C20    C     0.07557   0.18925   0.49313   0.00000  Uiso   1.00
C21    C     0.10610   0.17402   0.01890   0.00000  Uiso   1.00
C22    C     0.31777   0.13880   0.09528   0.00000  Uiso   1.00
C23    C     0.15671   0.14298   0.43517   0.00000  Uiso   1.00
C24    C     0.05614   0.05436   0.33240   0.00000  Uiso   1.00
C25    C     0.13207   0.27999   0.37867   0.00000  Uiso   1.00
C26    C     0.32462   0.06146   0.18950   0.00000  Uiso   1.00
C27    C     0.29046   0.27580   0.26108   0.00000  Uiso   1.00
C28    C     0.33172   0.08968   0.46958   0.00000  Uiso   1.00
C29    C     0.13428   0.07769   0.11669   0.00000  Uiso   1.00
C30    C     0.22858   0.28986   0.16049   0.00000  Uiso   1.00
C31    C     0.18174   0.14046   0.01391   0.00000  Uiso   1.00
C32    C     0.22865   0.13228   0.48160   0.00000  Uiso   1.00
C33    C     0.23626   0.11944   0.42843   0.00000  Uiso   1.00
C34    C     0.19920   0.12143   0.40698   0.00000  Uiso   1.00
C35    C     0.17121   0.13977   0.06893   0.00000  Uiso   1.00
C36    C     0.25426   0.15143   0.05787   0.00000  Uiso   1.00
H37    H     0.22067   0.03884   0.17471   0.00000  Uiso   1.00
H38    H     0.01411   0.12664   0.06105   0.00000  Uiso   1.00
H39    H     0.29555   0.11226   0.11603   0.00000  Uiso   1.00
H40    H     0.33301   0.15485   0.12365   0.00000  Uiso   1.00
H41    H     0.10111   0.03694   0.37545   0.00000  Uiso   1.00
H42    H     0.04558   0.08727   0.34547   0.00000  Uiso   1.00
H43    H     0.05622   0.05036   0.29034   0.00000  Uiso   1.00
H44    H     0.02947   0.03277   0.35804   0.00000  Uiso   1.00
H45    H     0.07430   0.30154   0.35845   0.00000  Uiso   1.00
H46    H     0.14421   0.30943   0.39326   0.00000  Uiso   1.00
H47    H     0.16304   0.25911   0.36008   0.00000  Uiso   1.00
H48    H     0.05130   0.10444   0.22259   0.00000  Uiso   1.00
H49    H     0.10768   0.26385   0.41360   0.00000  Uiso   1.00
H50    H     0.27533   0.07855   0.26161   0.00000  Uiso   1.00
H51    H     0.30234   0.03830   0.17688   0.00000  Uiso   1.00
H52    H     0.01302   0.04405   0.20974   0.00000  Uiso   1.00
H53    H     0.01473   0.07683   0.15320   0.00000  Uiso   1.00
H54    H     0.26871   0.24012   0.32981   0.00000  Uiso   1.00
H55    H     0.32352   0.28736   0.26724   0.00000  Uiso   1.00
H56    H     0.26243   0.30006   0.27688   0.00000  Uiso   1.00
H57    H     0.29625   0.27134   0.21753   0.00000  Uiso   1.00
H58    H     0.32250   0.14615   0.43531   0.00000  Uiso   1.00
H59    H     0.03313   0.22808   0.28245   0.00000  Uiso   1.00
H60    H     0.03737   0.08953   0.45032   0.00000  Uiso   1.00
H61    H     0.31552   0.06930   0.44572   0.00000  Uiso   1.00
H62    H     0.32363   0.07632   0.01023   0.00000  Uiso   1.00
H63    H     0.10234   0.13770   0.12526   0.00000  Uiso   1.00
H64    H     0.15392   0.05748   0.08194   0.00000  Uiso   1.00
H65    H     0.09917   0.06346   0.13597   0.00000  Uiso   1.00
H66    H     0.15396   0.07880   0.14599   0.00000  Uiso   1.00
H67    H     0.27040   0.10816   0.40310   0.00000  Uiso   1.00
H68    H     0.06130   0.19543   0.41943   0.00000  Uiso   1.00
H69    H     0.09947   0.18391   0.06007   0.00000  Uiso   1.00
H70    H     0.04708   0.21015   0.01425   0.00000  Uiso   1.00
H71    H     0.20564   0.10871   0.36700   0.00000  Uiso   1.00
H72    H     0.30866   0.19220   0.05401   0.00000  Uiso   1.00
N73    N     0.04760   0.16668   0.25001   0.00000  Uiso   1.00
N74    N     0.25344   0.27227   0.12338   0.00000  Uiso   1.00
N75    N     0.28573   0.16665   0.25000   0.00000  Uiso   1.00
N76    N     0.28965   0.16863   0.07733   0.00000  Uiso   1.00
N77    N     0.10230   0.04587   0.33756   0.00000  Uiso   1.00
N78    N     0.10773   0.28931   0.34050   0.00000  Uiso   1.00
N79    N     0.29446   0.09212   0.22598   0.00000  Uiso   1.00
N80    N     0.27559   0.23678   0.28902   0.00000  Uiso   1.00
N81    N     0.31395   0.13235   0.47237   0.00000  Uiso   1.00
N82    N     0.12838   0.11960   0.09895   0.00000  Uiso   1.00
O83    O     0.12846   0.22775   0.25001   0.00000  Uiso   1.00
O84    O     0.20490   0.22774   0.25001   0.00000  Uiso   1.00
O85    O     0.10947   0.16666   0.32681   0.00000  Uiso   1.00
O86    O     0.18591   0.16665   0.32681   0.00000  Uiso   1.00
O87    O     0.12843   0.10559   0.24999   0.00000  Uiso   1.00
O88    O     0.20488   0.10558   0.24999   0.00000  Uiso   1.00
O89    O     0.14742   0.16668   0.17319   0.00000  Uiso   1.00
O90    O     0.22387   0.16667   0.17319   0.00000  Uiso   1.00
Zn91   Zn    0.11562   0.16667   0.25000   0.00000  Uiso   1.00
Zn92   Zn    0.21771   0.16666   0.25000   0.00000  Uiso   1.00
C93    C     0.50002   0.24644   0.25003   0.00000  Uiso   1.00
C94    C     0.45912   0.16001   0.40934   0.00000  Uiso   1.00
C95    C     0.53081   0.31180   0.20692   0.00000  Uiso   1.00
C96    C     0.47425   0.16384   0.35139   0.00000  Uiso   1.00
C97    C     0.53064   0.02162   0.20798   0.00000  Uiso   1.00
C98    C     0.49919   0.04286   0.25120   0.00000  Uiso   1.00
C99    C     0.46737   0.02232   0.29446   0.00000  Uiso   1.00
C100   C     0.46909   0.31198   0.29517   0.00000  Uiso   1.00
C101   C     0.50007   0.29071   0.25064   0.00000  Uiso   1.00
C102   C     0.64766   0.13114   0.23489   0.00000  Uiso   1.00
C103   C     0.36233   0.13200   0.23414   0.00000  Uiso   1.00
C104   C     0.48022   0.15060   0.49038   0.00000  Uiso   1.00
C105   C     0.35243   0.20096   0.26751   0.00000  Uiso   1.00
C106   C     0.63805   0.20137   0.26725   0.00000  Uiso   1.00
C107   C     0.49982   0.08692   0.25043   0.00000  Uiso   1.00
C108   C     0.52576   0.16317   0.14836   0.00000  Uiso   1.00
C109   C     0.59899   0.13737   0.00401   0.00000  Uiso   1.00
C110   C     0.53994   0.15148   0.09120   0.00000  Uiso   1.00
C111   C     0.41773   0.18125   0.43904   0.00000  Uiso   1.00
C112   C     0.40891   0.18925   0.49313   0.00000  Uiso   1.00
C113   C     0.43943   0.17402   0.01890   0.00000  Uiso   1.00
C114   C     0.65110   0.13880   0.09528   0.00000  Uiso   1.00
C115   C     0.49004   0.14298   0.43517   0.00000  Uiso   1.00
C116   C     0.38948   0.05436   0.33240   0.00000  Uiso   1.00
C117   C     0.46541   0.27999   0.37867   0.00000  Uiso   1.00
C118   C     0.65795   0.06146   0.18950   0.00000  Uiso   1.00
C119   C     0.62379   0.27580   0.26108   0.00000  Uiso   1.00
C120   C     0.66506   0.08968   0.46958   0.00000  Uiso   1.00
C121   C     0.46761   0.07769   0.11669   0.00000  Uiso   1.00
C122   C     0.56191   0.28986   0.16049   0.00000  Uiso   1.00
C123   C     0.51507   0.14046   0.01391   0.00000  Uiso   1.00
C124   C     0.56198   0.13228   0.48160   0.00000  Uiso   1.00
C125   C     0.56960   0.11944   0.42843   0.00000  Uiso   1.00
C126   C     0.53253   0.12143   0.40698   0.00000  Uiso   1.00
C127   C     0.50455   0.13977   0.06893   0.00000  Uiso   1.00
C128   C     0.58760   0.15143   0.05787   0.00000  Uiso   1.00
H129   H     0.55400   0.03884   0.17471   0.00000  Uiso   1.00
H130   H     0.34744   0.12664   0.06105   0.00000  Uiso   1.00
H131   H     0.62889   0.11226   0.11603   0.00000  Uiso   1.00
H132   H     0.66634   0.15485   0.12365   0.00000  Uiso   1.00
H133   H     0.43444   0.03694   0.37545   0.00000  Uiso   1.00
H134   H     0.37892   0.08727   0.34547   0.00000  Uiso   1.00
H135   H     0.38956   0.05036   0.29034   0.00000  Uiso   1.00
H136   H     0.36281   0.03277   0.35804   0.00000  Uiso   1.00
H137   H     0.40763   0.30154   0.35845   0.00000  Uiso   1.00
H138   H     0.47754   0.30943   0.39326   0.00000  Uiso   1.00
H139   H     0.49638   0.25911   0.36008   0.00000  Uiso   1.00
H140   H     0.38463   0.10444   0.22259   0.00000  Uiso   1.00
H141   H     0.44101   0.26385   0.41360   0.00000  Uiso   1.00
H142   H     0.60866   0.07855   0.26161   0.00000  Uiso   1.00
H143   H     0.63567   0.03830   0.17688   0.00000  Uiso   1.00
H144   H     0.34635   0.04405   0.20974   0.00000  Uiso   1.00
H145   H     0.34806   0.07683   0.15320   0.00000  Uiso   1.00
H146   H     0.60204   0.24012   0.32981   0.00000  Uiso   1.00
H147   H     0.65685   0.28736   0.26724   0.00000  Uiso   1.00
H148   H     0.59577   0.30006   0.27688   0.00000  Uiso   1.00
H149   H     0.62958   0.27134   0.21753   0.00000  Uiso   1.00
H150   H     0.65584   0.14615   0.43531   0.00000  Uiso   1.00
H151   H     0.36646   0.22808   0.28245   0.00000  Uiso   1.00
H152   H     0.37070   0.08953   0.45032   0.00000  Uiso   1.00
H153   H     0.64885   0.06930   0.44572   0.00000  Uiso   1.00
H154   H     0.65696   0.07632   0.01023   0.00000  Uiso   1.00
H155   H     0.43567   0.13770   0.12526   0.00000  Uiso   1.00
H156   H     0.48725   0.05748   0.08194   0.00000  Uiso   1.00
H157   H     0.43250   0.06346   0.13597   0.00000  Uiso   1.00
H158   H     0.48729   0.07880   0.14599   0.00000  Uiso   1.00
H159   H     0.60373   0.10816   0.40310   0.00000  Uiso   1.00
H160   H     0.39463   0.19543   0.41943   0.00000  Uiso   1.00
H161   H     0.43280   0.18391   0.06007   0.00000  Uiso   1.00
H162   H     0.38041   0.21015   0.01425   0.00000  Uiso   1.00
H163   H     0.53898   0.10871   0.36700   0.00000  Uiso   1.00
H164   H     0.64199   0.19220   0.05401   0.00000  Uiso   1.00
N165   N     0.38093   0.16668   0.25001   0.00000  Uiso   1.00
N166   N     0.58677   0.27227   0.12338   0.00000  Uiso   1.00
N167   N     0.61906   0.16665   0.25000   0.00000  Uiso   1.00
N168   N     0.62299   0.16863   0.07733   0.00000  Uiso   1.00
N169   N     0.43563   0.04587   0.33756   0.00000  Uiso   1.00
N170   N     0.44107   0.28931   0.34050   0.00000  Uiso   1.00
N171   N     0.62780   0.09212   0.22598   0.00000  Uiso   1.00
N172   N     0.60892   0.23678   0.28902   0.00000  Uiso   1.00
N173   N     0.64728   0.13235   0.47237   0.00000  Uiso   1.00
N174   N     0.46171   0.11960   0.09895   0.00000  Uiso   1.00
O175   O     0.46179   0.22775   0.25001   0.00000  Uiso   1.00
O176   O     0.53823   0.22774   0.25001   0.00000  Uiso   1.00
O177   O     0.44280   0.16666   0.32681   0.00000  Uiso   1.00
O178   O     0.51924   0.16665   0.32681   0.00000  Uiso   1.00
O179   O     0.46177   0.10559   0.24999   0.00000  Uiso   1.00
O180   O     0.53821   0.10558   0.24999   0.00000  Uiso   1.00
O181   O     0.48076   0.16668   0.17319   0.00000  Uiso   1.00
O182   O     0.55720   0.16667   0.17319   0.00000  Uiso   1.00
Zn183  Zn    0.44896   0.16667   0.25000   0.00000  Uiso   1.00
Zn184  Zn    0.55104   0.16666   0.25000   0.00000  Uiso   1.00
C185   C     0.83335   0.24644   0.25003   0.00000  Uiso   1.00
C186   C     0.79245   0.16001   0.40934   0.00000  Uiso   1.00
C187   C     0.86414   0.31180   0.20692   0.00000  Uiso   1.00
C188   C     0.80758   0.16384   0.35139   0.00000  Uiso   1.00
C189   C     0.86398   0.02162   0.20798   0.00000  Uiso   1.00
C190   C     0.83253   0.04286   0.25120   0.00000  Uiso   1.00
C191   C     0.80070   0.02232   0.29446   0.00000  Uiso   1.00
C192   C     0.80242   0.31198   0.29517   0.00000  Uiso   1.00
C193   C     0.83340   0.29071   0.25064   0.00000  Uiso   1.00
C194   C     0.98099   0.13114   0.23489   0.00000  Uiso   1.00
C195   C     0.69567   0.13200   0.23414   0.00000  Uiso   1.00
C196   C     0.81355   0.15060   0.49038   0.00000  Uiso   1.00
C197   C     0.68577   0.20096   0.26751   0.00000  Uiso   1.00
C198   C     0.97138   0.20137   0.26725   0.00000  Uiso   1.00
C199   C     0.83315   0.08692   0.25043   0.00000  Uiso   1.00
C200   C     0.85909   0.16317   0.14836   0.00000  Uiso   1.00
C201   C     0.93232   0.13737   0.00401   0.00000  Uiso   1.00
C202   C     0.87327   0.15148   0.09120   0.00000  Uiso   1.00
C203   C     0.75106   0.18125   0.43904   0.00000  Uiso   1.00
C204   C     0.74224   0.18925   0.49313   0.00000  Uiso   1.00
C205   C     0.77277   0.17402   0.01890   0.00000  Uiso   1.00
C206   C     0.98444   0.13880   0.09528   0.00000  Uiso   1.00
C207   C     0.82337   0.14298   0.43517   0.00000  Uiso   1.00
C208   C     0.72281   0.05436   0.33240   0.00000  Uiso   1.00
C209   C     0.79874   0.27999   0.37867   0.00000  Uiso   1.00
C210   C     0.99129   0.06146   0.18950   0.00000  Uiso   1.00
C211   C     0.95713   0.27580   0.26108   0.00000  Uiso   1.00
C212   C     0.99839   0.08968   0.46958   0.00000  Uiso   1.00
C213   C     0.80095   0.07769   0.11669   0.00000  Uiso   1.00
C214   C     0.89524   0.28986   0.16049   0.00000  Uiso   1.00
C215   C     0.84841   0.14046   0.01391   0.00000  Uiso   1.00
C216   C     0.89531   0.13228   0.48160   0.00000  Uiso   1.00
C217   C     0.90293   0.11944   0.42843   0.00000  Uiso   1.00
C218   C     0.86586   0.12143   0.40698   0.00000  Uiso   1.00
C219   C     0.83788   0.13977   0.06893   0.00000  Uiso   1.00
C220   C     0.92093   0.15143   0.05787   0.00000  Uiso   1.00
H221   H     0.88733   0.03884   0.17471   0.00000  Uiso   1.00
H222   H     0.68078   0.12664   0.06105   0.00000  Uiso   1.00
H223   H     0.96222   0.11226   0.11603   0.00000  Uiso   1.00
H224   H     0.99967   0.15485   0.12365   0.00000  Uiso   1.00
H225   H     0.76777   0.03694   0.37545   0.00000  Uiso   1.00
H226   H     0.71225   0.08727   0.34547   0.00000  Uiso   1.00
H227   H     0.72289   0.05036   0.29034   0.00000  Uiso   1.00
H228   H     0.69614   0.03277   0.35804   0.00000  Uiso   1.00
H229   H     0.74096   0.30154   0.35845   0.00000  Uiso   1.00
H230   H     0.81088   0.30943   0.39326   0.00000  Uiso   1.00
H231   H     0.82971   0.25911   0.36008   0.00000  Uiso   1.00
H232   H     0.71797   0.10444   0.22259   0.00000  Uiso   1.00
H233   H     0.77434   0.26385   0.41360   0.00000  Uiso   1.00
H234   H     0.94199   0.07855   0.26161   0.00000  Uiso   1.00
H235   H     0.96900   0.03830   0.17688   0.00000  Uiso   1.00
H236   H     0.67968   0.04405   0.20974   0.00000  Uiso   1.00
H237   H     0.68139   0.07683   0.15320   0.00000  Uiso   1.00
H238   H     0.93537   0.24012   0.32981   0.00000  Uiso   1.00
H239   H     0.99019   0.28736   0.26724   0.00000  Uiso   1.00
H240   H     0.92910   0.30006   0.27688   0.00000  Uiso   1.00
H241   H     0.96291   0.27134   0.21753   0.00000  Uiso   1.00
H242   H     0.98917   0.14615   0.43531   0.00000  Uiso   1.00
H243   H     0.69979   0.22808   0.28245   0.00000  Uiso   1.00
H244   H     0.70404   0.08953   0.45032   0.00000  Uiso   1.00
H245   H     0.98218   0.06930   0.44572   0.00000  Uiso   1.00
H246   H     0.99029   0.07632   0.01023   0.00000  Uiso   1.00
H247   H     0.76900   0.13770   0.12526   0.00000  Uiso   1.00
H248   H     0.82058   0.05748   0.08194   0.00000  Uiso   1.00
H249   H     0.76583   0.06346   0.13597   0.00000  Uiso   1.00
H250   H     0.82062   0.07880   0.14599   0.00000  Uiso   1.00
H251   H     0.93706   0.10816   0.40310   0.00000  Uiso   1.00
H252   H     0.72797   0.19543   0.41943   0.00000  Uiso   1.00
H253   H     0.76613   0.18391   0.06007   0.00000  Uiso   1.00
H254   H     0.71375   0.21015   0.01425   0.00000  Uiso   1.00
H255   H     0.87231   0.10871   0.36700   0.00000  Uiso   1.00
H256   H     0.97533   0.19220   0.05401   0.00000  Uiso   1.00
N257   N     0.71426   0.16668   0.25001   0.00000  Uiso   1.00
N258   N     0.92010   0.27227   0.12338   0.00000  Uiso   1.00
N259   N     0.95239   0.16665   0.25000   0.00000  Uiso   1.00
N260   N     0.95632   0.16863   0.07733   0.00000  Uiso   1.00
N261   N     0.76896   0.04587   0.33756   0.00000  Uiso   1.00
N262   N     0.77440   0.28931   0.34050   0.00000  Uiso   1.00
N263   N     0.96113   0.09212   0.22598   0.00000  Uiso   1.00
N264   N     0.94225   0.23678   0.28902   0.00000  Uiso   1.00
N265   N     0.98061   0.13235   0.47237   0.00000  Uiso   1.00
N266   N     0.79504   0.11960   0.09895   0.00000  Uiso   1.00
O267   O     0.79512   0.22775   0.25001   0.00000  Uiso   1.00
O268   O     0.87157   0.22774   0.25001   0.00000  Uiso   1.00
O269   O     0.77613   0.16666   0.32681   0.00000  Uiso   1.00
O270   O     0.85258   0.16665   0.32681   0.00000  Uiso   1.00
O271   O     0.79510   0.10559   0.24999   0.00000  Uiso   1.00
O272   O     0.87154   0.10558   0.24999   0.00000  Uiso   1.00
O273   O     0.81409   0.16668   0.17319   0.00000  Uiso   1.00
O274   O     0.89053   0.16667   0.17319   0.00000  Uiso   1.00
Zn275  Zn    0.78229   0.16667   0.25000   0.00000  Uiso   1.00
Zn276  Zn    0.88438   0.16666   0.25000   0.00000  Uiso   1.00
C277   C     0.16668   0.57977   0.25003   0.00000  Uiso   1.00
C278   C     0.12578   0.49334   0.40934   0.00000  Uiso   1.00
C279   C     0.19748   0.64513   0.20692   0.00000  Uiso   1.00
C280   C     0.14091   0.49718   0.35139   0.00000  Uiso   1.00
C281   C     0.19731   0.35495   0.20798   0.00000  Uiso   1.00
C282   C     0.16586   0.37620   0.25120   0.00000  Uiso   1.00
C283   C     0.13403   0.35565   0.29446   0.00000  Uiso   1.00
C284   C     0.13576   0.64531   0.29517   0.00000  Uiso   1.00
C285   C     0.16673   0.62404   0.25064   0.00000  Uiso   1.00
C286   C     0.31432   0.46448   0.23489   0.00000  Uiso   1.00
C287   C     0.02900   0.46533   0.23414   0.00000  Uiso   1.00
C288   C     0.14689   0.48393   0.49038   0.00000  Uiso   1.00
C289   C     0.01910   0.53430   0.26751   0.00000  Uiso   1.00
C290   C     0.30472   0.53470   0.26725   0.00000  Uiso   1.00
C291   C     0.16649   0.42025   0.25043   0.00000  Uiso   1.00
C292   C     0.19242   0.49650   0.14836   0.00000  Uiso   1.00
C293   C     0.26565   0.47070   0.00401   0.00000  Uiso   1.00
C294   C     0.20661   0.48481   0.09120   0.00000  Uiso   1.00
C295   C     0.08439   0.51458   0.43904   0.00000  Uiso   1.00
C296   C     0.07557   0.52258   0.49313   0.00000  Uiso   1.00
C297   C     0.10610   0.50735   0.01890   0.00000  Uiso   1.00
C298   C     0.31777   0.47213   0.09528   0.00000  Uiso   1.00
C299   C     0.15671   0.47631   0.43517   0.00000  Uiso   1.00
C300   C     0.05614   0.38770   0.33240   0.00000  Uiso   1.00
C301   C     0.13207   0.61332   0.37867   0.00000  Uiso   1.00
C302   C     0.32462   0.39479   0.18950   0.00000  Uiso   1.00
C303   C     0.29046   0.60914   0.26108   0.00000  Uiso   1.00
C304   C     0.33172   0.42301   0.46958   0.00000  Uiso   1.00
C305   C     0.13428   0.41103   0.11669   0.00000  Uiso   1.00
C306   C     0.22858   0.62319   0.16049   0.00000  Uiso   1.00
C307   C     0.18174   0.47379   0.01391   0.00000  Uiso   1.00
C308   C     0.22865   0.46561   0.48160   0.00000  Uiso   1.00
C309   C     0.23626   0.45277   0.42843   0.00000  Uiso   1.00
C310   C     0.19920   0.45476   0.40698   0.00000  Uiso   1.00
C311   C     0.17121   0.47310   0.06893   0.00000  Uiso   1.00
C312   C     0.25426   0.48476   0.05787   0.00000  Uiso   1.00
H313   H     0.22067   0.37217   0.17471   0.00000  Uiso   1.00
H314   H     0.01411   0.45997   0.06105   0.00000  Uiso   1.00
H315   H     0.29555   0.44559   0.11603   0.00000  Uiso   1.00
H316   H     0.33301   0.48819   0.12365   0.00000  Uiso   1.00
H317   H     0.10111   0.37027   0.37545   0.00000  Uiso   1.00
H318   H     0.04558   0.42060   0.34547   0.00000  Uiso   1.00
H319   H     0.05622   0.38370   0.29034   0.00000  Uiso   1.00
H320   H     0.02947   0.36611   0.35804   0.00000  Uiso   1.00
H321   H     0.07430   0.63487   0.35845   0.00000  Uiso   1.00
H322   H     0.14421   0.64276   0.39326   0.00000  Uiso   1.00
H323   H     0.16304   0.59244   0.36008   0.00000  Uiso   1.00
H324   H     0.05130   0.43778   0.22259   0.00000  Uiso   1.00
H325   H     0.10768   0.59719   0.41360   0.00000  Uiso   1.00
H326   H     0.27533   0.41189   0.26161   0.00000  Uiso   1.00
H327   H     0.30234   0.37163   0.17688   0.00000  Uiso   1.00
H328   H     0.01302   0.37739   0.20974   0.00000  Uiso   1.00
H329   H     0.01473   0.41016   0.15320   0.00000  Uiso   1.00
H330   H     0.26871   0.57346   0.32981   0.00000  Uiso   1.00
H331   H     0.32352   0.62069   0.26724   0.00000  Uiso   1.00
H332   H     0.26243   0.63339   0.27688   0.00000  Uiso   1.00
H333   H     0.29625   0.60468   0.21753   0.00000  Uiso   1.00
H334   H     0.32250   0.47948   0.43531   0.00000  Uiso   1.00
H335   H     0.03313   0.56141   0.28245   0.00000  Uiso   1.00
H336   H     0.03737   0.42286   0.45032   0.00000  Uiso   1.00
H337   H     0.31552   0.40263   0.44572   0.00000  Uiso   1.00
H338   H     0.32363   0.40966   0.01023   0.00000  Uiso   1.00
H339   H     0.10234   0.47104   0.12526   0.00000  Uiso   1.00
H340   H     0.15392   0.39082   0.08194   0.00000  Uiso   1.00
H341   H     0.09917   0.39679   0.13597   0.00000  Uiso   1.00
H342   H     0.15396   0.41213   0.14599   0.00000  Uiso   1.00
H343   H     0.27040   0.44149   0.40310   0.00000  Uiso   1.00
H344   H     0.06130   0.52876   0.41943   0.00000  Uiso   1.00
H345   H     0.09947   0.51724   0.06007   0.00000  Uiso   1.00
H346   H     0.04708   0.54349   0.01425   0.00000  Uiso   1.00
H347   H     0.20564   0.44205   0.36700   0.00000  Uiso   1.00
H348   H     0.30866   0.52553   0.05401   0.00000  Uiso   1.00
N349   N     0.04760   0.50001   0.25001   0.00000  Uiso   1.00
N350   N     0.25344   0.60560   0.12338   0.00000  Uiso   1.00
N351   N     0.28573   0.49998   0.25000   0.00000  Uiso   1.00
N352   N     0.28965   0.50196   0.07733   0.00000  Uiso   1.00
N353   N     0.10230   0.37921   0.33756   0.00000  Uiso   1.00
N354   N     0.10773   0.62265   0.34050   0.00000  Uiso   1.00
N355   N     0.29446   0.42546   0.22598   0.00000  Uiso   1.00
N356   N     0.27559   0.57011   0.28902   0.00000  Uiso   1.00
N357   N     0.31395   0.46569   0.47237   0.00000  Uiso   1.00
N358   N     0.12838   0.45293   0.09895   0.00000  Uiso   1.00
O359   O     0.12846   0.56108   0.25001   0.00000  Uiso   1.00
O360   O     0.20490   0.56107   0.25001   0.00000  Uiso   1.00
O361   O     0.10947   0.50000   0.32681   0.00000  Uiso   1.00
O362   O     0.18591   0.49999   0.32681   0.00000  Uiso   1.00
O363   O     0.12843   0.43893   0.24999   0.00000  Uiso   1.00
O364   O     0.20488   0.43892   0.24999   0.00000  Uiso   1.00
O365   O     0.14742   0.50001   0.17319   0.00000  Uiso   1.00
O366   O     0.22387   0.50000   0.17319   0.00000  Uiso   1.00
Zn367  Zn    0.11562   0.50001   0.25000   0.00000  Uiso   1.00
Zn368  Zn    0.21771   0.49999   0.25000   0.00000  Uiso   1.00
C369   C     0.50002   0.57977   0.25003   0.00000  Uiso   1.00
C370   C     0.45912   0.49334   0.40934   0.00000  Uiso   1.00
C371   C     0.53081   0.64513   0.20692   0.00000  Uiso   1.00
C372   C     0.47425   0.49718   0.35139   0.00000  Uiso   1.00
C373   C     0.53064   0.35495   0.20798   0.00000  Uiso   1.00
C374   C     0.49919   0.37620   0.25120   0.00000  Uiso   1.00
C375   C     0.46737   0.35565   0.29446   0.00000  Uiso   1.00
C376   C     0.46909   0.64531   0.29517   0.00000  Uiso   1.00
C377   C     0.50007   0.62404   0.25064   0.00000  Uiso   1.00
C378   C     0.64766   0.46448   0.23489   0.00000  Uiso   1.00
C379   C     0.36233   0.46533   0.23414   0.00000  Uiso   1.00
C380   C     0.48022   0.48393   0.49038   0.00000  Uiso   1.00
C381   C     0.35243   0.53430   0.26751   0.00000  Uiso   1.00
C382   C     0.63805   0.53470   0.26725   0.00000  Uiso   1.00
C383   C     0.49982   0.42025   0.25043   0.00000  Uiso   1.00
C384   C     0.52576   0.49650   0.14836   0.00000  Uiso   1.00
C385   C     0.59899   0.47070   0.00401   0.00000  Uiso   1.00
C386   C     0.53994   0.48481   0.09120   0.00000  Uiso   1.00
C387   C     0.41773   0.51458   0.43904   0.00000  Uiso   1.00
C388   C     0.40891   0.52258   0.49313   0.00000  Uiso   1.00
C389   C     0.43943   0.50735   0.01890   0.00000  Uiso   1.00
C390   C     0.65110   0.47213   0.09528   0.00000  Uiso   1.00
C391   C     0.49004   0.47631   0.43517   0.00000  Uiso   1.00
C392   C     0.38948   0.38770   0.33240   0.00000  Uiso   1.00
C393   C     0.46541   0.61332   0.37867   0.00000  Uiso   1.00
C394   C     0.65795   0.39479   0.18950   0.00000  Uiso   1.00
C395   C     0.62379   0.60914   0.26108   0.00000  Uiso   1.00
C396   C     0.66506   0.42301   0.46958   0.00000  Uiso   1.00
C397   C     0.46761   0.41103   0.11669   0.00000  Uiso   1.00
C398   C     0.56191   0.62319   0.16049   0.00000  Uiso   1.00
C399   C     0.51507   0.47379   0.01391   0.00000  Uiso   1.00
C400   C     0.56198   0.46561   0.48160   0.00000  Uiso   1.00
C401   C     0.56960   0.45277   0.42843   0.00000  Uiso   1.00
C402   C     0.53253   0.45476   0.40698   0.00000  Uiso   1.00
C403   C     0.50455   0.47310   0.06893   0.00000  Uiso   1.00
C404   C     0.58760   0.48476   0.05787   0.00000  Uiso   1.00
H405   H     0.55400   0.37217   0.17471   0.00000  Uiso   1.00
H406   H     0.34744   0.45997   0.06105   0.00000  Uiso   1.00
H407   H     0.62889   0.44559   0.11603   0.00000  Uiso   1.00
H408   H     0.66634   0.48819   0.12365   0.00000  Uiso   1.00
H409   H     0.43444   0.37027   0.37545   0.00000  Uiso   1.00
H410   H     0.37892   0.42060   0.34547   0.00000  Uiso   1.00
H411   H     0.38956   0.38370   0.29034   0.00000  Uiso   1.00
H412   H     0.36281   0.36611   0.35804   0.00000  Uiso   1.00
H413   H     0.40763   0.63487   0.35845   0.00000  Uiso   1.00
H414   H     0.47754   0.64276   0.39326   0.00000  Uiso   1.00
H415   H     0.49638   0.59244   0.36008   0.00000  Uiso   1.00
H416   H     0.38463   0.43778   0.22259   0.00000  Uiso   1.00
H417   H     0.44101   0.59719   0.41360   0.00000  Uiso   1.00
H418   H     0.60866   0.41189   0.26161   0.00000  Uiso   1.00
H419   H     0.63567   0.37163   0.17688   0.00000  Uiso   1.00
H420   H     0.34635   0.37739   0.20974   0.00000  Uiso   1.00
H421   H     0.34806   0.41016   0.15320   0.00000  Uiso   1.00
H422   H     0.60204   0.57346   0.32981   0.00000  Uiso   1.00
H423   H     0.65685   0.62069   0.26724   0.00000  Uiso   1.00
H424   H     0.59577   0.63339   0.27688   0.00000  Uiso   1.00
H425   H     0.62958   0.60468   0.21753   0.00000  Uiso   1.00
H426   H     0.65584   0.47948   0.43531   0.00000  Uiso   1.00
H427   H     0.36646   0.56141   0.28245   0.00000  Uiso   1.00
H428   H     0.37070   0.42286   0.45032   0.00000  Uiso   1.00
H429   H     0.64885   0.40263   0.44572   0.00000  Uiso   1.00
H430   H     0.65696   0.40966   0.01023   0.00000  Uiso   1.00
H431   H     0.43567   0.47104   0.12526   0.00000  Uiso   1.00
H432   H     0.48725   0.39082   0.08194   0.00000  Uiso   1.00
H433   H     0.43250   0.39679   0.13597   0.00000  Uiso   1.00
H434   H     0.48729   0.41213   0.14599   0.00000  Uiso   1.00
H435   H     0.60373   0.44149   0.40310   0.00000  Uiso   1.00
H436   H     0.39463   0.52876   0.41943   0.00000  Uiso   1.00
H437   H     0.43280   0.51724   0.06007   0.00000  Uiso   1.00
H438   H     0.38041   0.54349   0.01425   0.00000  Uiso   1.00
H439   H     0.53898   0.44205   0.36700   0.00000  Uiso   1.00
H440   H     0.64199   0.52553   0.05401   0.00000  Uiso   1.00
N441   N     0.38093   0.50001   0.25001   0.00000  Uiso   1.00
N442   N     0.58677   0.60560   0.12338   0.00000  Uiso   1.00
N443   N     0.61906   0.49998   0.25000   0.00000  Uiso   1.00
N444   N     0.62299   0.50196   0.07733   0.00000  Uiso   1.00
N445   N     0.43563   0.37921   0.33756   0.00000  Uiso   1.00
N446   N     0.44107   0.62265   0.34050   0.00000  Uiso   1.00
N447   N     0.62780   0.42546   0.22598   0.00000  Uiso   1.00
N448   N     0.60892   0.57011   0.28902   0.00000  Uiso   1.00
N449   N     0.64728   0.46569   0.47237   0.00000  Uiso   1.00
N450   N     0.46171   0.45293   0.09895   0.00000  Uiso   1.00
O451   O     0.46179   0.56108   0.25001   0.00000  Uiso   1.00
O452   O     0.53823   0.56107   0.25001   0.00000  Uiso   1.00
O453   O     0.44280   0.50000   0.32681   0.00000  Uiso   1.00
O454   O     0.51924   0.49999   0.32681   0.00000  Uiso   1.00
O455   O     0.46177   0.43893   0.24999   0.00000  Uiso   1.00
O456   O     0.53821   0.43892   0.24999   0.00000  Uiso   1.00
O457   O     0.48076   0.50001   0.17319   0.00000  Uiso   1.00
O458   O     0.55720   0.50000   0.17319   0.00000  Uiso   1.00
Zn459  Zn    0.44896   0.50001   0.25000   0.00000  Uiso   1.00
Zn460  Zn    0.55104   0.49999   0.25000   0.00000  Uiso   1.00
C461   C     0.83335   0.57977   0.25003   0.00000  Uiso   1.00
C462   C     0.79245   0.49334   0.40934   0.00000  Uiso   1.00
C463   C     0.86414   0.64513   0.20692   0.00000  Uiso   1.00
C464   C     0.80758   0.49718   0.35139   0.00000  Uiso   1.00
C465   C     0.86398   0.35495   0.20798   0.00000  Uiso   1.00
C466   C     0.83253   0.37620   0.25120   0.00000  Uiso   1.00
C467   C     0.80070   0.35565   0.29446   0.00000  Uiso   1.00
C468   C     0.80242   0.64531   0.29517   0.00000  Uiso   1.00
C469   C     0.83340   0.62404   0.25064   0.00000  Uiso   1.00
C470   C     0.98099   0.46448   0.23489   0.00000  Uiso   1.00
C471   C     0.69567   0.46533   0.23414   0.00000  Uiso   1.00
C472   C     0.81355   0.48393   0.49038   0.00000  Uiso   1.00
C473   C     0.68577   0.53430   0.26751   0.00000  Uiso   1.00
C474   C     0.97138   0.53470   0.26725   0.00000  Uiso   1.00
C475   C     0.83315   0.42025   0.25043   0.00000  Uiso   1.00
C476   C     0.85909   0.49650   0.14836   0.00000  Uiso   1.00
C477   C     0.93232   0.47070   0.00401   0.00000  Uiso   1.00
C478   C     0.87327   0.48481   0.09120   0.00000  Uiso   1.00
C479   C     0.75106   0.51458   0.43904   0.00000  Uiso   1.00
C480   C     0.74224   0.52258   0.49313   0.00000  Uiso   1.00
C481   C     0.77277   0.50735   0.01890   0.00000  Uiso   1.00
C482   C     0.98444   0.47213   0.09528   0.00000  Uiso   1.00
C483   C     0.82337   0.47631   0.43517   0.00000  Uiso   1.00
C484   C     0.72281   0.38770   0.33240   0.00000  Uiso   1.00
C485   C     0.79874   0.61332   0.37867   0.00000  Uiso   1.00
C486   C     0.99129   0.39479   0.18950   0.00000  Uiso   1.00
C487   C     0.95713   0.60914   0.26108   0.00000  Uiso   1.00
C488   C     0.99839   0.42301   0.46958   0.00000  Uiso   1.00
C489   C     0.80095   0.41103   0.11669   0.00000  Uiso   1.00
C490   C     0.89524   0.62319   0.16049   0.00000  Uiso   1.00
C491   C     0.84841   0.47379   0.01391   0.00000  Uiso   1.00
C492   C     0.89531   0.46561   0.48160   0.00000  Uiso   1.00
C493   C     0.90293   0.45277   0.42843   0.00000  Uiso   1.00
C494   C     0.86586   0.45476   0.40698   0.00000  Uiso   1.00
C495   C     0.83788   0.47310   0.06893   0.00000  Uiso   1.00
C496   C     0.92093   0.48476   0.05787   0.00000  Uiso   1.00
H497   H     0.88733   0.37217   0.17471   0.00000  Uiso   1.00
H498   H     0.68078   0.45997   0.06105   0.00000  Uiso   1.00
H499   H     0.96222   0.44559   0.11603   0.00000  Uiso   1.00
H500   H     0.99967   0.48819   0.12365   0.00000  Uiso   1.00
H501   H     0.76777   0.37027   0.37545   0.00000  Uiso   1.00
H502   H     0.71225   0.42060   0.34547   0.00000  Uiso   1.00
H503   H     0.72289   0.38370   0.29034   0.00000  Uiso   1.00
H504   H     0.69614   0.36611   0.35804   0.00000  Uiso   1.00
H505   H     0.74096   0.63487   0.35845   0.00000  Uiso   1.00
H506   H     0.81088   0.64276   0.39326   0.00000  Uiso   1.00
H507   H     0.82971   0.59244   0.36008   0.00000  Uiso   1.00
H508   H     0.71797   0.43778   0.22259   0.00000  Uiso   1.00
H509   H     0.77434   0.59719   0.41360   0.00000  Uiso   1.00
H510   H     0.94199   0.41189   0.26161   0.00000  Uiso   1.00
H511   H     0.96900   0.37163   0.17688   0.00000  Uiso   1.00
H512   H     0.67968   0.37739   0.20974   0.00000  Uiso   1.00
H513   H     0.68139   0.41016   0.15320   0.00000  Uiso   1.00
H514   H     0.93537   0.57346   0.32981   0.00000  Uiso   1.00
H515   H     0.99019   0.62069   0.26724   0.00000  Uiso   1.00
H516   H     0.92910   0.63339   0.27688   0.00000  Uiso   1.00
H517   H     0.96291   0.60468   0.21753   0.00000  Uiso   1.00
H518   H     0.98917   0.47948   0.43531   0.00000  Uiso   1.00
H519   H     0.69979   0.56141   0.28245   0.00000  Uiso   1.00
H520   H     0.70404   0.42286   0.45032   0.00000  Uiso   1.00
H521   H     0.98218   0.40263   0.44572   0.00000  Uiso   1.00
H522   H     0.99029   0.40966   0.01023   0.00000  Uiso   1.00
H523   H     0.76900   0.47104   0.12526   0.00000  Uiso   1.00
H524   H     0.82058   0.39082   0.08194   0.00000  Uiso   1.00
H525   H     0.76583   0.39679   0.13597   0.00000  Uiso   1.00
H526   H     0.82062   0.41213   0.14599   0.00000  Uiso   1.00
H527   H     0.93706   0.44149   0.40310   0.00000  Uiso   1.00
H528   H     0.72797   0.52876   0.41943   0.00000  Uiso   1.00
H529   H     0.76613   0.51724   0.06007   0.00000  Uiso   1.00
H530   H     0.71375   0.54349   0.01425   0.00000  Uiso   1.00
H531   H     0.87231   0.44205   0.36700   0.00000  Uiso   1.00
H532   H     0.97533   0.52553   0.05401   0.00000  Uiso   1.00
N533   N     0.71426   0.50001   0.25001   0.00000  Uiso   1.00
N534   N     0.92010   0.60560   0.12338   0.00000  Uiso   1.00
N535   N     0.95239   0.49998   0.25000   0.00000  Uiso   1.00
N536   N     0.95632   0.50196   0.07733   0.00000  Uiso   1.00
N537   N     0.76896   0.37921   0.33756   0.00000  Uiso   1.00
N538   N     0.77440   0.62265   0.34050   0.00000  Uiso   1.00
N539   N     0.96113   0.42546   0.22598   0.00000  Uiso   1.00
N540   N     0.94225   0.57011   0.28902   0.00000  Uiso   1.00
N541   N     0.98061   0.46569   0.47237   0.00000  Uiso   1.00
N542   N     0.79504   0.45293   0.09895   0.00000  Uiso   1.00
O543   O     0.79512   0.56108   0.25001   0.00000  Uiso   1.00
O544   O     0.87157   0.56107   0.25001   0.00000  Uiso   1.00
O545   O     0.77613   0.50000   0.32681   0.00000  Uiso   1.00
O546   O     0.85258   0.49999   0.32681   0.00000  Uiso   1.00
O547   O     0.79510   0.43893   0.24999   0.00000  Uiso   1.00
O548   O     0.87154   0.43892   0.24999   0.00000  Uiso   1.00
O549   O     0.81409   0.50001   0.17319   0.00000  Uiso   1.00
O550   O     0.89053   0.50000   0.17319   0.00000  Uiso   1.00
Zn551  Zn    0.78229   0.50001   0.25000   0.00000  Uiso   1.00
Zn552  Zn    0.88438   0.49999   0.25000   0.00000  Uiso   1.00
C553   C     0.16668   0.91310   0.25003   0.00000  Uiso   1.00
C554   C     0.12578   0.82668   0.40934   0.00000  Uiso   1.00
C555   C     0.19748   0.97847   0.20692   0.00000  Uiso   1.00
C556   C     0.14091   0.83051   0.35139   0.00000  Uiso   1.00
C557   C     0.19731   0.68829   0.20798   0.00000  Uiso   1.00
C558   C     0.16586   0.70953   0.25120   0.00000  Uiso   1.00
C559   C     0.13403   0.68899   0.29446   0.00000  Uiso   1.00
C560   C     0.13576   0.97865   0.29517   0.00000  Uiso   1.00
C561   C     0.16673   0.95738   0.25064   0.00000  Uiso   1.00
C562   C     0.31432   0.79781   0.23489   0.00000  Uiso   1.00
C563   C     0.02900   0.79867   0.23414   0.00000  Uiso   1.00
C564   C     0.14689   0.81727   0.49038   0.00000  Uiso   1.00
C565   C     0.01910   0.86763   0.26751   0.00000  Uiso   1.00
C566   C     0.30472   0.86803   0.26725   0.00000  Uiso   1.00
C567   C     0.16649   0.75359   0.25043   0.00000  Uiso   1.00
C568   C     0.19242   0.82984   0.14836   0.00000  Uiso   1.00
C569   C     0.26565   0.80403   0.00401   0.00000  Uiso   1.00
C570   C     0.20661   0.81815   0.09120   0.00000  Uiso   1.00
C571   C     0.08439   0.84791   0.43904   0.00000  Uiso   1.00
C572   C     0.07557   0.85592   0.49313   0.00000  Uiso   1.00
C573   C     0.10610   0.84069   0.01890   0.00000  Uiso   1.00
C574   C     0.31777   0.80547   0.09528   0.00000  Uiso   1.00
C575   C     0.15671   0.80965   0.43517   0.00000  Uiso   1.00
C576   C     0.05614   0.72103   0.33240   0.00000  Uiso   1.00
C577   C     0.13207   0.94665   0.37867   0.00000  Uiso   1.00
C578   C     0.32462   0.72812   0.18950   0.00000  Uiso   1.00
C579   C     0.29046   0.94247   0.26108   0.00000  Uiso   1.00
C580   C     0.33172   0.75635   0.46958   0.00000  Uiso   1.00
C581   C     0.13428   0.74436   0.11669   0.00000  Uiso   1.00
C582   C     0.22858   0.95652   0.16049   0.00000  Uiso   1.00
C583   C     0.18174   0.80713   0.01391   0.00000  Uiso   1.00
C584   C     0.22865   0.79894   0.48160   0.00000  Uiso   1.00
C585   C     0.23626   0.78611   0.42843   0.00000  Uiso   1.00
C586   C     0.19920   0.78809   0.40698   0.00000  Uiso   1.00
C587   C     0.17121   0.80644   0.06893   0.00000  Uiso   1.00
C588   C     0.25426   0.81810   0.05787   0.00000  Uiso   1.00
H589   H     0.22067   0.70550   0.17471   0.00000  Uiso   1.00
H590   H     0.01411   0.79330   0.06105   0.00000  Uiso   1.00
H591   H     0.29555   0.77893   0.11603   0.00000  Uiso   1.00
H592   H     0.33301   0.82152   0.12365   0.00000  Uiso   1.00
H593   H     0.10111   0.70361   0.37545   0.00000  Uiso   1.00
H594   H     0.04558   0.75394   0.34547   0.00000  Uiso   1.00
H595   H     0.05622   0.71703   0.29034   0.00000  Uiso   1.00
H596   H     0.02947   0.69944   0.35804   0.00000  Uiso   1.00
H597   H     0.07430   0.96820   0.35845   0.00000  Uiso   1.00
H598   H     0.14421   0.97610   0.39326   0.00000  Uiso   1.00
H599   H     0.16304   0.92578   0.36008   0.00000  Uiso   1.00
H600   H     0.05130   0.77111   0.22259   0.00000  Uiso   1.00
H601   H     0.10768   0.93052   0.41360   0.00000  Uiso   1.00
H602   H     0.27533   0.74522   0.26161   0.00000  Uiso   1.00
H603   H     0.30234   0.70496   0.17688   0.00000  Uiso   1.00
H604   H     0.01302   0.71072   0.20974   0.00000  Uiso   1.00
H605   H     0.01473   0.74349   0.15320   0.00000  Uiso   1.00
H606   H     0.26871   0.90679   0.32981   0.00000  Uiso   1.00
H607   H     0.32352   0.95402   0.26724   0.00000  Uiso   1.00
H608   H     0.26243   0.96673   0.27688   0.00000  Uiso   1.00
H609   H     0.29625   0.93801   0.21753   0.00000  Uiso   1.00
H610   H     0.32250   0.81281   0.43531   0.00000  Uiso   1.00
H611   H     0.03313   0.89475   0.28245   0.00000  Uiso   1.00
H612   H     0.03737   0.75619   0.45032   0.00000  Uiso   1.00
H613   H     0.31552   0.73596   0.44572   0.00000  Uiso   1.00
H614   H     0.32363   0.74299   0.01023   0.00000  Uiso   1.00
H615   H     0.10234   0.80437   0.12526   0.00000  Uiso   1.00
H616   H     0.15392   0.72415   0.08194   0.00000  Uiso   1.00
H617   H     0.09917   0.73013   0.13597   0.00000  Uiso   1.00
H618   H     0.15396   0.74546   0.14599   0.00000  Uiso   1.00
H619   H     0.27040   0.77483   0.40310   0.00000  Uiso   1.00
H620   H     0.06130   0.86210   0.41943   0.00000  Uiso   1.00
H621   H     0.09947   0.85058   0.06007   0.00000  Uiso   1.00
H622   H     0.04708   0.87682   0.01425   0.00000  Uiso   1.00
H623   H     0.20564   0.77538   0.36700   0.00000  Uiso   1.00
H624   H     0.30866   0.85886   0.05401   0.00000  Uiso   1.00
N625   N     0.04760   0.83334   0.25001   0.00000  Uiso   1.00
N626   N     0.25344   0.93894   0.12338   0.00000  Uiso   1.00
N627   N     0.28573   0.83331   0.25000   0.00000  Uiso   1.00
N628   N     0.28965   0.83530   0.07733   0.00000  Uiso   1.00
N629   N     0.10230   0.71254   0.33756   0.00000  Uiso   1.00
N630   N     0.10773   0.95598   0.34050   0.00000  Uiso   1.00
N631   N     0.29446   0.75879   0.22598   0.00000  Uiso   1.00
N632   N     0.27559   0.90344   0.28902   0.00000  Uiso   1.00
N633   N     0.31395   0.79902   0.47237   0.00000  Uiso   1.00
N634   N     0.12838   0.78626   0.09895   0.00000  Uiso   1.00
O635   O     0.12846   0.89442   0.25001   0.00000  Uiso   1.00
O636   O     0.20490   0.89441   0.25001   0.00000  Uiso   1.00
O637   O     0.10947   0.83333   0.32681   0.00000  Uiso   1.00
O638   O     0.18591   0.83332   0.32681   0.00000  Uiso   1.00
O639   O     0.12843   0.77226   0.24999   0.00000  Uiso   1.00
O640   O     0.20488   0.77225   0.24999   0.00000  Uiso   1.00
O641   O     0.14742   0.83335   0.17319   0.00000  Uiso   1.00
O642   O     0.22387   0.83334   0.17319   0.00000  Uiso   1.00
Zn643  Zn    0.11562   0.83334   0.25000   0.00000  Uiso   1.00
Zn644  Zn    0.21771   0.83333   0.25000   0.00000  Uiso   1.00
C645   C     0.50002   0.91310   0.25003   0.00000  Uiso   1.00
C646   C     0.45912   0.82668   0.40934   0.00000  Uiso   1.00
C647   C     0.53081   0.97847   0.20692   0.00000  Uiso   1.00
C648   C     0.47425   0.83051   0.35139   0.00000  Uiso   1.00
C649   C     0.53064   0.68829   0.20798   0.00000  Uiso   1.00
C650   C     0.49919   0.70953   0.25120   0.00000  Uiso   1.00
C651   C     0.46737   0.68899   0.29446   0.00000  Uiso   1.00
C652   C     0.46909   0.97865   0.29517   0.00000  Uiso   1.00
C653   C     0.50007   0.95738   0.25064   0.00000  Uiso   1.00
C654   C     0.64766   0.79781   0.23489   0.00000  Uiso   1.00
C655   C     0.36233   0.79867   0.23414   0.00000  Uiso   1.00
C656   C     0.48022   0.81727   0.49038   0.00000  Uiso   1.00
C657   C     0.35243   0.86763   0.26751   0.00000  Uiso   1.00
C658   C     0.63805   0.86803   0.26725   0.00000  Uiso   1.00
C659   C     0.49982   0.75359   0.25043   0.00000  Uiso   1.00
C660   C     0.52576   0.82984   0.14836   0.00000  Uiso   1.00
C661   C     0.59899   0.80403   0.00401   0.00000  Uiso   1.00
C662   C     0.53994   0.81815   0.09120   0.00000  Uiso   1.00
C663   C     0.41773   0.84791   0.43904   0.00000  Uiso   1.00
C664   C     0.40891   0.85592   0.49313   0.00000  Uiso   1.00
C665   C     0.43943   0.84069   0.01890   0.00000  Uiso   1.00
C666   C     0.65110   0.80547   0.09528   0.00000  Uiso   1.00
C667   C     0.49004   0.80965   0.43517   0.00000  Uiso   1.00
C668   C     0.38948   0.72103   0.33240   0.00000  Uiso   1.00
C669   C     0.46541   0.94665   0.37867   0.00000  Uiso   1.00
C670   C     0.65795   0.72812   0.18950   0.00000  Uiso   1.00
C671   C     0.62379   0.94247   0.26108   0.00000  Uiso   1.00
C672   C     0.66506   0.75635   0.46958   0.00000  Uiso   1.00
C673   C     0.46761   0.74436   0.11669   0.00000  Uiso   1.00
C674   C     0.56191   0.95652   0.16049   0.00000  Uiso   1.00
C675   C     0.51507   0.80713   0.01391   0.00000  Uiso   1.00
C676   C     0.56198   0.79894   0.48160   0.00000  Uiso   1.00
C677   C     0.56960   0.78611   0.42843   0.00000  Uiso   1.00
C678   C     0.53253   0.78809   0.40698   0.00000  Uiso   1.00
C679   C     0.50455   0.80644   0.06893   0.00000  Uiso   1.00
C680   C     0.58760   0.81810   0.05787   0.00000  Uiso   1.00
H681   H     0.55400   0.70550   0.17471   0.00000  Uiso   1.00
H682   H     0.34744   0.79330   0.06105   0.00000  Uiso   1.00
H683   H     0.62889   0.77893   0.11603   0.00000  Uiso   1.00
H684   H     0.66634   0.82152   0.12365   0.00000  Uiso   1.00
H685   H     0.43444   0.70361   0.37545   0.00000  Uiso   1.00
H686   H     0.37892   0.75394   0.34547   0.00000  Uiso   1.00
H687   H     0.38956   0.71703   0.29034   0.00000  Uiso   1.00
H688   H     0.36281   0.69944   0.35804   0.00000  Uiso   1.00
H689   H     0.40763   0.96820   0.35845   0.00000  Uiso   1.00
H690   H     0.47754   0.97610   0.39326   0.00000  Uiso   1.00
H691   H     0.49638   0.92578   0.36008   0.00000  Uiso   1.00
H692   H     0.38463   0.77111   0.22259   0.00000  Uiso   1.00
H693   H     0.44101   0.93052   0.41360   0.00000  Uiso   1.00
H694   H     0.60866   0.74522   0.26161   0.00000  Uiso   1.00
H695   H     0.63567   0.70496   0.17688   0.00000  Uiso   1.00
H696   H     0.34635   0.71072   0.20974   0.00000  Uiso   1.00
H697   H     0.34806   0.74349   0.15320   0.00000  Uiso   1.00
H698   H     0.60204   0.90679   0.32981   0.00000  Uiso   1.00
H699   H     0.65685   0.95402   0.26724   0.00000  Uiso   1.00
H700   H     0.59577   0.96673   0.27688   0.00000  Uiso   1.00
H701   H     0.62958   0.93801   0.21753   0.00000  Uiso   1.00
H702   H     0.65584   0.81281   0.43531   0.00000  Uiso   1.00
H703   H     0.36646   0.89475   0.28245   0.00000  Uiso   1.00
H704   H     0.37070   0.75619   0.45032   0.00000  Uiso   1.00
H705   H     0.64885   0.73596   0.44572   0.00000  Uiso   1.00
H706   H     0.65696   0.74299   0.01023   0.00000  Uiso   1.00
H707   H     0.43567   0.80437   0.12526   0.00000  Uiso   1.00
H708   H     0.48725   0.72415   0.08194   0.00000  Uiso   1.00
H709   H     0.43250   0.73013   0.13597   0.00000  Uiso   1.00
H710   H     0.48729   0.74546   0.14599   0.00000  Uiso   1.00
H711   H     0.60373   0.77483   0.40310   0.00000  Uiso   1.00
H712   H     0.39463   0.86210   0.41943   0.00000  Uiso   1.00
H713   H     0.43280   0.85058   0.06007   0.00000  Uiso   1.00
H714   H     0.38041   0.87682   0.01425   0.00000  Uiso   1.00
H715   H     0.53898   0.77538   0.36700   0.00000  Uiso   1.00
H716   H     0.64199   0.85886   0.05401   0.00000  Uiso   1.00
N717   N     0.38093   0.83334   0.25001   0.00000  Uiso   1.00
N718   N     0.58677   0.93894   0.12338   0.00000  Uiso   1.00
N719   N     0.61906   0.83331   0.25000   0.00000  Uiso   1.00
N720   N     0.62299   0.83530   0.07733   0.00000  Uiso   1.00
N721   N     0.43563   0.71254   0.33756   0.00000  Uiso   1.00
N722   N     0.44107   0.95598   0.34050   0.00000  Uiso   1.00
N723   N     0.62780   0.75879   0.22598   0.00000  Uiso   1.00
N724   N     0.60892   0.90344   0.28902   0.00000  Uiso   1.00
N725   N     0.64728   0.79902   0.47237   0.00000  Uiso   1.00
N726   N     0.46171   0.78626   0.09895   0.00000  Uiso   1.00
O727   O     0.46179   0.89442   0.25001   0.00000  Uiso   1.00
O728   O     0.53823   0.89441   0.25001   0.00000  Uiso   1.00
O729   O     0.44280   0.83333   0.32681   0.00000  Uiso   1.00
O730   O     0.51924   0.83332   0.32681   0.00000  Uiso   1.00
O731   O     0.46177   0.77226   0.24999   0.00000  Uiso   1.00
O732   O     0.53821   0.77225   0.24999   0.00000  Uiso   1.00
O733   O     0.48076   0.83335   0.17319   0.00000  Uiso   1.00
O734   O     0.55720   0.83334   0.17319   0.00000  Uiso   1.00
Zn735  Zn    0.44896   0.83334   0.25000   0.00000  Uiso   1.00
Zn736  Zn    0.55104   0.83333   0.25000   0.00000  Uiso   1.00
C737   C     0.83335   0.91310   0.25003   0.00000  Uiso   1.00
C738   C     0.79245   0.82668   0.40934   0.00000  Uiso   1.00
C739   C     0.86414   0.97847   0.20692   0.00000  Uiso   1.00
C740   C     0.80758   0.83051   0.35139   0.00000  Uiso   1.00
C741   C     0.86398   0.68829   0.20798   0.00000  Uiso   1.00
C742   C     0.83253   0.70953   0.25120   0.00000  Uiso   1.00
C743   C     0.80070   0.68899   0.29446   0.00000  Uiso   1.00
C744   C     0.80242   0.97865   0.29517   0.00000  Uiso   1.00
C745   C     0.83340   0.95738   0.25064   0.00000  Uiso   1.00
C746   C     0.98099   0.79781   0.23489   0.00000  Uiso   1.00
C747   C     0.69567   0.79867   0.23414   0.00000  Uiso   1.00
C748   C     0.81355   0.81727   0.49038   0.00000  Uiso   1.00
C749   C     0.68577   0.86763   0.26751   0.00000  Uiso   1.00
C750   C     0.97138   0.86803   0.26725   0.00000  Uiso   1.00
C751   C     0.83315   0.75359   0.25043   0.00000  Uiso   1.00
C752   C     0.85909   0.82984   0.14836   0.00000  Uiso   1.00
C753   C     0.93232   0.80403   0.00401   0.00000  Uiso   1.00
C754   C     0.87327   0.81815   0.09120   0.00000  Uiso   1.00
C755   C     0.75106   0.84791   0.43904   0.00000  Uiso   1.00
C756   C     0.74224   0.85592   0.49313   0.00000  Uiso   1.00
C757   C     0.77277   0.84069   0.01890   0.00000  Uiso   1.00
C758   C     0.98444   0.80547   0.09528   0.00000  Uiso   1.00
C759   C     0.82337   0.80965   0.43517   0.00000  Uiso   1.00
C760   C     0.72281   0.72103   0.33240   0.00000  Uiso   1.00
C761   C     0.79874   0.94665   0.37867   0.00000  Uiso   1.00
C762   C     0.99129   0.72812   0.18950   0.00000  Uiso   1.00
C763   C     0.95713   0.94247   0.26108   0.00000  Uiso   1.00
C764   C     0.99839   0.75635   0.46958   0.00000  Uiso   1.00
C765   C     0.80095   0.74436   0.11669   0.00000  Uiso   1.00
C766   C     0.89524   0.95652   0.16049   0.00000  Uiso   1.00
C767   C     0.84841   0.80713   0.01391   0.00000  Uiso   1.00
C768   C     0.89531   0.79894   0.48160   0.00000  Uiso   1.00
C769   C     0.90293   0.78611   0.42843   0.00000  Uiso   1.00
C770   C     0.86586   0.78809   0.40698   0.00000  Uiso   1.00
C771   C     0.83788   0.80644   0.06893   0.00000  Uiso   1.00
C772   C     0.92093   0.81810   0.05787   0.00000  Uiso   1.00
H773   H     0.88733   0.70550   0.17471   0.00000  Uiso   1.00
H774   H     0.68078   0.79330   0.06105   0.00000  Uiso   1.00
H775   H     0.96222   0.77893   0.11603   0.00000  Uiso   1.00
H776   H     0.99967   0.82152   0.12365   0.00000  Uiso   1.00
H777   H     0.76777   0.70361   0.37545   0.00000  Uiso   1.00
H778   H     0.71225   0.75394   0.34547   0.00000  Uiso   1.00
H779   H     0.72289   0.71703   0.29034   0.00000  Uiso   1.00
H780   H     0.69614   0.69944   0.35804   0.00000  Uiso   1.00
H781   H     0.74096   0.96820   0.35845   0.00000  Uiso   1.00
H782   H     0.81088   0.97610   0.39326   0.00000  Uiso   1.00
H783   H     0.82971   0.92578   0.36008   0.00000  Uiso   1.00
H784   H     0.71797   0.77111   0.22259   0.00000  Uiso   1.00
H785   H     0.77434   0.93052   0.41360   0.00000  Uiso   1.00
H786   H     0.94199   0.74522   0.26161   0.00000  Uiso   1.00
H787   H     0.96900   0.70496   0.17688   0.00000  Uiso   1.00
H788   H     0.67968   0.71072   0.20974   0.00000  Uiso   1.00
H789   H     0.68139   0.74349   0.15320   0.00000  Uiso   1.00
H790   H     0.93537   0.90679   0.32981   0.00000  Uiso   1.00
H791   H     0.99019   0.95402   0.26724   0.00000  Uiso   1.00
H792   H     0.92910   0.96673   0.27688   0.00000  Uiso   1.00
H793   H     0.96291   0.93801   0.21753   0.00000  Uiso   1.00
H794   H     0.98917   0.81281   0.43531   0.00000  Uiso   1.00
H795   H     0.69979   0.89475   0.28245   0.00000  Uiso   1.00
H796   H     0.70404   0.75619   0.45032   0.00000  Uiso   1.00
H797   H     0.98218   0.73596   0.44572   0.00000  Uiso   1.00
H798   H     0.99029   0.74299   0.01023   0.00000  Uiso   1.00
H799   H     0.76900   0.80437   0.12526   0.00000  Uiso   1.00
H800   H     0.82058   0.72415   0.08194   0.00000  Uiso   1.00
H801   H     0.76583   0.73013   0.13597   0.00000  Uiso   1.00
H802   H     0.82062   0.74546   0.14599   0.00000  Uiso   1.00
H803   H     0.93706   0.77483   0.40310   0.00000  Uiso   1.00
H804   H     0.72797   0.86210   0.41943   0.00000  Uiso   1.00
H805   H     0.76613   0.85058   0.06007   0.00000  Uiso   1.00
H806   H     0.71375   0.87682   0.01425   0.00000  Uiso   1.00
H807   H     0.87231   0.77538   0.36700   0.00000  Uiso   1.00
H808   H     0.97533   0.85886   0.05401   0.00000  Uiso   1.00
N809   N     0.71426   0.83334   0.25001   0.00000  Uiso   1.00
N810   N     0.92010   0.93894   0.12338   0.00000  Uiso   1.00
N811   N     0.95239   0.83331   0.25000   0.00000  Uiso   1.00
N812   N     0.95632   0.83530   0.07733   0.00000  Uiso   1.00
N813   N     0.76896   0.71254   0.33756   0.00000  Uiso   1.00
N814   N     0.77440   0.95598   0.34050   0.00000  Uiso   1.00
N815   N     0.96113   0.75879   0.22598   0.00000  Uiso   1.00
N816   N     0.94225   0.90344   0.28902   0.00000  Uiso   1.00
N817   N     0.98061   0.79902   0.47237   0.00000  Uiso   1.00
N818   N     0.79504   0.78626   0.09895   0.00000  Uiso   1.00
O819   O     0.79512   0.89442   0.25001   0.00000  Uiso   1.00
O820   O     0.87157   0.89441   0.25001   0.00000  Uiso   1.00
O821   O     0.77613   0.83333   0.32681   0.00000  Uiso   1.00
O822   O     0.85258   0.83332   0.32681   0.00000  Uiso   1.00
O823   O     0.79510   0.77226   0.24999   0.00000  Uiso   1.00
O824   O     0.87154   0.77225   0.24999   0.00000  Uiso   1.00
O825   O     0.81409   0.83335   0.17319   0.00000  Uiso   1.00
O826   O     0.89053   0.83334   0.17319   0.00000  Uiso   1.00
Zn827  Zn    0.78229   0.83334   0.25000   0.00000  Uiso   1.00
Zn828  Zn    0.88438   0.83333   0.25000   0.00000  Uiso   1.00
C829   C     0.16668   0.24644   0.75003   0.00000  Uiso   1.00
C830   C     0.12578   0.16001   0.90934   0.00000  Uiso   1.00
C831   C     0.19748   0.31180   0.70692   0.00000  Uiso   1.00
C832   C     0.14091   0.16384   0.85139   0.00000  Uiso   1.00
C833   C     0.19731   0.02162   0.70798   0.00000  Uiso   1.00
C834   C     0.16586   0.04286   0.75120   0.00000  Uiso   1.00
C835   C     0.13403   0.02232   0.79446   0.00000  Uiso   1.00
C836   C     0.13576   0.31198   0.79517   0.00000  Uiso   1.00
C837   C     0.16673   0.29071   0.75064   0.00000  Uiso   1.00
C838   C     0.31432   0.13114   0.73489   0.00000  Uiso   1.00
C839   C     0.02900   0.13200   0.73414   0.00000  Uiso   1.00
C840   C     0.14689   0.15060   0.99038   0.00000  Uiso   1.00
C841   C     0.01910   0.20096   0.76751   0.00000  Uiso   1.00
C842   C     0.30472   0.20137   0.76725   0.00000  Uiso   1.00
C843   C     0.16649   0.08692   0.75043   0.00000  Uiso   1.00
C844   C     0.19242   0.16317   0.64836   0.00000  Uiso   1.00
C845   C     0.26565   0.13737   0.50401   0.00000  Uiso   1.00
C846   C     0.20661   0.15148   0.59120   0.00000  Uiso   1.00
C847   C     0.08439   0.18125   0.93904   0.00000  Uiso   1.00
C848   C     0.07557   0.18925   0.99313   0.00000  Uiso   1.00
C849   C     0.10610   0.17402   0.51890   0.00000  Uiso   1.00
C850   C     0.31777   0.13880   0.59528   0.00000  Uiso   1.00
C851   C     0.15671   0.14298   0.93517   0.00000  Uiso   1.00
C852   C     0.05614   0.05436   0.83240   0.00000  Uiso   1.00
C853   C     0.13207   0.27999   0.87867   0.00000  Uiso   1.00
C854   C     0.32462   0.06146   0.68950   0.00000  Uiso   1.00
C855   C     0.29046   0.27580   0.76108   0.00000  Uiso   1.00
C856   C     0.33172   0.08968   0.96958   0.00000  Uiso   1.00
C857   C     0.13428   0.07769   0.61669   0.00000  Uiso   1.00
C858   C     0.22858   0.28986   0.66049   0.00000  Uiso   1.00
C859   C     0.18174   0.14046   0.51391   0.00000  Uiso   1.00
C860   C     0.22865   0.13228   0.98160   0.00000  Uiso   1.00
C861   C     0.23626   0.11944   0.92843   0.00000  Uiso   1.00
C862   C     0.19920   0.12143   0.90698   0.00000  Uiso   1.00
C863   C     0.17121   0.13977   0.56893   0.00000  Uiso   1.00
C864   C     0.25426   0.15143   0.55787   0.00000  Uiso   1.00
H865   H     0.22067   0.03884   0.67471   0.00000  Uiso   1.00
H866   H     0.01411   0.12664   0.56105   0.00000  Uiso   1.00
H867   H     0.29555   0.11226   0.61603   0.00000  Uiso   1.00
H868   H     0.33301   0.15485   0.62365   0.00000  Uiso   1.00
H869   H     0.10111   0.03694   0.87545   0.00000  Uiso   1.00
H870   H     0.04558   0.08727   0.84547   0.00000  Uiso   1.00
H871   H     0.05622   0.05036   0.79034   0.00000  Uiso   1.00
H872   H     0.02947   0.03277   0.85804   0.00000  Uiso   1.00
H873   H     0.07430   0.30154   0.85845   0.00000  Uiso   1.00
H874   H     0.14421   0.30943   0.89326   0.00000  Uiso   1.00
H875   H     0.16304   0.25911   0.86008   0.00000  Uiso   1.00
H876   H     0.05130   0.10444   0.72259   0.00000  Uiso   1.00
H877   H     0.10768   0.26385   0.91360   0.00000  Uiso   1.00
H878   H     0.27533   0.07855   0.76161   0.00000  Uiso   1.00
H879   H     0.30234   0.03830   0.67688   0.00000  Uiso   1.00
H880   H     0.01302   0.04405   0.70974   0.00000  Uiso   1.00
H881   H     0.01473   0.07683   0.65320   0.00000  Uiso   1.00
H882   H     0.26871   0.24012   0.82981   0.00000  Uiso   1.00
H883   H     0.32352   0.28736   0.76724   0.00000  Uiso   1.00
H884   H     0.26243   0.30006   0.77688   0.00000  Uiso   1.00
H885   H     0.29625   0.27134   0.71753   0.00000  Uiso   1.00
H886   H     0.32250   0.14615   0.93531   0.00000  Uiso   1.00
H887   H     0.03313   0.22808   0.78245   0.00000  Uiso   1.00
H888   H     0.03737   0.08953   0.95032   0.00000  Uiso   1.00
H889   H     0.31552   0.06930   0.94572   0.00000  Uiso   1.00
H890   H     0.32363   0.07632   0.51023   0.00000  Uiso   1.00
H891   H     0.10234   0.13770   0.62526   0.00000  Uiso   1.00
H892   H     0.15392   0.05748   0.58194   0.00000  Uiso   1.00
H893   H     0.09917   0.06346   0.63597   0.00000  Uiso   1.00
H894   H     0.15396   0.07880   0.64599   0.00000  Uiso   1.00
H895   H     0.27040   0.10816   0.90310   0.00000  Uiso   1.00
H896   H     0.06130   0.19543   0.91943   0.00000  Uiso   1.00
H897   H     0.09947   0.18391   0.56007   0.00000  Uiso   1.00
H898   H     0.04708   0.21015   0.51425   0.00000  Uiso   1.00
H899   H     0.20564   0.10871   0.86700   0.00000  Uiso   1.00
H900   H     0.30866   0.19220   0.55401   0.00000  Uiso   1.00
N901   N     0.04760   0.16668   0.75001   0.00000  Uiso   1.00
N902   N     0.25344   0.27227   0.62338   0.00000  Uiso   1.00
N903   N     0.28573   0.16665   0.75000   0.00000  Uiso   1.00
N904   N     0.28965   0.16863   0.57733   0.00000  Uiso   1.00
N905   N     0.10230   0.04587   0.83756   0.00000  Uiso   1.00
N906   N     0.10773   0.28931   0.84050   0.00000  Uiso   1.00
N907   N     0.29446   0.09212   0.72598   0.00000  Uiso   1.00
N908   N     0.27559   0.23678   0.78902   0.00000  Uiso   1.00
N909   N     0.31395   0.13235   0.97237   0.00000  Uiso   1.00
N910   N     0.12838   0.11960   0.59895   0.00000  Uiso   1.00
O911   O     0.12846   0.22775   0.75001   0.00000  Uiso   1.00
O912   O     0.20490   0.22774   0.75001   0.00000  Uiso   1.00
O913   O     0.10947   0.16666   0.82681   0.00000  Uiso   1.00
O914   O     0.18591   0.16665   0.82681   0.00000  Uiso   1.00
O915   O     0.12843   0.10559   0.74999   0.00000  Uiso   1.00
O916   O     0.20488   0.10558   0.74999   0.00000  Uiso   1.00
O917   O     0.14742   0.16668   0.67319   0.00000  Uiso   1.00
O918   O     0.22387   0.16667   0.67319   0.00000  Uiso   1.00
Zn919  Zn    0.11562   0.16667   0.75000   0.00000  Uiso   1.00
Zn920  Zn    0.21771   0.16666   0.75000   0.00000  Uiso   1.00
C921   C     0.50002   0.24644   0.75003   0.00000  Uiso   1.00
C922   C     0.45912   0.16001   0.90934   0.00000  Uiso   1.00
C923   C     0.53081   0.31180   0.70692   0.00000  Uiso   1.00
C924   C     0.47425   0.16384   0.85139   0.00000  Uiso   1.00
C925   C     0.53064   0.02162   0.70798   0.00000  Uiso   1.00
C926   C     0.49919   0.04286   0.75120   0.00000  Uiso   1.00
C927   C     0.46737   0.02232   0.79446   0.00000  Uiso   1.00
C928   C     0.46909   0.31198   0.79517   0.00000  Uiso   1.00
C929   C     0.50007   0.29071   0.75064   0.00000  Uiso   1.00
C930   C     0.64766   0.13114   0.73489   0.00000  Uiso   1.00
C931   C     0.36233   0.13200   0.73414   0.00000  Uiso   1.00
C932   C     0.48022   0.15060   0.99038   0.00000  Uiso   1.00
C933   C     0.35243   0.20096   0.76751   0.00000  Uiso   1.00
C934   C     0.63805   0.20137   0.76725   0.00000  Uiso   1.00
C935   C     0.49982   0.08692   0.75043   0.00000  Uiso   1.00
C936   C     0.52576   0.16317   0.64836   0.00000  Uiso   1.00
C937   C     0.59899   0.13737   0.50401   0.00000  Uiso   1.00
C938   C     0.53994   0.15148   0.59120   0.00000  Uiso   1.00
C939   C     0.41773   0.18125   0.93904   0.00000  Uiso   1.00
C940   C     0.40891   0.18925   0.99313   0.00000  Uiso   1.00
C941   C     0.43943   0.17402   0.51890   0.00000  Uiso   1.00
C942   C     0.65110   0.13880   0.59528   0.00000  Uiso   1.00
C943   C     0.49004   0.14298   0.93517   0.00000  Uiso   1.00
C944   C     0.38948   0.05436   0.83240   0.00000  Uiso   1.00
C945   C     0.46541   0.27999   0.87867   0.00000  Uiso   1.00
C946   C     0.65795   0.06146   0.68950   0.00000  Uiso   1.00
C947   C     0.62379   0.27580   0.76108   0.00000  Uiso   1.00
C948   C     0.66506   0.08968   0.96958   0.00000  Uiso   1.00
C949   C     0.46761   0.07769   0.61669   0.00000  Uiso   1.00
C950   C     0.56191   0.28986   0.66049   0.00000  Uiso   1.00
C951   C     0.51507   0.14046   0.51391   0.00000  Uiso   1.00
C952   C     0.56198   0.13228   0.98160   0.00000  Uiso   1.00
C953   C     0.56960   0.11944   0.92843   0.00000  Uiso   1.00
C954   C     0.53253   0.12143   0.90698   0.00000  Uiso   1.00
C955   C     0.50455   0.13977   0.56893   0.00000  Uiso   1.00
C956   C     0.58760   0.15143   0.55787   0.00000  Uiso   1.00
H957   H     0.55400   0.03884   0.67471   0.00000  Uiso   1.00
H958   H     0.34744   0.12664   0.56105   0.00000  Uiso   1.00
H959   H     0.62889   0.11226   0.61603   0.00000  Uiso   1.00
H960   H     0.66634   0.15485   0.62365   0.00000  Uiso   1.00
H961   H     0.43444   0.03694   0.87545   0.00000  Uiso   1.00
H962   H     0.37892   0.08727   0.84547   0.00000  Uiso   1.00
H963   H     0.38956   0.05036   0.79034   0.00000  Uiso   1.00
H964   H     0.36281   0.03277   0.85804   0.00000  Uiso   1.00
H965   H     0.40763   0.30154   0.85845   0.00000  Uiso   1.00
H966   H     0.47754   0.30943   0.89326   0.00000  Uiso   1.00
H967   H     0.49638   0.25911   0.86008   0.00000  Uiso   1.00
H968   H     0.38463   0.10444   0.72259   0.00000  Uiso   1.00
H969   H     0.44101   0.26385   0.91360   0.00000  Uiso   1.00
H970   H     0.60866   0.07855   0.76161   0.00000  Uiso   1.00
H971   H     0.63567   0.03830   0.67688   0.00000  Uiso   1.00
H972   H     0.34635   0.04405   0.70974   0.00000  Uiso   1.00
H973   H     0.34806   0.07683   0.65320   0.00000  Uiso   1.00
H974   H     0.60204   0.24012   0.82981   0.00000  Uiso   1.00
H975   H     0.65685   0.28736   0.76724   0.00000  Uiso   1.00
H976   H     0.59577   0.30006   0.77688   0.00000  Uiso   1.00
H977   H     0.62958   0.27134   0.71753   0.00000  Uiso   1.00
H978   H     0.65584   0.14615   0.93531   0.00000  Uiso   1.00
H979   H     0.36646   0.22808   0.78245   0.00000  Uiso   1.00
H980   H     0.37070   0.08953   0.95032   0.00000  Uiso   1.00
H981   H     0.64885   0.06930   0.94572   0.00000  Uiso   1.00
H982   H     0.65696   0.07632   0.51023   0.00000  Uiso   1.00
H983   H     0.43567   0.13770   0.62526   0.00000  Uiso   1.00
H984   H     0.48725   0.05748   0.58194   0.00000  Uiso   1.00
H985   H     0.43250   0.06346   0.63597   0.00000  Uiso   1.00
H986   H     0.48729   0.07880   0.64599   0.00000  Uiso   1.00
H987   H     0.60373   0.10816   0.90310   0.00000  Uiso   1.00
H988   H     0.39463   0.19543   0.91943   0.00000  Uiso   1.00
H989   H     0.43280   0.18391   0.56007   0.00000  Uiso   1.00
H990   H     0.38041   0.21015   0.51425   0.00000  Uiso   1.00
H991   H     0.53898   0.10871   0.86700   0.00000  Uiso   1.00
H992   H     0.64199   0.19220   0.55401   0.00000  Uiso   1.00
N993   N     0.38093   0.16668   0.75001   0.00000  Uiso   1.00
N994   N     0.58677   0.27227   0.62338   0.00000  Uiso   1.00
N995   N     0.61906   0.16665   0.75000   0.00000  Uiso   1.00
N996   N     0.62299   0.16863   0.57733   0.00000  Uiso   1.00
N997   N     0.43563   0.04587   0.83756   0.00000  Uiso   1.00
N998   N     0.44107   0.28931   0.84050   0.00000  Uiso   1.00
N999   N     0.62780   0.09212   0.72598   0.00000  Uiso   1.00
N1000  N     0.60892   0.23678   0.78902   0.00000  Uiso   1.00
N1001  N     0.64728   0.13235   0.97237   0.00000  Uiso   1.00
N1002  N     0.46171   0.11960   0.59895   0.00000  Uiso   1.00
O1003  O     0.46179   0.22775   0.75001   0.00000  Uiso   1.00
O1004  O     0.53823   0.22774   0.75001   0.00000  Uiso   1.00
O1005  O     0.44280   0.16666   0.82681   0.00000  Uiso   1.00
O1006  O     0.51924   0.16665   0.82681   0.00000  Uiso   1.00
O1007  O     0.46177   0.10559   0.74999   0.00000  Uiso   1.00
O1008  O     0.53821   0.10558   0.74999   0.00000  Uiso   1.00
O1009  O     0.48076   0.16668   0.67319   0.00000  Uiso   1.00
O1010  O     0.55720   0.16667   0.67319   0.00000  Uiso   1.00
Zn1011 Zn    0.44896   0.16667   0.75000   0.00000  Uiso   1.00
Zn1012 Zn    0.55104   0.16666   0.75000   0.00000  Uiso   1.00
C1013  C     0.83335   0.24644   0.75003   0.00000  Uiso   1.00
C1014  C     0.79245   0.16001   0.90934   0.00000  Uiso   1.00
C1015  C     0.86414   0.31180   0.70692   0.00000  Uiso   1.00
C1016  C     0.80758   0.16384   0.85139   0.00000  Uiso   1.00
C1017  C     0.86398   0.02162   0.70798   0.00000  Uiso   1.00
C1018  C     0.83253   0.04286   0.75120   0.00000  Uiso   1.00
C1019  C     0.80070   0.02232   0.79446   0.00000  Uiso   1.00
C1020  C     0.80242   0.31198   0.79517   0.00000  Uiso   1.00
C1021  C     0.83340   0.29071   0.75064   0.00000  Uiso   1.00
C1022  C     0.98099   0.13114   0.73489   0.00000  Uiso   1.00
C1023  C     0.69567   0.13200   0.73414   0.00000  Uiso   1.00
C1024  C     0.81355   0.15060   0.99038   0.00000  Uiso   1.00
C1025  C     0.68577   0.20096   0.76751   0.00000  Uiso   1.00
C1026  C     0.97138   0.20137   0.76725   0.00000  Uiso   1.00
C1027  C     0.83315   0.08692   0.75043   0.00000  Uiso   1.00
C1028  C     0.85909   0.16317   0.64836   0.00000  Uiso   1.00
C1029  C     0.93232   0.13737   0.50401   0.00000  Uiso   1.00
C1030  C     0.87327   0.15148   0.59120   0.00000  Uiso   1.00
C1031  C     0.75106   0.18125   0.93904   0.00000  Uiso   1.00
C1032  C     0.74224   0.18925   0.99313   0.00000  Uiso   1.00
C1033  C     0.77277   0.17402   0.51890   0.00000  Uiso   1.00
C1034  C     0.98444   0.13880   0.59528   0.00000  Uiso   1.00
C1035  C     0.82337   0.14298   0.93517   0.00000  Uiso   1.00
C1036  C     0.72281   0.05436   0.83240   0.00000  Uiso   1.00
C1037  C     0.79874   0.27999   0.87867   0.00000  Uiso   1.00
C1038  C     0.99129   0.06146   0.68950   0.00000  Uiso   1.00
C1039  C     0.95713   0.27580   0.76108   0.00000  Uiso   1.00
C1040  C     0.99839   0.08968   0.96958   0.00000  Uiso   1.00
C1041  C     0.80095   0.07769   0.61669   0.00000  Uiso   1.00
C1042  C     0.89524   0.28986   0.66049   0.00000  Uiso   1.00
C1043  C     0.84841   0.14046   0.51391   0.00000  Uiso   1.00
C1044  C     0.89531   0.13228   0.98160   0.00000  Uiso   1.00
C1045  C     0.90293   0.11944   0.92843   0.00000  Uiso   1.00
C1046  C     0.86586   0.12143   0.90698   0.00000  Uiso   1.00
C1047  C     0.83788   0.13977   0.56893   0.00000  Uiso   1.00
C1048  C     0.92093   0.15143   0.55787   0.00000  Uiso   1.00
H1049  H     0.88733   0.03884   0.67471   0.00000  Uiso   1.00
H1050  H     0.68078   0.12664   0.56105   0.00000  Uiso   1.00
H1051  H     0.96222   0.11226   0.61603   0.00000  Uiso   1.00
H1052  H     0.99967   0.15485   0.62365   0.00000  Uiso   1.00
H1053  H     0.76777   0.03694   0.87545   0.00000  Uiso   1.00
H1054  H     0.71225   0.08727   0.84547   0.00000  Uiso   1.00
H1055  H     0.72289   0.05036   0.79034   0.00000  Uiso   1.00
H1056  H     0.69614   0.03277   0.85804   0.00000  Uiso   1.00
H1057  H     0.74096   0.30154   0.85845   0.00000  Uiso   1.00
H1058  H     0.81088   0.30943   0.89326   0.00000  Uiso   1.00
H1059  H     0.82971   0.25911   0.86008   0.00000  Uiso   1.00
H1060  H     0.71797   0.10444   0.72259   0.00000  Uiso   1.00
H1061  H     0.77434   0.26385   0.91360   0.00000  Uiso   1.00
H1062  H     0.94199   0.07855   0.76161   0.00000  Uiso   1.00
H1063  H     0.96900   0.03830   0.67688   0.00000  Uiso   1.00
H1064  H     0.67968   0.04405   0.70974   0.00000  Uiso   1.00
H1065  H     0.68139   0.07683   0.65320   0.00000  Uiso   1.00
H1066  H     0.93537   0.24012   0.82981   0.00000  Uiso   1.00
H1067  H     0.99019   0.28736   0.76724   0.00000  Uiso   1.00
H1068  H     0.92910   0.30006   0.77688   0.00000  Uiso   1.00
H1069  H     0.96291   0.27134   0.71753   0.00000  Uiso   1.00
H1070  H     0.98917   0.14615   0.93531   0.00000  Uiso   1.00
H1071  H     0.69979   0.22808   0.78245   0.00000  Uiso   1.00
H1072  H     0.70404   0.08953   0.95032   0.00000  Uiso   1.00
H1073  H     0.98218   0.06930   0.94572   0.00000  Uiso   1.00
H1074  H     0.99029   0.07632   0.51023   0.00000  Uiso   1.00
H1075  H     0.76900   0.13770   0.62526   0.00000  Uiso   1.00
H1076  H     0.82058   0.05748   0.58194   0.00000  Uiso   1.00
H1077  H     0.76583   0.06346   0.63597   0.00000  Uiso   1.00
H1078  H     0.82062   0.07880   0.64599   0.00000  Uiso   1.00
H1079  H     0.93706   0.10816   0.90310   0.00000  Uiso   1.00
H1080  H     0.72797   0.19543   0.91943   0.00000  Uiso   1.00
H1081  H     0.76613   0.18391   0.56007   0.00000  Uiso   1.00
H1082  H     0.71375   0.21015   0.51425   0.00000  Uiso   1.00
H1083  H     0.87231   0.10871   0.86700   0.00000  Uiso   1.00
H1084  H     0.97533   0.19220   0.55401   0.00000  Uiso   1.00
N1085  N     0.71426   0.16668   0.75001   0.00000  Uiso   1.00
N1086  N     0.92010   0.27227   0.62338   0.00000  Uiso   1.00
N1087  N     0.95239   0.16665   0.75000   0.00000  Uiso   1.00
N1088  N     0.95632   0.16863   0.57733   0.00000  Uiso   1.00
N1089  N     0.76896   0.04587   0.83756   0.00000  Uiso   1.00
N1090  N     0.77440   0.28931   0.84050   0.00000  Uiso   1.00
N1091  N     0.96113   0.09212   0.72598   0.00000  Uiso   1.00
N1092  N     0.94225   0.23678   0.78902   0.00000  Uiso   1.00
N1093  N     0.98061   0.13235   0.97237   0.00000  Uiso   1.00
N1094  N     0.79504   0.11960   0.59895   0.00000  Uiso   1.00
O1095  O     0.79512   0.22775   0.75001   0.00000  Uiso   1.00
O1096  O     0.87157   0.22774   0.75001   0.00000  Uiso   1.00
O1097  O     0.77613   0.16666   0.82681   0.00000  Uiso   1.00
O1098  O     0.85258   0.16665   0.82681   0.00000  Uiso   1.00
O1099  O     0.79510   0.10559   0.74999   0.00000  Uiso   1.00
O1100  O     0.87154   0.10558   0.74999   0.00000  Uiso   1.00
O1101  O     0.81409   0.16668   0.67319   0.00000  Uiso   1.00
O1102  O     0.89053   0.16667   0.67319   0.00000  Uiso   1.00
Zn1103 Zn    0.78229   0.16667   0.75000   0.00000  Uiso   1.00
Zn1104 Zn    0.88438   0.16666   0.75000   0.00000  Uiso   1.00
C1105  C     0.16668   0.57977   0.75003   0.00000  Uiso   1.00
C1106  C     0.12578   0.49334   0.90934   0.00000  Uiso   1.00
C1107  C     0.19748   0.64513   0.70692   0.00000  Uiso   1.00
C1108  C     0.14091   0.49718   0.85139   0.00000  Uiso   1.00
C1109  C     0.19731   0.35495   0.70798   0.00000  Uiso   1.00
C1110  C     0.16586   0.37620   0.75120   0.00000  Uiso   1.00
C1111  C     0.13403   0.35565   0.79446   0.00000  Uiso   1.00
C1112  C     0.13576   0.64531   0.79517   0.00000  Uiso   1.00
C1113  C     0.16673   0.62404   0.75064   0.00000  Uiso   1.00
C1114  C     0.31432   0.46448   0.73489   0.00000  Uiso   1.00
C1115  C     0.02900   0.46533   0.73414   0.00000  Uiso   1.00
C1116  C     0.14689   0.48393   0.99038   0.00000  Uiso   1.00
C1117  C     0.01910   0.53430   0.76751   0.00000  Uiso   1.00
C1118  C     0.30472   0.53470   0.76725   0.00000  Uiso   1.00
C1119  C     0.16649   0.42025   0.75043   0.00000  Uiso   1.00
C1120  C     0.19242   0.49650   0.64836   0.00000  Uiso   1.00
C1121  C     0.26565   0.47070   0.50401   0.00000  Uiso   1.00
C1122  C     0.20661   0.48481   0.59120   0.00000  Uiso   1.00
C1123  C     0.08439   0.51458   0.93904   0.00000  Uiso   1.00
C1124  C     0.07557   0.52258   0.99313   0.00000  Uiso   1.00
C1125  C     0.10610   0.50735   0.51890   0.00000  Uiso   1.00
C1126  C     0.31777   0.47213   0.59528   0.00000  Uiso   1.00
C1127  C     0.15671   0.47631   0.93517   0.00000  Uiso   1.00
C1128  C     0.05614   0.38770   0.83240   0.00000  Uiso   1.00
C1129  C     0.13207   0.61332   0.87867   0.00000  Uiso   1.00
C1130  C     0.32462   0.39479   0.68950   0.00000  Uiso   1.00
C1131  C     0.29046   0.60914   0.76108   0.00000  Uiso   1.00
C1132  C     0.33172   0.42301   0.96958   0.00000  Uiso   1.00
C1133  C     0.13428   0.41103   0.61669   0.00000  Uiso   1.00
C1134  C     0.22858   0.62319   0.66049   0.00000  Uiso   1.00
C1135  C     0.18174   0.47379   0.51391   0.00000  Uiso   1.00
C1136  C     0.22865   0.46561   0.98160   0.00000  Uiso   1.00
C1137  C     0.23626   0.45277   0.92843   0.00000  Uiso   1.00
C1138  C     0.19920   0.45476   0.90698   0.00000  Uiso   1.00
C1139  C     0.17121   0.47310   0.56893   0.00000  Uiso   1.00
C1140  C     0.25426   0.48476   0.55787   0.00000  Uiso   1.00
H1141  H     0.22067   0.37217   0.67471   0.00000  Uiso   1.00
H1142  H     0.01411   0.45997   0.56105   0.00000  Uiso   1.00
H1143  H     0.29555   0.44559   0.61603   0.00000  Uiso   1.00
H1144  H     0.33301   0.48819   0.62365   0.00000  Uiso   1.00
H1145  H     0.10111   0.37027   0.87545   0.00000  Uiso   1.00
H1146  H     0.04558   0.42060   0.84547   0.00000  Uiso   1.00
H1147  H     0.05622   0.38370   0.79034   0.00000  Uiso   1.00
H1148  H     0.02947   0.36611   0.85804   0.00000  Uiso   1.00
H1149  H     0.07430   0.63487   0.85845   0.00000  Uiso   1.00
H1150  H     0.14421   0.64276   0.89326   0.00000  Uiso   1.00
H1151  H     0.16304   0.59244   0.86008   0.00000  Uiso   1.00
H1152  H     0.05130   0.43778   0.72259   0.00000  Uiso   1.00
H1153  H     0.10768   0.59719   0.91360   0.00000  Uiso   1.00
H1154  H     0.27533   0.41189   0.76161   0.00000  Uiso   1.00
H1155  H     0.30234   0.37163   0.67688   0.00000  Uiso   1.00
H1156  H     0.01302   0.37739   0.70974   0.00000  Uiso   1.00
H1157  H     0.01473   0.41016   0.65320   0.00000  Uiso   1.00
H1158  H     0.26871   0.57346   0.82981   0.00000  Uiso   1.00
H1159  H     0.32352   0.62069   0.76724   0.00000  Uiso   1.00
H1160  H     0.26243   0.63339   0.77688   0.00000  Uiso   1.00
H1161  H     0.29625   0.60468   0.71753   0.00000  Uiso   1.00
H1162  H     0.32250   0.47948   0.93531   0.00000  Uiso   1.00
H1163  H     0.03313   0.56141   0.78245   0.00000  Uiso   1.00
H1164  H     0.03737   0.42286   0.95032   0.00000  Uiso   1.00
H1165  H     0.31552   0.40263   0.94572   0.00000  Uiso   1.00
H1166  H     0.32363   0.40966   0.51023   0.00000  Uiso   1.00
H1167  H     0.10234   0.47104   0.62526   0.00000  Uiso   1.00
H1168  H     0.15392   0.39082   0.58194   0.00000  Uiso   1.00
H1169  H     0.09917   0.39679   0.63597   0.00000  Uiso   1.00
H1170  H     0.15396   0.41213   0.64599   0.00000  Uiso   1.00
H1171  H     0.27040   0.44149   0.90310   0.00000  Uiso   1.00
H1172  H     0.06130   0.52876   0.91943   0.00000  Uiso   1.00
H1173  H     0.09947   0.51724   0.56007   0.00000  Uiso   1.00
H1174  H     0.04708   0.54349   0.51425   0.00000  Uiso   1.00
H1175  H     0.20564   0.44205   0.86700   0.00000  Uiso   1.00
H1176  H     0.30866   0.52553   0.55401   0.00000  Uiso   1.00
N1177  N     0.04760   0.50001   0.75001   0.00000  Uiso   1.00
N1178  N     0.25344   0.60560   0.62338   0.00000  Uiso   1.00
N1179  N     0.28573   0.49998   0.75000   0.00000  Uiso   1.00
N1180  N     0.28965   0.50196   0.57733   0.00000  Uiso   1.00
N1181  N     0.10230   0.37921   0.83756   0.00000  Uiso   1.00
N1182  N     0.10773   0.62265   0.84050   0.00000  Uiso   1.00
N1183  N     0.29446   0.42546   0.72598   0.00000  Uiso   1.00
N1184  N     0.27559   0.57011   0.78902   0.00000  Uiso   1.00
N1185  N     0.31395   0.46569   0.97237   0.00000  Uiso   1.00
N1186  N     0.12838   0.45293   0.59895   0.00000  Uiso   1.00
O1187  O     0.12846   0.56108   0.75001   0.00000  Uiso   1.00
O1188  O     0.20490   0.56107   0.75001   0.00000  Uiso   1.00
O1189  O     0.10947   0.50000   0.82681   0.00000  Uiso   1.00
O1190  O     0.18591   0.49999   0.82681   0.00000  Uiso   1.00
O1191  O     0.12843   0.43893   0.74999   0.00000  Uiso   1.00
O1192  O     0.20488   0.43892   0.74999   0.00000  Uiso   1.00
O1193  O     0.14742   0.50001   0.67319   0.00000  Uiso   1.00
O1194  O     0.22387   0.50000   0.67319   0.00000  Uiso   1.00
Zn1195 Zn    0.11562   0.50001   0.75000   0.00000  Uiso   1.00
Zn1196 Zn    0.21771   0.49999   0.75000   0.00000  Uiso   1.00
C1197  C     0.50002   0.57977   0.75003   0.00000  Uiso   1.00
C1198  C     0.45912   0.49334   0.90934   0.00000  Uiso   1.00
C1199  C     0.53081   0.64513   0.70692   0.00000  Uiso   1.00
C1200  C     0.47425   0.49718   0.85139   0.00000  Uiso   1.00
C1201  C     0.53064   0.35495   0.70798   0.00000  Uiso   1.00
C1202  C     0.49919   0.37620   0.75120   0.00000  Uiso   1.00
C1203  C     0.46737   0.35565   0.79446   0.00000  Uiso   1.00
C1204  C     0.46909   0.64531   0.79517   0.00000  Uiso   1.00
C1205  C     0.50007   0.62404   0.75064   0.00000  Uiso   1.00
C1206  C     0.64766   0.46448   0.73489   0.00000  Uiso   1.00
C1207  C     0.36233   0.46533   0.73414   0.00000  Uiso   1.00
C1208  C     0.48022   0.48393   0.99038   0.00000  Uiso   1.00
C1209  C     0.35243   0.53430   0.76751   0.00000  Uiso   1.00
C1210  C     0.63805   0.53470   0.76725   0.00000  Uiso   1.00
C1211  C     0.49982   0.42025   0.75043   0.00000  Uiso   1.00
C1212  C     0.52576   0.49650   0.64836   0.00000  Uiso   1.00
C1213  C     0.59899   0.47070   0.50401   0.00000  Uiso   1.00
C1214  C     0.53994   0.48481   0.59120   0.00000  Uiso   1.00
C1215  C     0.41773   0.51458   0.93904   0.00000  Uiso   1.00
C1216  C     0.40891   0.52258   0.99313   0.00000  Uiso   1.00
C1217  C     0.43943   0.50735   0.51890   0.00000  Uiso   1.00
C1218  C     0.65110   0.47213   0.59528   0.00000  Uiso   1.00
C1219  C     0.49004   0.47631   0.93517   0.00000  Uiso   1.00
C1220  C     0.38948   0.38770   0.83240   0.00000  Uiso   1.00
C1221  C     0.46541   0.61332   0.87867   0.00000  Uiso   1.00
C1222  C     0.65795   0.39479   0.68950   0.00000  Uiso   1.00
C1223  C     0.62379   0.60914   0.76108   0.00000  Uiso   1.00
C1224  C     0.66506   0.42301   0.96958   0.00000  Uiso   1.00
C1225  C     0.46761   0.41103   0.61669   0.00000  Uiso   1.00
C1226  C     0.56191   0.62319   0.66049   0.00000  Uiso   1.00
C1227  C     0.51507   0.47379   0.51391   0.00000  Uiso   1.00
C1228  C     0.56198   0.46561   0.98160   0.00000  Uiso   1.00
C1229  C     0.56960   0.45277   0.92843   0.00000  Uiso   1.00
C1230  C     0.53253   0.45476   0.90698   0.00000  Uiso   1.00
C1231  C     0.50455   0.47310   0.56893   0.00000  Uiso   1.00
C1232  C     0.58760   0.48476   0.55787   0.00000  Uiso   1.00
H1233  H     0.55400   0.37217   0.67471   0.00000  Uiso   1.00
H1234  H     0.34744   0.45997   0.56105   0.00000  Uiso   1.00
H1235  H     0.62889   0.44559   0.61603   0.00000  Uiso   1.00
H1236  H     0.66634   0.48819   0.62365   0.00000  Uiso   1.00
H1237  H     0.43444   0.37027   0.87545   0.00000  Uiso   1.00
H1238  H     0.37892   0.42060   0.84547   0.00000  Uiso   1.00
H1239  H     0.38956   0.38370   0.79034   0.00000  Uiso   1.00
H1240  H     0.36281   0.36611   0.85804   0.00000  Uiso   1.00
H1241  H     0.40763   0.63487   0.85845   0.00000  Uiso   1.00
H1242  H     0.47754   0.64276   0.89326   0.00000  Uiso   1.00
H1243  H     0.49638   0.59244   0.86008   0.00000  Uiso   1.00
H1244  H     0.38463   0.43778   0.72259   0.00000  Uiso   1.00
H1245  H     0.44101   0.59719   0.91360   0.00000  Uiso   1.00
H1246  H     0.60866   0.41189   0.76161   0.00000  Uiso   1.00
H1247  H     0.63567   0.37163   0.67688   0.00000  Uiso   1.00
H1248  H     0.34635   0.37739   0.70974   0.00000  Uiso   1.00
H1249  H     0.34806   0.41016   0.65320   0.00000  Uiso   1.00
H1250  H     0.60204   0.57346   0.82981   0.00000  Uiso   1.00
H1251  H     0.65685   0.62069   0.76724   0.00000  Uiso   1.00
H1252  H     0.59577   0.63339   0.77688   0.00000  Uiso   1.00
H1253  H     0.62958   0.60468   0.71753   0.00000  Uiso   1.00
H1254  H     0.65584   0.47948   0.93531   0.00000  Uiso   1.00
H1255  H     0.36646   0.56141   0.78245   0.00000  Uiso   1.00
H1256  H     0.37070   0.42286   0.95032   0.00000  Uiso   1.00
H1257  H     0.64885   0.40263   0.94572   0.00000  Uiso   1.00
H1258  H     0.65696   0.40966   0.51023   0.00000  Uiso   1.00
H1259  H     0.43567   0.47104   0.62526   0.00000  Uiso   1.00
H1260  H     0.48725   0.39082   0.58194   0.00000  Uiso   1.00
H1261  H     0.43250   0.39679   0.63597   0.00000  Uiso   1.00
H1262  H     0.48729   0.41213   0.64599   0.00000  Uiso   1.00
H1263  H     0.60373   0.44149   0.90310   0.00000  Uiso   1.00
H1264  H     0.39463   0.52876   0.91943   0.00000  Uiso   1.00
H1265  H     0.43280   0.51724   0.56007   0.00000  Uiso   1.00
H1266  H     0.38041   0.54349   0.51425   0.00000  Uiso   1.00
H1267  H     0.53898   0.44205   0.86700   0.00000  Uiso   1.00
H1268  H     0.64199   0.52553   0.55401   0.00000  Uiso   1.00
N1269  N     0.38093   0.50001   0.75001   0.00000  Uiso   1.00
N1270  N     0.58677   0.60560   0.62338   0.00000  Uiso   1.00
N1271  N     0.61906   0.49998   0.75000   0.00000  Uiso   1.00
N1272  N     0.62299   0.50196   0.57733   0.00000  Uiso   1.00
N1273  N     0.43563   0.37921   0.83756   0.00000  Uiso   1.00
N1274  N     0.44107   0.62265   0.84050   0.00000  Uiso   1.00
N1275  N     0.62780   0.42546   0.72598   0.00000  Uiso   1.00
N1276  N     0.60892   0.57011   0.78902   0.00000  Uiso   1.00
N1277  N     0.64728   0.46569   0.97237   0.00000  Uiso   1.00
N1278  N     0.46171   0.45293   0.59895   0.00000  Uiso   1.00
O1279  O     0.46179   0.56108   0.75001   0.00000  Uiso   1.00
O1280  O     0.53823   0.56107   0.75001   0.00000  Uiso   1.00
O1281  O     0.44280   0.50000   0.82681   0.00000  Uiso   1.00
O1282  O     0.51924   0.49999   0.82681   0.00000  Uiso   1.00
O1283  O     0.46177   0.43893   0.74999   0.00000  Uiso   1.00
O1284  O     0.53821   0.43892   0.74999   0.00000  Uiso   1.00
O1285  O     0.48076   0.50001   0.67319   0.00000  Uiso   1.00
O1286  O     0.55720   0.50000   0.67319   0.00000  Uiso   1.00
Zn1287 Zn    0.44896   0.50001   0.75000   0.00000  Uiso   1.00
Zn1288 Zn    0.55104   0.49999   0.75000   0.00000  Uiso   1.00
C1289  C     0.83335   0.57977   0.75003   0.00000  Uiso   1.00
C1290  C     0.79245   0.49334   0.90934   0.00000  Uiso   1.00
C1291  C     0.86414   0.64513   0.70692   0.00000  Uiso   1.00
C1292  C     0.80758   0.49718   0.85139   0.00000  Uiso   1.00
C1293  C     0.86398   0.35495   0.70798   0.00000  Uiso   1.00
C1294  C     0.83253   0.37620   0.75120   0.00000  Uiso   1.00
C1295  C     0.80070   0.35565   0.79446   0.00000  Uiso   1.00
C1296  C     0.80242   0.64531   0.79517   0.00000  Uiso   1.00
C1297  C     0.83340   0.62404   0.75064   0.00000  Uiso   1.00
C1298  C     0.98099   0.46448   0.73489   0.00000  Uiso   1.00
C1299  C     0.69567   0.46533   0.73414   0.00000  Uiso   1.00
C1300  C     0.81355   0.48393   0.99038   0.00000  Uiso   1.00
C1301  C     0.68577   0.53430   0.76751   0.00000  Uiso   1.00
C1302  C     0.97138   0.53470   0.76725   0.00000  Uiso   1.00
C1303  C     0.83315   0.42025   0.75043   0.00000  Uiso   1.00
C1304  C     0.85909   0.49650   0.64836   0.00000  Uiso   1.00
C1305  C     0.93232   0.47070   0.50401   0.00000  Uiso   1.00
C1306  C     0.87327   0.48481   0.59120   0.00000  Uiso   1.00
C1307  C     0.75106   0.51458   0.93904   0.00000  Uiso   1.00
C1308  C     0.74224   0.52258   0.99313   0.00000  Uiso   1.00
C1309  C     0.77277   0.50735   0.51890   0.00000  Uiso   1.00
C1310  C     0.98444   0.47213   0.59528   0.00000  Uiso   1.00
C1311  C     0.82337   0.47631   0.93517   0.00000  Uiso   1.00
C1312  C     0.72281   0.38770   0.83240   0.00000  Uiso   1.00
C1313  C     0.79874   0.61332   0.87867   0.00000  Uiso   1.00
C1314  C     0.99129   0.39479   0.68950   0.00000  Uiso   1.00
C1315  C     0.95713   0.60914   0.76108   0.00000  Uiso   1.00
C1316  C     0.99839   0.42301   0.96958   0.00000  Uiso   1.00
C1317  C     0.80095   0.41103   0.61669   0.00000  Uiso   1.00
C1318  C     0.89524   0.62319   0.66049   0.00000  Uiso   1.00
C1319  C     0.84841   0.47379   0.51391   0.00000  Uiso   1.00
C1320  C     0.89531   0.46561   0.98160   0.00000  Uiso   1.00
C1321  C     0.90293   0.45277   0.92843   0.00000  Uiso   1.00
C1322  C     0.86586   0.45476   0.90698   0.00000  Uiso   1.00
C1323  C     0.83788   0.47310   0.56893   0.00000  Uiso   1.00
C1324  C     0.92093   0.48476   0.55787   0.00000  Uiso   1.00
H1325  H     0.88733   0.37217   0.67471   0.00000  Uiso   1.00
H1326  H     0.68078   0.45997   0.56105   0.00000  Uiso   1.00
H1327  H     0.96222   0.44559   0.61603   0.00000  Uiso   1.00
H1328  H     0.99967   0.48819   0.62365   0.00000  Uiso   1.00
H1329  H     0.76777   0.37027   0.87545   0.00000  Uiso   1.00
H1330  H     0.71225   0.42060   0.84547   0.00000  Uiso   1.00
H1331  H     0.72289   0.38370   0.79034   0.00000  Uiso   1.00
H1332  H     0.69614   0.36611   0.85804   0.00000  Uiso   1.00
H1333  H     0.74096   0.63487   0.85845   0.00000  Uiso   1.00
H1334  H     0.81088   0.64276   0.89326   0.00000  Uiso   1.00
H1335  H     0.82971   0.59244   0.86008   0.00000  Uiso   1.00
H1336  H     0.71797   0.43778   0.72259   0.00000  Uiso   1.00
H1337  H     0.77434   0.59719   0.91360   0.00000  Uiso   1.00
H1338  H     0.94199   0.41189   0.76161   0.00000  Uiso   1.00
H1339  H     0.96900   0.37163   0.67688   0.00000  Uiso   1.00
H1340  H     0.67968   0.37739   0.70974   0.00000  Uiso   1.00
H1341  H     0.68139   0.41016   0.65320   0.00000  Uiso   1.00
H1342  H     0.93537   0.57346   0.82981   0.00000  Uiso   1.00
H1343  H     0.99019   0.62069   0.76724   0.00000  Uiso   1.00
H1344  H     0.92910   0.63339   0.77688   0.00000  Uiso   1.00
H1345  H     0.96291   0.60468   0.71753   0.00000  Uiso   1.00
H1346  H     0.98917   0.47948   0.93531   0.00000  Uiso   1.00
H1347  H     0.69979   0.56141   0.78245   0.00000  Uiso   1.00
H1348  H     0.70404   0.42286   0.95032   0.00000  Uiso   1.00
H1349  H     0.98218   0.40263   0.94572   0.00000  Uiso   1.00
H1350  H     0.99029   0.40966   0.51023   0.00000  Uiso   1.00
H1351  H     0.76900   0.47104   0.62526   0.00000  Uiso   1.00
H1352  H     0.82058   0.39082   0.58194   0.00000  Uiso   1.00
H1353  H     0.76583   0.39679   0.63597   0.00000  Uiso   1.00
H1354  H     0.82062   0.41213   0.64599   0.00000  Uiso   1.00
H1355  H     0.93706   0.44149   0.90310   0.00000  Uiso   1.00
H1356  H     0.72797   0.52876   0.91943   0.00000  Uiso   1.00
H1357  H     0.76613   0.51724   0.56007   0.00000  Uiso   1.00
H1358  H     0.71375   0.54349   0.51425   0.00000  Uiso   1.00
H1359  H     0.87231   0.44205   0.86700   0.00000  Uiso   1.00
H1360  H     0.97533   0.52553   0.55401   0.00000  Uiso   1.00
N1361  N     0.71426   0.50001   0.75001   0.00000  Uiso   1.00
N1362  N     0.92010   0.60560   0.62338   0.00000  Uiso   1.00
N1363  N     0.95239   0.49998   0.75000   0.00000  Uiso   1.00
N1364  N     0.95632   0.50196   0.57733   0.00000  Uiso   1.00
N1365  N     0.76896   0.37921   0.83756   0.00000  Uiso   1.00
N1366  N     0.77440   0.62265   0.84050   0.00000  Uiso   1.00
N1367  N     0.96113   0.42546   0.72598   0.00000  Uiso   1.00
N1368  N     0.94225   0.57011   0.78902   0.00000  Uiso   1.00
N1369  N     0.98061   0.46569   0.97237   0.00000  Uiso   1.00
N1370  N     0.79504   0.45293   0.59895   0.00000  Uiso   1.00
O1371  O     0.79512   0.56108   0.75001   0.00000  Uiso   1.00
O1372  O     0.87157   0.56107   0.75001   0.00000  Uiso   1.00
O1373  O     0.77613   0.50000   0.82681   0.00000  Uiso   1.00
O1374  O     0.85258   0.49999   0.82681   0.00000  Uiso   1.00
O1375  O     0.79510   0.43893   0.74999   0.00000  Uiso   1.00
O1376  O     0.87154   0.43892   0.74999   0.00000  Uiso   1.00
O1377  O     0.81409   0.50001   0.67319   0.00000  Uiso   1.00
O1378  O     0.89053   0.50000   0.67319   0.00000  Uiso   1.00
Zn1379 Zn    0.78229   0.50001   0.75000   0.00000  Uiso   1.00
Zn1380 Zn    0.88438   0.49999   0.75000   0.00000  Uiso   1.00
C1381  C     0.16668   0.91310   0.75003   0.00000  Uiso   1.00
C1382  C     0.12578   0.82668   0.90934   0.00000  Uiso   1.00
C1383  C     0.19748   0.97847   0.70692   0.00000  Uiso   1.00
C1384  C     0.14091   0.83051   0.85139   0.00000  Uiso   1.00
C1385  C     0.19731   0.68829   0.70798   0.00000  Uiso   1.00
C1386  C     0.16586   0.70953   0.75120   0.00000  Uiso   1.00
C1387  C     0.13403   0.68899   0.79446   0.00000  Uiso   1.00
C1388  C     0.13576   0.97865   0.79517   0.00000  Uiso   1.00
C1389  C     0.16673   0.95738   0.75064   0.00000  Uiso   1.00
C1390  C     0.31432   0.79781   0.73489   0.00000  Uiso   1.00
C1391  C     0.02900   0.79867   0.73414   0.00000  Uiso   1.00
C1392  C     0.14689   0.81727   0.99038   0.00000  Uiso   1.00
C1393  C     0.01910   0.86763   0.76751   0.00000  Uiso   1.00
C1394  C     0.30472   0.86803   0.76725   0.00000  Uiso   1.00
C1395  C     0.16649   0.75359   0.75043   0.00000  Uiso   1.00
C1396  C     0.19242   0.82984   0.64836   0.00000  Uiso   1.00
C1397  C     0.26565   0.80403   0.50401   0.00000  Uiso   1.00
C1398  C     0.20661   0.81815   0.59120   0.00000  Uiso   1.00
C1399  C     0.08439   0.84791   0.93904   0.00000  Uiso   1.00
C1400  C     0.07557   0.85592   0.99313   0.00000  Uiso   1.00
C1401  C     0.10610   0.84069   0.51890   0.00000  Uiso   1.00
C1402  C     0.31777   0.80547   0.59528   0.00000  Uiso   1.00
C1403  C     0.15671   0.80965   0.93517   0.00000  Uiso   1.00
C1404  C     0.05614   0.72103   0.83240   0.00000  Uiso   1.00
C1405  C     0.13207   0.94665   0.87867   0.00000  Uiso   1.00
C1406  C     0.32462   0.72812   0.68950   0.00000  Uiso   1.00
C1407  C     0.29046   0.94247   0.76108   0.00000  Uiso   1.00
C1408  C     0.33172   0.75635   0.96958   0.00000  Uiso   1.00
C1409  C     0.13428   0.74436   0.61669   0.00000  Uiso   1.00
C1410  C     0.22858   0.95652   0.66049   0.00000  Uiso   1.00
C1411  C     0.18174   0.80713   0.51391   0.00000  Uiso   1.00
C1412  C     0.22865   0.79894   0.98160   0.00000  Uiso   1.00
C1413  C     0.23626   0.78611   0.92843   0.00000  Uiso   1.00
C1414  C     0.19920   0.78809   0.90698   0.00000  Uiso   1.00
C1415  C     0.17121   0.80644   0.56893   0.00000  Uiso   1.00
C1416  C     0.25426   0.81810   0.55787   0.00000  Uiso   1.00
H1417  H     0.22067   0.70550   0.67471   0.00000  Uiso   1.00
H1418  H     0.01411   0.79330   0.56105   0.00000  Uiso   1.00
H1419  H     0.29555   0.77893   0.61603   0.00000  Uiso   1.00
H1420  H     0.33301   0.82152   0.62365   0.00000  Uiso   1.00
H1421  H     0.10111   0.70361   0.87545   0.00000  Uiso   1.00
H1422  H     0.04558   0.75394   0.84547   0.00000  Uiso   1.00
H1423  H     0.05622   0.71703   0.79034   0.00000  Uiso   1.00
H1424  H     0.02947   0.69944   0.85804   0.00000  Uiso   1.00
H1425  H     0.07430   0.96820   0.85845   0.00000  Uiso   1.00
H1426  H     0.14421   0.97610   0.89326   0.00000  Uiso   1.00
H1427  H     0.16304   0.92578   0.86008   0.00000  Uiso   1.00
H1428  H     0.05130   0.77111   0.72259   0.00000  Uiso   1.00
H1429  H     0.10768   0.93052   0.91360   0.00000  Uiso   1.00
H1430  H     0.27533   0.74522   0.76161   0.00000  Uiso   1.00
H1431  H     0.30234   0.70496   0.67688   0.00000  Uiso   1.00
H1432  H     0.01302   0.71072   0.70974   0.00000  Uiso   1.00
H1433  H     0.01473   0.74349   0.65320   0.00000  Uiso   1.00
H1434  H     0.26871   0.90679   0.82981   0.00000  Uiso   1.00
H1435  H     0.32352   0.95402   0.76724   0.00000  Uiso   1.00
H1436  H     0.26243   0.96673   0.77688   0.00000  Uiso   1.00
H1437  H     0.29625   0.93801   0.71753   0.00000  Uiso   1.00
H1438  H     0.32250   0.81281   0.93531   0.00000  Uiso   1.00
H1439  H     0.03313   0.89475   0.78245   0.00000  Uiso   1.00
H1440  H     0.03737   0.75619   0.95032   0.00000  Uiso   1.00
H1441  H     0.31552   0.73596   0.94572   0.00000  Uiso   1.00
H1442  H     0.32363   0.74299   0.51023   0.00000  Uiso   1.00
H1443  H     0.10234   0.80437   0.62526   0.00000  Uiso   1.00
H1444  H     0.15392   0.72415   0.58194   0.00000  Uiso   1.00
H1445  H     0.09917   0.73013   0.63597   0.00000  Uiso   1.00
H1446  H     0.15396   0.74546   0.64599   0.00000  Uiso   1.00
H1447  H     0.27040   0.77483   0.90310   0.00000  Uiso   1.00
H1448  H     0.06130   0.86210   0.91943   0.00000  Uiso   1.00
H1449  H     0.09947   0.85058   0.56007   0.00000  Uiso   1.00
H1450  H     0.04708   0.87682   0.51425   0.00000  Uiso   1.00
H1451  H     0.20564   0.77538   0.86700   0.00000  Uiso   1.00
H1452  H     0.30866   0.85886   0.55401   0.00000  Uiso   1.00
N1453  N     0.04760   0.83334   0.75001   0.00000  Uiso   1.00
N1454  N     0.25344   0.93894   0.62338   0.00000  Uiso   1.00
N1455  N     0.28573   0.83331   0.75000   0.00000  Uiso   1.00
N1456  N     0.28965   0.83530   0.57733   0.00000  Uiso   1.00
N1457  N     0.10230   0.71254   0.83756   0.00000  Uiso   1.00
N1458  N     0.10773   0.95598   0.84050   0.00000  Uiso   1.00
N1459  N     0.29446   0.75879   0.72598   0.00000  Uiso   1.00
N1460  N     0.27559   0.90344   0.78902   0.00000  Uiso   1.00
N1461  N     0.31395   0.79902   0.97237   0.00000  Uiso   1.00
N1462  N     0.12838   0.78626   0.59895   0.00000  Uiso   1.00
O1463  O     0.12846   0.89442   0.75001   0.00000  Uiso   1.00
O1464  O     0.20490   0.89441   0.75001   0.00000  Uiso   1.00
O1465  O     0.10947   0.83333   0.82681   0.00000  Uiso   1.00
O1466  O     0.18591   0.83332   0.82681   0.00000  Uiso   1.00
O1467  O     0.12843   0.77226   0.74999   0.00000  Uiso   1.00
O1468  O     0.20488   0.77225   0.74999   0.00000  Uiso   1.00
O1469  O     0.14742   0.83335   0.67319   0.00000  Uiso   1.00
O1470  O     0.22387   0.83334   0.67319   0.00000  Uiso   1.00
Zn1471 Zn    0.11562   0.83334   0.75000   0.00000  Uiso   1.00
Zn1472 Zn    0.21771   0.83333   0.75000   0.00000  Uiso   1.00
C1473  C     0.50002   0.91310   0.75003   0.00000  Uiso   1.00
C1474  C     0.45912   0.82668   0.90934   0.00000  Uiso   1.00
C1475  C     0.53081   0.97847   0.70692   0.00000  Uiso   1.00
C1476  C     0.47425   0.83051   0.85139   0.00000  Uiso   1.00
C1477  C     0.53064   0.68829   0.70798   0.00000  Uiso   1.00
C1478  C     0.49919   0.70953   0.75120   0.00000  Uiso   1.00
C1479  C     0.46737   0.68899   0.79446   0.00000  Uiso   1.00
C1480  C     0.46909   0.97865   0.79517   0.00000  Uiso   1.00
C1481  C     0.50007   0.95738   0.75064   0.00000  Uiso   1.00
C1482  C     0.64766   0.79781   0.73489   0.00000  Uiso   1.00
C1483  C     0.36233   0.79867   0.73414   0.00000  Uiso   1.00
C1484  C     0.48022   0.81727   0.99038   0.00000  Uiso   1.00
C1485  C     0.35243   0.86763   0.76751   0.00000  Uiso   1.00
C1486  C     0.63805   0.86803   0.76725   0.00000  Uiso   1.00
C1487  C     0.49982   0.75359   0.75043   0.00000  Uiso   1.00
C1488  C     0.52576   0.82984   0.64836   0.00000  Uiso   1.00
C1489  C     0.59899   0.80403   0.50401   0.00000  Uiso   1.00
C1490  C     0.53994   0.81815   0.59120   0.00000  Uiso   1.00
C1491  C     0.41773   0.84791   0.93904   0.00000  Uiso   1.00
C1492  C     0.40891   0.85592   0.99313   0.00000  Uiso   1.00
C1493  C     0.43943   0.84069   0.51890   0.00000  Uiso   1.00
C1494  C     0.65110   0.80547   0.59528   0.00000  Uiso   1.00
C1495  C     0.49004   0.80965   0.93517   0.00000  Uiso   1.00
C1496  C     0.38948   0.72103   0.83240   0.00000  Uiso   1.00
C1497  C     0.46541   0.94665   0.87867   0.00000  Uiso   1.00
C1498  C     0.65795   0.72812   0.68950   0.00000  Uiso   1.00
C1499  C     0.62379   0.94247   0.76108   0.00000  Uiso   1.00
C1500  C     0.66506   0.75635   0.96958   0.00000  Uiso   1.00
C1501  C     0.46761   0.74436   0.61669   0.00000  Uiso   1.00
C1502  C     0.56191   0.95652   0.66049   0.00000  Uiso   1.00
C1503  C     0.51507   0.80713   0.51391   0.00000  Uiso   1.00
C1504  C     0.56198   0.79894   0.98160   0.00000  Uiso   1.00
C1505  C     0.56960   0.78611   0.92843   0.00000  Uiso   1.00
C1506  C     0.53253   0.78809   0.90698   0.00000  Uiso   1.00
C1507  C     0.50455   0.80644   0.56893   0.00000  Uiso   1.00
C1508  C     0.58760   0.81810   0.55787   0.00000  Uiso   1.00
H1509  H     0.55400   0.70550   0.67471   0.00000  Uiso   1.00
H1510  H     0.34744   0.79330   0.56105   0.00000  Uiso   1.00
H1511  H     0.62889   0.77893   0.61603   0.00000  Uiso   1.00
H1512  H     0.66634   0.82152   0.62365   0.00000  Uiso   1.00
H1513  H     0.43444   0.70361   0.87545   0.00000  Uiso   1.00
H1514  H     0.37892   0.75394   0.84547   0.00000  Uiso   1.00
H1515  H     0.38956   0.71703   0.79034   0.00000  Uiso   1.00
H1516  H     0.36281   0.69944   0.85804   0.00000  Uiso   1.00
H1517  H     0.40763   0.96820   0.85845   0.00000  Uiso   1.00
H1518  H     0.47754   0.97610   0.89326   0.00000  Uiso   1.00
H1519  H     0.49638   0.92578   0.86008   0.00000  Uiso   1.00
H1520  H     0.38463   0.77111   0.72259   0.00000  Uiso   1.00
H1521  H     0.44101   0.93052   0.91360   0.00000  Uiso   1.00
H1522  H     0.60866   0.74522   0.76161   0.00000  Uiso   1.00
H1523  H     0.63567   0.70496   0.67688   0.00000  Uiso   1.00
H1524  H     0.34635   0.71072   0.70974   0.00000  Uiso   1.00
H1525  H     0.34806   0.74349   0.65320   0.00000  Uiso   1.00
H1526  H     0.60204   0.90679   0.82981   0.00000  Uiso   1.00
H1527  H     0.65685   0.95402   0.76724   0.00000  Uiso   1.00
H1528  H     0.59577   0.96673   0.77688   0.00000  Uiso   1.00
H1529  H     0.62958   0.93801   0.71753   0.00000  Uiso   1.00
H1530  H     0.65584   0.81281   0.93531   0.00000  Uiso   1.00
H1531  H     0.36646   0.89475   0.78245   0.00000  Uiso   1.00
H1532  H     0.37070   0.75619   0.95032   0.00000  Uiso   1.00
H1533  H     0.64885   0.73596   0.94572   0.00000  Uiso   1.00
H1534  H     0.65696   0.74299   0.51023   0.00000  Uiso   1.00
H1535  H     0.43567   0.80437   0.62526   0.00000  Uiso   1.00
H1536  H     0.48725   0.72415   0.58194   0.00000  Uiso   1.00
H1537  H     0.43250   0.73013   0.63597   0.00000  Uiso   1.00
H1538  H     0.48729   0.74546   0.64599   0.00000  Uiso   1.00
H1539  H     0.60373   0.77483   0.90310   0.00000  Uiso   1.00
H1540  H     0.39463   0.86210   0.91943   0.00000  Uiso   1.00
H1541  H     0.43280   0.85058   0.56007   0.00000  Uiso   1.00
H1542  H     0.38041   0.87682   0.51425   0.00000  Uiso   1.00
H1543  H     0.53898   0.77538   0.86700   0.00000  Uiso   1.00
H1544  H     0.64199   0.85886   0.55401   0.00000  Uiso   1.00
N1545  N     0.38093   0.83334   0.75001   0.00000  Uiso   1.00
N1546  N     0.58677   0.93894   0.62338   0.00000  Uiso   1.00
N1547  N     0.61906   0.83331   0.75000   0.00000  Uiso   1.00
N1548  N     0.62299   0.83530   0.57733   0.00000  Uiso   1.00
N1549  N     0.43563   0.71254   0.83756   0.00000  Uiso   1.00
N1550  N     0.44107   0.95598   0.84050   0.00000  Uiso   1.00
N1551  N     0.62780   0.75879   0.72598   0.00000  Uiso   1.00
N1552  N     0.60892   0.90344   0.78902   0.00000  Uiso   1.00
N1553  N     0.64728   0.79902   0.97237   0.00000  Uiso   1.00
N1554  N     0.46171   0.78626   0.59895   0.00000  Uiso   1.00
O1555  O     0.46179   0.89442   0.75001   0.00000  Uiso   1.00
O1556  O     0.53823   0.89441   0.75001   0.00000  Uiso   1.00
O1557  O     0.44280   0.83333   0.82681   0.00000  Uiso   1.00
O1558  O     0.51924   0.83332   0.82681   0.00000  Uiso   1.00
O1559  O     0.46177   0.77226   0.74999   0.00000  Uiso   1.00
O1560  O     0.53821   0.77225   0.74999   0.00000  Uiso   1.00
O1561  O     0.48076   0.83335   0.67319   0.00000  Uiso   1.00
O1562  O     0.55720   0.83334   0.67319   0.00000  Uiso   1.00
Zn1563 Zn    0.44896   0.83334   0.75000   0.00000  Uiso   1.00
Zn1564 Zn    0.55104   0.83333   0.75000   0.00000  Uiso   1.00
C1565  C     0.83335   0.91310   0.75003   0.00000  Uiso   1.00
C1566  C     0.79245   0.82668   0.90934   0.00000  Uiso   1.00
C1567  C     0.86414   0.97847   0.70692   0.00000  Uiso   1.00
C1568  C     0.80758   0.83051   0.85139   0.00000  Uiso   1.00
C1569  C     0.86398   0.68829   0.70798   0.00000  Uiso   1.00
C1570  C     0.83253   0.70953   0.75120   0.00000  Uiso   1.00
C1571  C     0.80070   0.68899   0.79446   0.00000  Uiso   1.00
C1572  C     0.80242   0.97865   0.79517   0.00000  Uiso   1.00
C1573  C     0.83340   0.95738   0.75064   0.00000  Uiso   1.00
C1574  C     0.98099   0.79781   0.73489   0.00000  Uiso   1.00
C1575  C     0.69567   0.79867   0.73414   0.00000  Uiso   1.00
C1576  C     0.81355   0.81727   0.99038   0.00000  Uiso   1.00
C1577  C     0.68577   0.86763   0.76751   0.00000  Uiso   1.00
C1578  C     0.97138   0.86803   0.76725   0.00000  Uiso   1.00
C1579  C     0.83315   0.75359   0.75043   0.00000  Uiso   1.00
C1580  C     0.85909   0.82984   0.64836   0.00000  Uiso   1.00
C1581  C     0.93232   0.80403   0.50401   0.00000  Uiso   1.00
C1582  C     0.87327   0.81815   0.59120   0.00000  Uiso   1.00
C1583  C     0.75106   0.84791   0.93904   0.00000  Uiso   1.00
C1584  C     0.74224   0.85592   0.99313   0.00000  Uiso   1.00
C1585  C     0.77277   0.84069   0.51890   0.00000  Uiso   1.00
C1586  C     0.98444   0.80547   0.59528   0.00000  Uiso   1.00
C1587  C     0.82337   0.80965   0.93517   0.00000  Uiso   1.00
C1588  C     0.72281   0.72103   0.83240   0.00000  Uiso   1.00
C1589  C     0.79874   0.94665   0.87867   0.00000  Uiso   1.00
C1590  C     0.99129   0.72812   0.68950   0.00000  Uiso   1.00
C1591  C     0.95713   0.94247   0.76108   0.00000  Uiso   1.00
C1592  C     0.99839   0.75635   0.96958   0.00000  Uiso   1.00
C1593  C     0.80095   0.74436   0.61669   0.00000  Uiso   1.00
C1594  C     0.89524   0.95652   0.66049   0.00000  Uiso   1.00
C1595  C     0.84841   0.80713   0.51391   0.00000  Uiso   1.00
C1596  C     0.89531   0.79894   0.98160   0.00000  Uiso   1.00
C1597  C     0.90293   0.78611   0.92843   0.00000  Uiso   1.00
C1598  C     0.86586   0.78809   0.90698   0.00000  Uiso   1.00
C1599  C     0.83788   0.80644   0.56893   0.00000  Uiso   1.00
C1600  C     0.92093   0.81810   0.55787   0.00000  Uiso   1.00
H1601  H     0.88733   0.70550   0.67471   0.00000  Uiso   1.00
H1602  H     0.68078   0.79330   0.56105   0.00000  Uiso   1.00
H1603  H     0.96222   0.77893   0.61603   0.00000  Uiso   1.00
H1604  H     0.99967   0.82152   0.62365   0.00000  Uiso   1.00
H1605  H     0.76777   0.70361   0.87545   0.00000  Uiso   1.00
H1606  H     0.71225   0.75394   0.84547   0.00000  Uiso   1.00
H1607  H     0.72289   0.71703   0.79034   0.00000  Uiso   1.00
H1608  H     0.69614   0.69944   0.85804   0.00000  Uiso   1.00
H1609  H     0.74096   0.96820   0.85845   0.00000  Uiso   1.00
H1610  H     0.81088   0.97610   0.89326   0.00000  Uiso   1.00
H1611  H     0.82971   0.92578   0.86008   0.00000  Uiso   1.00
H1612  H     0.71797   0.77111   0.72259   0.00000  Uiso   1.00
H1613  H     0.77434   0.93052   0.91360   0.00000  Uiso   1.00
H1614  H     0.94199   0.74522   0.76161   0.00000  Uiso   1.00
H1615  H     0.96900   0.70496   0.67688   0.00000  Uiso   1.00
H1616  H     0.67968   0.71072   0.70974   0.00000  Uiso   1.00
H1617  H     0.68139   0.74349   0.65320   0.00000  Uiso   1.00
H1618  H     0.93537   0.90679   0.82981   0.00000  Uiso   1.00
H1619  H     0.99019   0.95402   0.76724   0.00000  Uiso   1.00
H1620  H     0.92910   0.96673   0.77688   0.00000  Uiso   1.00
H1621  H     0.96291   0.93801   0.71753   0.00000  Uiso   1.00
H1622  H     0.98917   0.81281   0.93531   0.00000  Uiso   1.00
H1623  H     0.69979   0.89475   0.78245   0.00000  Uiso   1.00
H1624  H     0.70404   0.75619   0.95032   0.00000  Uiso   1.00
H1625  H     0.98218   0.73596   0.94572   0.00000  Uiso   1.00
H1626  H     0.99029   0.74299   0.51023   0.00000  Uiso   1.00
H1627  H     0.76900   0.80437   0.62526   0.00000  Uiso   1.00
H1628  H     0.82058   0.72415   0.58194   0.00000  Uiso   1.00
H1629  H     0.76583   0.73013   0.63597   0.00000  Uiso   1.00
H1630  H     0.82062   0.74546   0.64599   0.00000  Uiso   1.00
H1631  H     0.93706   0.77483   0.90310   0.00000  Uiso   1.00
H1632  H     0.72797   0.86210   0.91943   0.00000  Uiso   1.00
H1633  H     0.76613   0.85058   0.56007   0.00000  Uiso   1.00
H1634  H     0.71375   0.87682   0.51425   0.00000  Uiso   1.00
H1635  H     0.87231   0.77538   0.86700   0.00000  Uiso   1.00
H1636  H     0.97533   0.85886   0.55401   0.00000  Uiso   1.00
N1637  N     0.71426   0.83334   0.75001   0.00000  Uiso   1.00
N1638  N     0.92010   0.93894   0.62338   0.00000  Uiso   1.00
N1639  N     0.95239   0.83331   0.75000   0.00000  Uiso   1.00
N1640  N     0.95632   0.83530   0.57733   0.00000  Uiso   1.00
N1641  N     0.76896   0.71254   0.83756   0.00000  Uiso   1.00
N1642  N     0.77440   0.95598   0.84050   0.00000  Uiso   1.00
N1643  N     0.96113   0.75879   0.72598   0.00000  Uiso   1.00
N1644  N     0.94225   0.90344   0.78902   0.00000  Uiso   1.00
N1645  N     0.98061   0.79902   0.97237   0.00000  Uiso   1.00
N1646  N     0.79504   0.78626   0.59895   0.00000  Uiso   1.00
O1647  O     0.79512   0.89442   0.75001   0.00000  Uiso   1.00
O1648  O     0.87157   0.89441   0.75001   0.00000  Uiso   1.00
O1649  O     0.77613   0.83333   0.82681   0.00000  Uiso   1.00
O1650  O     0.85258   0.83332   0.82681   0.00000  Uiso   1.00
O1651  O     0.79510   0.77226   0.74999   0.00000  Uiso   1.00
O1652  O     0.87154   0.77225   0.74999   0.00000  Uiso   1.00
O1653  O     0.81409   0.83335   0.67319   0.00000  Uiso   1.00
O1654  O     0.89053   0.83334   0.67319   0.00000  Uiso   1.00
Zn1655 Zn    0.78229   0.83334   0.75000   0.00000  Uiso   1.00
Zn1656 Zn    0.88438   0.83333   0.75000   0.00000  Uiso   1.00
loop_
_geom_bond_atom_site_label_1
_geom_bond_atom_site_label_2
_geom_bond_distance
_geom_bond_site_symmetry_2
_ccdc_geom_bond_type
C1     O84     1.283   .     A
C1     C9      1.407   .     S
C1     O83     1.286   .     A
C2     C19     1.399   .     A
C2     C4      1.454   .     S
C2     C23     1.418   .     A
C3     C30     1.447   .     S
C3     C9      1.403   .     A
C3     C281    1.372   .     S
C4     O86     1.295   .     A
C4     O85     1.301   .     A
C5     H37     1.086   .     S
C5     C6      1.389   .     A
C5     C555    1.372   1_545 S
C6     C15     1.401   .     S
C6     C7      1.400   .     A
C7     N77     1.427   .     S
C7     C560    1.390   1_545 S
C8     C9      1.404   .     A
C8     N78     1.426   .     S
C8     C283    1.390   .     S
C10    N75     1.388   .     A
C10    N79     1.424   .     S
C10    C103    1.425   .     S
C11    H48     1.078   .     S
C11    N73     1.355   .     A
C11    C194    1.425   1_455 S
C12    C23     1.406   .     A
C12    C849    1.413   .     S
C12    C859    1.407   .     S
C13    N73     1.362   .     A
C13    H59     1.081   .     S
C13    C198    1.425   1_455 S
C14    N80     1.418   .     S
C14    N75     1.377   .     A
C14    C105    1.425   .     S
C15    O87     1.282   .     A
C15    O88     1.287   .     A
C16    O90     1.306   .     A
C16    O89     1.296   .     A
C16    C18     1.470   .     S
C17    C36     1.415   .     A
C17    C860    1.415   1_554 S
C17    N909    1.423   1_554 S
C18    C35     1.409   .     A
C18    C36     1.413   .     A
C19    C20     1.384   .     A
C19    H68     1.084   .     S
C20    C849    1.386   .     S
C20    H898    1.077   .     S
C21    H69     1.080   .     S
C21    C840    1.413   1_554 S
C21    C848    1.386   1_554 S
C22    N76     1.444   .     S
C22    H40     1.109   .     S
C22    H39     1.111   .     S
C22    H130    1.108   .     S
C23    C34     1.417   .     A
C24    H42     1.110   .     S
C24    H44     1.110   .     S
C24    N77     1.450   .     S
C24    H43     1.112   .     S
C25    H47     1.111   .     S
C25    N78     1.447   .     S
C25    H46     1.111   .     S
C25    H49     1.108   .     S
C26    N79     1.450   .     S
C26    H51     1.109   .     S
C26    H144    1.111   .     S
C26    H145    1.109   .     S
C27    H55     1.111   .     S
C27    N80     1.448   .     S
C27    H57     1.111   .     S
C27    H56     1.110   .     S
C28    H61     1.110   .     S
C28    N81     1.448   .     S
C28    H152    1.110   .     S
C28    H890    1.110   .     S
C29    H64     1.111   .     S
C29    H65     1.108   .     S
C29    N82     1.446   .     S
C29    H66     1.108   .     S
C30    N74     1.157   .     T
C31    C35     1.382   .     A
C31    C840    1.407   1_554 S
C31    C860    1.408   1_554 S
C32    C33     1.400   .     A
C32    C845    1.415   .     S
C32    C859    1.408   .     S
C33    C34     1.393   .     A
C33    H67     1.081   .     S
C34    H71     1.081   .     S
C35    N82     1.429   .     S
C36    N76     1.419   .     S
H38    C206    1.108   1_455 S
H41    N77     1.031   .     S
H45    N78     1.030   .     S
H50    N79     1.031   .     S
H52    C210    1.111   1_455 S
H53    C210    1.109   1_455 S
H54    N80     1.031   .     S
H58    N81     1.031   .     S
H60    C212    1.110   1_455 S
H62    C856    1.110   1_554 S
H63    N82     1.029   .     S
H70    C848    1.077   1_554 S
H72    N76     1.026   .     S
N73    Zn91    2.027   .     S
N75    Zn92    2.027   .     S
N81    C845    1.423   .     S
O83    Zn91    1.980   .     S
O84    Zn92    1.978   .     S
O85    Zn91    1.972   .     S
O86    Zn92    1.942   .     S
O87    Zn91    1.978   .     S
O88    Zn92    1.980   .     S
O89    Zn91    1.942   .     S
O90    Zn92    1.972   .     S
C93    O176    1.283   .     A
C93    C101    1.407   .     S
C93    O175    1.286   .     A
C94    C111    1.399   .     A
C94    C96     1.454   .     S
C94    C115    1.418   .     A
C95    C122    1.447   .     S
C95    C101    1.403   .     A
C95    C373    1.372   .     S
C96    O178    1.295   .     A
C96    O177    1.301   .     A
C97    H129    1.086   .     S
C97    C98     1.389   .     A
C97    C647    1.372   1_545 S
C98    C107    1.401   .     S
C98    C99     1.400   .     A
C99    N169    1.427   .     S
C99    C652    1.390   1_545 S
C100   C101    1.404   .     A
C100   N170    1.426   .     S
C100   C375    1.390   .     S
C102   N167    1.388   .     A
C102   N171    1.424   .     S
C102   C195    1.425   .     S
C103   H140    1.078   .     S
C103   N165    1.355   .     A
C104   C115    1.406   .     A
C104   C941    1.413   .     S
C104   C951    1.407   .     S
C105   N165    1.362   .     A
C105   H151    1.081   .     S
C106   N172    1.418   .     S
C106   N167    1.377   .     A
C106   C197    1.425   .     S
C107   O179    1.282   .     A
C107   O180    1.287   .     A
C108   O182    1.306   .     A
C108   O181    1.296   .     A
C108   C110    1.470   .     S
C109   C128    1.415   .     A
C109   C952    1.415   1_554 S
C109   N1001   1.423   1_554 S
C110   C127    1.409   .     A
C110   C128    1.413   .     A
C111   C112    1.384   .     A
C111   H160    1.084   .     S
C112   C941    1.386   .     S
C112   H990    1.077   .     S
C113   H161    1.080   .     S
C113   C932    1.413   1_554 S
C113   C940    1.386   1_554 S
C114   N168    1.444   .     S
C114   H132    1.109   .     S
C114   H131    1.111   .     S
C114   H222    1.108   .     S
C115   C126    1.417   .     A
C116   H134    1.110   .     S
C116   H136    1.110   .     S
C116   N169    1.450   .     S
C116   H135    1.112   .     S
C117   H139    1.111   .     S
C117   N170    1.447   .     S
C117   H138    1.111   .     S
C117   H141    1.108   .     S
C118   N171    1.450   .     S
C118   H143    1.109   .     S
C118   H236    1.111   .     S
C118   H237    1.109   .     S
C119   H147    1.111   .     S
C119   N172    1.448   .     S
C119   H149    1.111   .     S
C119   H148    1.110   .     S
C120   H153    1.110   .     S
C120   N173    1.448   .     S
C120   H244    1.110   .     S
C120   H982    1.110   .     S
C121   H156    1.111   .     S
C121   H157    1.108   .     S
C121   N174    1.446   .     S
C121   H158    1.108   .     S
C122   N166    1.157   .     T
C123   C127    1.382   .     A
C123   C932    1.407   1_554 S
C123   C952    1.408   1_554 S
C124   C125    1.400   .     A
C124   C937    1.415   .     S
C124   C951    1.408   .     S
C125   C126    1.393   .     A
C125   H159    1.081   .     S
C126   H163    1.081   .     S
C127   N174    1.429   .     S
C128   N168    1.419   .     S
H133   N169    1.031   .     S
H137   N170    1.030   .     S
H142   N171    1.031   .     S
H146   N172    1.031   .     S
H150   N173    1.031   .     S
H154   C948    1.110   1_554 S
H155   N174    1.029   .     S
H162   C940    1.077   1_554 S
H164   N168    1.026   .     S
N165   Zn183   2.027   .     S
N167   Zn184   2.027   .     S
N173   C937    1.423   .     S
O175   Zn183   1.980   .     S
O176   Zn184   1.978   .     S
O177   Zn183   1.972   .     S
O178   Zn184   1.942   .     S
O179   Zn183   1.978   .     S
O180   Zn184   1.980   .     S
O181   Zn183   1.942   .     S
O182   Zn184   1.972   .     S
C185   O268    1.283   .     A
C185   C193    1.407   .     S
C185   O267    1.286   .     A
C186   C203    1.399   .     A
C186   C188    1.454   .     S
C186   C207    1.418   .     A
C187   C214    1.447   .     S
C187   C193    1.403   .     A
C187   C465    1.372   .     S
C188   O270    1.295   .     A
C188   O269    1.301   .     A
C189   H221    1.086   .     S
C189   C190    1.389   .     A
C189   C739    1.372   1_545 S
C190   C199    1.401   .     S
C190   C191    1.400   .     A
C191   N261    1.427   .     S
C191   C744    1.390   1_545 S
C192   C193    1.404   .     A
C192   N262    1.426   .     S
C192   C467    1.390   .     S
C194   N259    1.388   .     A
C194   N263    1.424   .     S
C194   C11     1.425   1_655 S
C195   H232    1.078   .     S
C195   N257    1.355   .     A
C196   C207    1.406   .     A
C196   C1033   1.413   .     S
C196   C1043   1.407   .     S
C197   N257    1.362   .     A
C197   H243    1.081   .     S
C198   N264    1.418   .     S
C198   N259    1.377   .     A
C198   C13     1.425   1_655 S
C199   O271    1.282   .     A
C199   O272    1.287   .     A
C200   O274    1.306   .     A
C200   O273    1.296   .     A
C200   C202    1.470   .     S
C201   C220    1.415   .     A
C201   C1044   1.415   1_554 S
C201   N1093   1.423   1_554 S
C202   C219    1.409   .     A
C202   C220    1.413   .     A
C203   C204    1.384   .     A
C203   H252    1.084   .     S
C204   C1033   1.386   .     S
C204   H1082   1.077   .     S
C205   H253    1.080   .     S
C205   C1024   1.413   1_554 S
C205   C1032   1.386   1_554 S
C206   N260    1.444   .     S
C206   H224    1.109   .     S
C206   H223    1.111   .     S
C206   H38     1.108   1_655 S
C207   C218    1.417   .     A
C208   H226    1.110   .     S
C208   H228    1.110   .     S
C208   N261    1.450   .     S
C208   H227    1.112   .     S
C209   H231    1.111   .     S
C209   N262    1.447   .     S
C209   H230    1.111   .     S
C209   H233    1.108   .     S
C210   N263    1.450   .     S
C210   H235    1.109   .     S
C210   H52     1.111   1_655 S
C210   H53     1.109   1_655 S
C211   H239    1.111   .     S
C211   N264    1.448   .     S
C211   H241    1.111   .     S
C211   H240    1.110   .     S
C212   H245    1.110   .     S
C212   N265    1.448   .     S
C212   H60     1.110   1_655 S
C212   H1074   1.110   .     S
C213   H248    1.111   .     S
C213   H249    1.108   .     S
C213   N266    1.446   .     S
C213   H250    1.108   .     S
C214   N258    1.157   .     T
C215   C219    1.382   .     A
C215   C1024   1.407   1_554 S
C215   C1044   1.408   1_554 S
C216   C217    1.400   .     A
C216   C1029   1.415   .     S
C216   C1043   1.408   .     S
C217   C218    1.393   .     A
C217   H251    1.081   .     S
C218   H255    1.081   .     S
C219   N266    1.429   .     S
C220   N260    1.419   .     S
H225   N261    1.031   .     S
H229   N262    1.030   .     S
H234   N263    1.031   .     S
H238   N264    1.031   .     S
H242   N265    1.031   .     S
H246   C1040   1.110   1_554 S
H247   N266    1.029   .     S
H254   C1032   1.077   1_554 S
H256   N260    1.026   .     S
N257   Zn275   2.027   .     S
N259   Zn276   2.027   .     S
N265   C1029   1.423   .     S
O267   Zn275   1.980   .     S
O268   Zn276   1.978   .     S
O269   Zn275   1.972   .     S
O270   Zn276   1.942   .     S
O271   Zn275   1.978   .     S
O272   Zn276   1.980   .     S
O273   Zn275   1.942   .     S
O274   Zn276   1.972   .     S
C277   O360    1.283   .     A
C277   C285    1.407   .     S
C277   O359    1.286   .     A
C278   C295    1.399   .     A
C278   C280    1.454   .     S
C278   C299    1.418   .     A
C279   C306    1.447   .     S
C279   C285    1.403   .     A
C279   C557    1.372   .     S
C280   O362    1.295   .     A
C280   O361    1.301   .     A
C281   H313    1.086   .     S
C281   C282    1.389   .     A
C282   C291    1.401   .     S
C282   C283    1.400   .     A
C283   N353    1.427   .     S
C284   C285    1.404   .     A
C284   N354    1.426   .     S
C284   C559    1.390   .     S
C286   N351    1.388   .     A
C286   N355    1.424   .     S
C286   C379    1.425   .     S
C287   H324    1.078   .     S
C287   N349    1.355   .     A
C287   C470    1.425   1_455 S
C288   C299    1.406   .     A
C288   C1125   1.413   .     S
C288   C1135   1.407   .     S
C289   N349    1.362   .     A
C289   H335    1.081   .     S
C289   C474    1.425   1_455 S
C290   N356    1.418   .     S
C290   N351    1.377   .     A
C290   C381    1.425   .     S
C291   O363    1.282   .     A
C291   O364    1.287   .     A
C292   O366    1.306   .     A
C292   O365    1.296   .     A
C292   C294    1.470   .     S
C293   C312    1.415   .     A
C293   C1136   1.415   1_554 S
C293   N1185   1.423   1_554 S
C294   C311    1.409   .     A
C294   C312    1.413   .     A
C295   C296    1.384   .     A
C295   H344    1.084   .     S
C296   C1125   1.386   .     S
C296   H1174   1.077   .     S
C297   H345    1.080   .     S
C297   C1116   1.413   1_554 S
C297   C1124   1.386   1_554 S
C298   N352    1.444   .     S
C298   H316    1.109   .     S
C298   H315    1.111   .     S
C298   H406    1.108   .     S
C299   C310    1.417   .     A
C300   H318    1.110   .     S
C300   H320    1.110   .     S
C300   N353    1.450   .     S
C300   H319    1.112   .     S
C301   H323    1.111   .     S
C301   N354    1.447   .     S
C301   H322    1.111   .     S
C301   H325    1.108   .     S
C302   N355    1.450   .     S
C302   H327    1.109   .     S
C302   H420    1.111   .     S
C302   H421    1.109   .     S
C303   H331    1.111   .     S
C303   N356    1.448   .     S
C303   H333    1.111   .     S
C303   H332    1.110   .     S
C304   H337    1.110   .     S
C304   N357    1.448   .     S
C304   H428    1.110   .     S
C304   H1166   1.110   .     S
C305   H340    1.111   .     S
C305   H341    1.108   .     S
C305   N358    1.446   .     S
C305   H342    1.108   .     S
C306   N350    1.157   .     T
C307   C311    1.382   .     A
C307   C1116   1.407   1_554 S
C307   C1136   1.408   1_554 S
C308   C309    1.400   .     A
C308   C1121   1.415   .     S
C308   C1135   1.408   .     S
C309   C310    1.393   .     A
C309   H343    1.081   .     S
C310   H347    1.081   .     S
C311   N358    1.429   .     S
C312   N352    1.419   .     S
H314   C482    1.108   1_455 S
H317   N353    1.031   .     S
H321   N354    1.030   .     S
H326   N355    1.031   .     S
H328   C486    1.111   1_455 S
H329   C486    1.109   1_455 S
H330   N356    1.031   .     S
H334   N357    1.031   .     S
H336   C488    1.110   1_455 S
H338   C1132   1.110   1_554 S
H339   N358    1.029   .     S
H346   C1124   1.077   1_554 S
H348   N352    1.026   .     S
N349   Zn367   2.027   .     S
N351   Zn368   2.027   .     S
N357   C1121   1.423   .     S
O359   Zn367   1.980   .     S
O360   Zn368   1.978   .     S
O361   Zn367   1.972   .     S
O362   Zn368   1.942   .     S
O363   Zn367   1.978   .     S
O364   Zn368   1.980   .     S
O365   Zn367   1.942   .     S
O366   Zn368   1.972   .     S
C369   O452    1.283   .     A
C369   C377    1.407   .     S
C369   O451    1.286   .     A
C370   C387    1.399   .     A
C370   C372    1.454   .     S
C370   C391    1.418   .     A
C371   C398    1.447   .     S
C371   C377    1.403   .     A
C371   C649    1.372   .     S
C372   O454    1.295   .     A
C372   O453    1.301   .     A
C373   H405    1.086   .     S
C373   C374    1.389   .     A
C374   C383    1.401   .     S
C374   C375    1.400   .     A
C375   N445    1.427   .     S
C376   C377    1.404   .     A
C376   N446    1.426   .     S
C376   C651    1.390   .     S
C378   N443    1.388   .     A
C378   N447    1.424   .     S
C378   C471    1.425   .     S
C379   H416    1.078   .     S
C379   N441    1.355   .     A
C380   C391    1.406   .     A
C380   C1217   1.413   .     S
C380   C1227   1.407   .     S
C381   N441    1.362   .     A
C381   H427    1.081   .     S
C382   N448    1.418   .     S
C382   N443    1.377   .     A
C382   C473    1.425   .     S
C383   O455    1.282   .     A
C383   O456    1.287   .     A
C384   O458    1.306   .     A
C384   O457    1.296   .     A
C384   C386    1.470   .     S
C385   C404    1.415   .     A
C385   C1228   1.415   1_554 S
C385   N1277   1.423   1_554 S
C386   C403    1.409   .     A
C386   C404    1.413   .     A
C387   C388    1.384   .     A
C387   H436    1.084   .     S
C388   C1217   1.386   .     S
C388   H1266   1.077   .     S
C389   H437    1.080   .     S
C389   C1208   1.413   1_554 S
C389   C1216   1.386   1_554 S
C390   N444    1.444   .     S
C390   H408    1.109   .     S
C390   H407    1.111   .     S
C390   H498    1.108   .     S
C391   C402    1.417   .     A
C392   H410    1.110   .     S
C392   H412    1.110   .     S
C392   N445    1.450   .     S
C392   H411    1.112   .     S
C393   H415    1.111   .     S
C393   N446    1.447   .     S
C393   H414    1.111   .     S
C393   H417    1.108   .     S
C394   N447    1.450   .     S
C394   H419    1.109   .     S
C394   H512    1.111   .     S
C394   H513    1.109   .     S
C395   H423    1.111   .     S
C395   N448    1.448   .     S
C395   H425    1.111   .     S
C395   H424    1.110   .     S
C396   H429    1.110   .     S
C396   N449    1.448   .     S
C396   H520    1.110   .     S
C396   H1258   1.110   .     S
C397   H432    1.111   .     S
C397   H433    1.108   .     S
C397   N450    1.446   .     S
C397   H434    1.108   .     S
C398   N442    1.157   .     T
C399   C403    1.382   .     A
C399   C1208   1.407   1_554 S
C399   C1228   1.408   1_554 S
C400   C401    1.400   .     A
C400   C1213   1.415   .     S
C400   C1227   1.408   .     S
C401   C402    1.393   .     A
C401   H435    1.081   .     S
C402   H439    1.081   .     S
C403   N450    1.429   .     S
C404   N444    1.419   .     S
H409   N445    1.031   .     S
H413   N446    1.030   .     S
H418   N447    1.031   .     S
H422   N448    1.031   .     S
H426   N449    1.031   .     S
H430   C1224   1.110   1_554 S
H431   N450    1.029   .     S
H438   C1216   1.077   1_554 S
H440   N444    1.026   .     S
N441   Zn459   2.027   .     S
N443   Zn460   2.027   .     S
N449   C1213   1.423   .     S
O451   Zn459   1.980   .     S
O452   Zn460   1.978   .     S
O453   Zn459   1.972   .     S
O454   Zn460   1.942   .     S
O455   Zn459   1.978   .     S
O456   Zn460   1.980   .     S
O457   Zn459   1.942   .     S
O458   Zn460   1.972   .     S
C461   O544    1.283   .     A
C461   C469    1.407   .     S
C461   O543    1.286   .     A
C462   C479    1.399   .     A
C462   C464    1.454   .     S
C462   C483    1.418   .     A
C463   C490    1.447   .     S
C463   C469    1.403   .     A
C463   C741    1.372   .     S
C464   O546    1.295   .     A
C464   O545    1.301   .     A
C465   H497    1.086   .     S
C465   C466    1.389   .     A
C466   C475    1.401   .     S
C466   C467    1.400   .     A
C467   N537    1.427   .     S
C468   C469    1.404   .     A
C468   N538    1.426   .     S
C468   C743    1.390   .     S
C470   N535    1.388   .     A
C470   N539    1.424   .     S
C470   C287    1.425   1_655 S
C471   H508    1.078   .     S
C471   N533    1.355   .     A
C472   C483    1.406   .     A
C472   C1309   1.413   .     S
C472   C1319   1.407   .     S
C473   N533    1.362   .     A
C473   H519    1.081   .     S
C474   N540    1.418   .     S
C474   N535    1.377   .     A
C474   C289    1.425   1_655 S
C475   O547    1.282   .     A
C475   O548    1.287   .     A
C476   O550    1.306   .     A
C476   O549    1.296   .     A
C476   C478    1.470   .     S
C477   C496    1.415   .     A
C477   C1320   1.415   1_554 S
C477   N1369   1.423   1_554 S
C478   C495    1.409   .     A
C478   C496    1.413   .     A
C479   C480    1.384   .     A
C479   H528    1.084   .     S
C480   C1309   1.386   .     S
C480   H1358   1.077   .     S
C481   H529    1.080   .     S
C481   C1300   1.413   1_554 S
C481   C1308   1.386   1_554 S
C482   N536    1.444   .     S
C482   H500    1.109   .     S
C482   H499    1.111   .     S
C482   H314    1.108   1_655 S
C483   C494    1.417   .     A
C484   H502    1.110   .     S
C484   H504    1.110   .     S
C484   N537    1.450   .     S
C484   H503    1.112   .     S
C485   H507    1.111   .     S
C485   N538    1.447   .     S
C485   H506    1.111   .     S
C485   H509    1.108   .     S
C486   N539    1.450   .     S
C486   H511    1.109   .     S
C486   H328    1.111   1_655 S
C486   H329    1.109   1_655 S
C487   H515    1.111   .     S
C487   N540    1.448   .     S
C487   H517    1.111   .     S
C487   H516    1.110   .     S
C488   H521    1.110   .     S
C488   N541    1.448   .     S
C488   H336    1.110   1_655 S
C488   H1350   1.110   .     S
C489   H524    1.111   .     S
C489   H525    1.108   .     S
C489   N542    1.446   .     S
C489   H526    1.108   .     S
C490   N534    1.157   .     T
C491   C495    1.382   .     A
C491   C1300   1.407   1_554 S
C491   C1320   1.408   1_554 S
C492   C493    1.400   .     A
C492   C1305   1.415   .     S
C492   C1319   1.408   .     S
C493   C494    1.393   .     A
C493   H527    1.081   .     S
C494   H531    1.081   .     S
C495   N542    1.429   .     S
C496   N536    1.419   .     S
H501   N537    1.031   .     S
H505   N538    1.030   .     S
H510   N539    1.031   .     S
H514   N540    1.031   .     S
H518   N541    1.031   .     S
H522   C1316   1.110   1_554 S
H523   N542    1.029   .     S
H530   C1308   1.077   1_554 S
H532   N536    1.026   .     S
N533   Zn551   2.027   .     S
N535   Zn552   2.027   .     S
N541   C1305   1.423   .     S
O543   Zn551   1.980   .     S
O544   Zn552   1.978   .     S
O545   Zn551   1.972   .     S
O546   Zn552   1.942   .     S
O547   Zn551   1.978   .     S
O548   Zn552   1.980   .     S
O549   Zn551   1.942   .     S
O550   Zn552   1.972   .     S
C553   O636    1.283   .     A
C553   C561    1.407   .     S
C553   O635    1.286   .     A
C554   C571    1.399   .     A
C554   C556    1.454   .     S
C554   C575    1.418   .     A
C555   C582    1.447   .     S
C555   C561    1.403   .     A
C555   C5      1.372   1_565 S
C556   O638    1.295   .     A
C556   O637    1.301   .     A
C557   H589    1.086   .     S
C557   C558    1.389   .     A
C558   C567    1.401   .     S
C558   C559    1.400   .     A
C559   N629    1.427   .     S
C560   C561    1.404   .     A
C560   N630    1.426   .     S
C560   C7      1.390   1_565 S
C562   N627    1.388   .     A
C562   N631    1.424   .     S
C562   C655    1.425   .     S
C563   H600    1.078   .     S
C563   N625    1.355   .     A
C563   C746    1.425   1_455 S
C564   C575    1.406   .     A
C564   C1401   1.413   .     S
C564   C1411   1.407   .     S
C565   N625    1.362   .     A
C565   H611    1.081   .     S
C565   C750    1.425   1_455 S
C566   N632    1.418   .     S
C566   N627    1.377   .     A
C566   C657    1.425   .     S
C567   O639    1.282   .     A
C567   O640    1.287   .     A
C568   O642    1.306   .     A
C568   O641    1.296   .     A
C568   C570    1.470   .     S
C569   C588    1.415   .     A
C569   C1412   1.415   1_554 S
C569   N1461   1.423   1_554 S
C570   C587    1.409   .     A
C570   C588    1.413   .     A
C571   C572    1.384   .     A
C571   H620    1.084   .     S
C572   C1401   1.386   .     S
C572   H1450   1.077   .     S
C573   H621    1.080   .     S
C573   C1392   1.413   1_554 S
C573   C1400   1.386   1_554 S
C574   N628    1.444   .     S
C574   H592    1.109   .     S
C574   H591    1.111   .     S
C574   H682    1.108   .     S
C575   C586    1.417   .     A
C576   H594    1.110   .     S
C576   H596    1.110   .     S
C576   N629    1.450   .     S
C576   H595    1.112   .     S
C577   H599    1.111   .     S
C577   N630    1.447   .     S
C577   H598    1.111   .     S
C577   H601    1.108   .     S
C578   N631    1.450   .     S
C578   H603    1.109   .     S
C578   H696    1.111   .     S
C578   H697    1.109   .     S
C579   H607    1.111   .     S
C579   N632    1.448   .     S
C579   H609    1.111   .     S
C579   H608    1.110   .     S
C580   H613    1.110   .     S
C580   N633    1.448   .     S
C580   H704    1.110   .     S
C580   H1442   1.110   .     S
C581   H616    1.111   .     S
C581   H617    1.108   .     S
C581   N634    1.446   .     S
C581   H618    1.108   .     S
C582   N626    1.157   .     T
C583   C587    1.382   .     A
C583   C1392   1.407   1_554 S
C583   C1412   1.408   1_554 S
C584   C585    1.400   .     A
C584   C1397   1.415   .     S
C584   C1411   1.408   .     S
C585   C586    1.393   .     A
C585   H619    1.081   .     S
C586   H623    1.081   .     S
C587   N634    1.429   .     S
C588   N628    1.419   .     S
H590   C758    1.108   1_455 S
H593   N629    1.031   .     S
H597   N630    1.030   .     S
H602   N631    1.031   .     S
H604   C762    1.111   1_455 S
H605   C762    1.109   1_455 S
H606   N632    1.031   .     S
H610   N633    1.031   .     S
H612   C764    1.110   1_455 S
H614   C1408   1.110   1_554 S
H615   N634    1.029   .     S
H622   C1400   1.077   1_554 S
H624   N628    1.026   .     S
N625   Zn643   2.027   .     S
N627   Zn644   2.027   .     S
N633   C1397   1.423   .     S
O635   Zn643   1.980   .     S
O636   Zn644   1.978   .     S
O637   Zn643   1.972   .     S
O638   Zn644   1.942   .     S
O639   Zn643   1.978   .     S
O640   Zn644   1.980   .     S
O641   Zn643   1.942   .     S
O642   Zn644   1.972   .     S
C645   O728    1.283   .     A
C645   C653    1.407   .     S
C645   O727    1.286   .     A
C646   C663    1.399   .     A
C646   C648    1.454   .     S
C646   C667    1.418   .     A
C647   C674    1.447   .     S
C647   C653    1.403   .     A
C647   C97     1.372   1_565 S
C648   O730    1.295   .     A
C648   O729    1.301   .     A
C649   H681    1.086   .     S
C649   C650    1.389   .     A
C650   C659    1.401   .     S
C650   C651    1.400   .     A
C651   N721    1.427   .     S
C652   C653    1.404   .     A
C652   N722    1.426   .     S
C652   C99     1.390   1_565 S
C654   N719    1.388   .     A
C654   N723    1.424   .     S
C654   C747    1.425   .     S
C655   H692    1.078   .     S
C655   N717    1.355   .     A
C656   C667    1.406   .     A
C656   C1493   1.413   .     S
C656   C1503   1.407   .     S
C657   N717    1.362   .     A
C657   H703    1.081   .     S
C658   N724    1.418   .     S
C658   N719    1.377   .     A
C658   C749    1.425   .     S
C659   O731    1.282   .     A
C659   O732    1.287   .     A
C660   O734    1.306   .     A
C660   O733    1.296   .     A
C660   C662    1.470   .     S
C661   C680    1.415   .     A
C661   C1504   1.415   1_554 S
C661   N1553   1.423   1_554 S
C662   C679    1.409   .     A
C662   C680    1.413   .     A
C663   C664    1.384   .     A
C663   H712    1.084   .     S
C664   C1493   1.386   .     S
C664   H1542   1.077   .     S
C665   H713    1.080   .     S
C665   C1484   1.413   1_554 S
C665   C1492   1.386   1_554 S
C666   N720    1.444   .     S
C666   H684    1.109   .     S
C666   H683    1.111   .     S
C666   H774    1.108   .     S
C667   C678    1.417   .     A
C668   H686    1.110   .     S
C668   H688    1.110   .     S
C668   N721    1.450   .     S
C668   H687    1.112   .     S
C669   H691    1.111   .     S
C669   N722    1.447   .     S
C669   H690    1.111   .     S
C669   H693    1.108   .     S
C670   N723    1.450   .     S
C670   H695    1.109   .     S
C670   H788    1.111   .     S
C670   H789    1.109   .     S
C671   H699    1.111   .     S
C671   N724    1.448   .     S
C671   H701    1.111   .     S
C671   H700    1.110   .     S
C672   H705    1.110   .     S
C672   N725    1.448   .     S
C672   H796    1.110   .     S
C672   H1534   1.110   .     S
C673   H708    1.111   .     S
C673   H709    1.108   .     S
C673   N726    1.446   .     S
C673   H710    1.108   .     S
C674   N718    1.157   .     T
C675   C679    1.382   .     A
C675   C1484   1.407   1_554 S
C675   C1504   1.408   1_554 S
C676   C677    1.400   .     A
C676   C1489   1.415   .     S
C676   C1503   1.408   .     S
C677   C678    1.393   .     A
C677   H711    1.081   .     S
C678   H715    1.081   .     S
C679   N726    1.429   .     S
C680   N720    1.419   .     S
H685   N721    1.031   .     S
H689   N722    1.030   .     S
H694   N723    1.031   .     S
H698   N724    1.031   .     S
H702   N725    1.031   .     S
H706   C1500   1.110   1_554 S
H707   N726    1.029   .     S
H714   C1492   1.077   1_554 S
H716   N720    1.026   .     S
N717   Zn735   2.027   .     S
N719   Zn736   2.027   .     S
N725   C1489   1.423   .     S
O727   Zn735   1.980   .     S
O728   Zn736   1.978   .     S
O729   Zn735   1.972   .     S
O730   Zn736   1.942   .     S
O731   Zn735   1.978   .     S
O732   Zn736   1.980   .     S
O733   Zn735   1.942   .     S
O734   Zn736   1.972   .     S
C737   O820    1.283   .     A
C737   C745    1.407   .     S
C737   O819    1.286   .     A
C738   C755    1.399   .     A
C738   C740    1.454   .     S
C738   C759    1.418   .     A
C739   C766    1.447   .     S
C739   C745    1.403   .     A
C739   C189    1.372   1_565 S
C740   O822    1.295   .     A
C740   O821    1.301   .     A
C741   H773    1.086   .     S
C741   C742    1.389   .     A
C742   C751    1.401   .     S
C742   C743    1.400   .     A
C743   N813    1.427   .     S
C744   C745    1.404   .     A
C744   N814    1.426   .     S
C744   C191    1.390   1_565 S
C746   N811    1.388   .     A
C746   N815    1.424   .     S
C746   C563    1.425   1_655 S
C747   H784    1.078   .     S
C747   N809    1.355   .     A
C748   C759    1.406   .     A
C748   C1585   1.413   .     S
C748   C1595   1.407   .     S
C749   N809    1.362   .     A
C749   H795    1.081   .     S
C750   N816    1.418   .     S
C750   N811    1.377   .     A
C750   C565    1.425   1_655 S
C751   O823    1.282   .     A
C751   O824    1.287   .     A
C752   O826    1.306   .     A
C752   O825    1.296   .     A
C752   C754    1.470   .     S
C753   C772    1.415   .     A
C753   C1596   1.415   1_554 S
C753   N1645   1.423   1_554 S
C754   C771    1.409   .     A
C754   C772    1.413   .     A
C755   C756    1.384   .     A
C755   H804    1.084   .     S
C756   C1585   1.386   .     S
C756   H1634   1.077   .     S
C757   H805    1.080   .     S
C757   C1576   1.413   1_554 S
C757   C1584   1.386   1_554 S
C758   N812    1.444   .     S
C758   H776    1.109   .     S
C758   H775    1.111   .     S
C758   H590    1.108   1_655 S
C759   C770    1.417   .     A
C760   H778    1.110   .     S
C760   H780    1.110   .     S
C760   N813    1.450   .     S
C760   H779    1.112   .     S
C761   H783    1.111   .     S
C761   N814    1.447   .     S
C761   H782    1.111   .     S
C761   H785    1.108   .     S
C762   N815    1.450   .     S
C762   H787    1.109   .     S
C762   H604    1.111   1_655 S
C762   H605    1.109   1_655 S
C763   H791    1.111   .     S
C763   N816    1.448   .     S
C763   H793    1.111   .     S
C763   H792    1.110   .     S
C764   H797    1.110   .     S
C764   N817    1.448   .     S
C764   H612    1.110   1_655 S
C764   H1626   1.110   .     S
C765   H800    1.111   .     S
C765   H801    1.108   .     S
C765   N818    1.446   .     S
C765   H802    1.108   .     S
C766   N810    1.157   .     T
C767   C771    1.382   .     A
C767   C1576   1.407   1_554 S
C767   C1596   1.408   1_554 S
C768   C769    1.400   .     A
C768   C1581   1.415   .     S
C768   C1595   1.408   .     S
C769   C770    1.393   .     A
C769   H803    1.081   .     S
C770   H807    1.081   .     S
C771   N818    1.429   .     S
C772   N812    1.419   .     S
H777   N813    1.031   .     S
H781   N814    1.030   .     S
H786   N815    1.031   .     S
H790   N816    1.031   .     S
H794   N817    1.031   .     S
H798   C1592   1.110   1_554 S
H799   N818    1.029   .     S
H806   C1584   1.077   1_554 S
H808   N812    1.026   .     S
N809   Zn827   2.027   .     S
N811   Zn828   2.027   .     S
N817   C1581   1.423   .     S
O819   Zn827   1.980   .     S
O820   Zn828   1.978   .     S
O821   Zn827   1.972   .     S
O822   Zn828   1.942   .     S
O823   Zn827   1.978   .     S
O824   Zn828   1.980   .     S
O825   Zn827   1.942   .     S
O826   Zn828   1.972   .     S
C829   O912    1.283   .     A
C829   C837    1.407   .     S
C829   O911    1.286   .     A
C830   C847    1.399   .     A
C830   C832    1.454   .     S
C830   C851    1.418   .     A
C831   C858    1.447   .     S
C831   C837    1.403   .     A
C831   C1109   1.372   .     S
C832   O914    1.295   .     A
C832   O913    1.301   .     A
C833   H865    1.086   .     S
C833   C834    1.389   .     A
C833   C1383   1.372   1_545 S
C834   C843    1.401   .     S
C834   C835    1.400   .     A
C835   N905    1.427   .     S
C835   C1388   1.390   1_545 S
C836   C837    1.404   .     A
C836   N906    1.426   .     S
C836   C1111   1.390   .     S
C838   N903    1.388   .     A
C838   N907    1.424   .     S
C838   C931    1.425   .     S
C839   H876    1.078   .     S
C839   N901    1.355   .     A
C839   C1022   1.425   1_455 S
C840   C851    1.406   .     A
C840   C21     1.413   1_556 S
C840   C31     1.407   1_556 S
C841   N901    1.362   .     A
C841   H887    1.081   .     S
C841   C1026   1.425   1_455 S
C842   N908    1.418   .     S
C842   N903    1.377   .     A
C842   C933    1.425   .     S
C843   O915    1.282   .     A
C843   O916    1.287   .     A
C844   O918    1.306   .     A
C844   O917    1.296   .     A
C844   C846    1.470   .     S
C845   C864    1.415   .     A
C846   C863    1.409   .     A
C846   C864    1.413   .     A
C847   C848    1.384   .     A
C847   H896    1.084   .     S
C848   C21     1.386   1_556 S
C848   H70     1.077   1_556 S
C849   H897    1.080   .     S
C850   N904    1.444   .     S
C850   H868    1.109   .     S
C850   H867    1.111   .     S
C850   H958    1.108   .     S
C851   C862    1.417   .     A
C852   H870    1.110   .     S
C852   H872    1.110   .     S
C852   N905    1.450   .     S
C852   H871    1.112   .     S
C853   H875    1.111   .     S
C853   N906    1.447   .     S
C853   H874    1.111   .     S
C853   H877    1.108   .     S
C854   N907    1.450   .     S
C854   H879    1.109   .     S
C854   H972    1.111   .     S
C854   H973    1.109   .     S
C855   H883    1.111   .     S
C855   N908    1.448   .     S
C855   H885    1.111   .     S
C855   H884    1.110   .     S
C856   H889    1.110   .     S
C856   N909    1.448   .     S
C856   H980    1.110   .     S
C856   H62     1.110   1_556 S
C857   H892    1.111   .     S
C857   H893    1.108   .     S
C857   N910    1.446   .     S
C857   H894    1.108   .     S
C858   N902    1.157   .     T
C859   C863    1.382   .     A
C860   C861    1.400   .     A
C860   C17     1.415   1_556 S
C860   C31     1.408   1_556 S
C861   C862    1.393   .     A
C861   H895    1.081   .     S
C862   H899    1.081   .     S
C863   N910    1.429   .     S
C864   N904    1.419   .     S
H866   C1034   1.108   1_455 S
H869   N905    1.031   .     S
H873   N906    1.030   .     S
H878   N907    1.031   .     S
H880   C1038   1.111   1_455 S
H881   C1038   1.109   1_455 S
H882   N908    1.031   .     S
H886   N909    1.031   .     S
H888   C1040   1.110   1_455 S
H891   N910    1.029   .     S
H900   N904    1.026   .     S
N901   Zn919   2.027   .     S
N903   Zn920   2.027   .     S
N909   C17     1.423   1_556 S
O911   Zn919   1.980   .     S
O912   Zn920   1.978   .     S
O913   Zn919   1.972   .     S
O914   Zn920   1.942   .     S
O915   Zn919   1.978   .     S
O916   Zn920   1.980   .     S
O917   Zn919   1.942   .     S
O918   Zn920   1.972   .     S
C921   O1004   1.283   .     A
C921   C929    1.407   .     S
C921   O1003   1.286   .     A
C922   C939    1.399   .     A
C922   C924    1.454   .     S
C922   C943    1.418   .     A
C923   C950    1.447   .     S
C923   C929    1.403   .     A
C923   C1201   1.372   .     S
C924   O1006   1.295   .     A
C924   O1005   1.301   .     A
C925   H957    1.086   .     S
C925   C926    1.389   .     A
C925   C1475   1.372   1_545 S
C926   C935    1.401   .     S
C926   C927    1.400   .     A
C927   N997    1.427   .     S
C927   C1480   1.390   1_545 S
C928   C929    1.404   .     A
C928   N998    1.426   .     S
C928   C1203   1.390   .     S
C930   N995    1.388   .     A
C930   N999    1.424   .     S
C930   C1023   1.425   .     S
C931   H968    1.078   .     S
C931   N993    1.355   .     A
C932   C943    1.406   .     A
C932   C113    1.413   1_556 S
C932   C123    1.407   1_556 S
C933   N993    1.362   .     A
C933   H979    1.081   .     S
C934   N1000   1.418   .     S
C934   N995    1.377   .     A
C934   C1025   1.425   .     S
C935   O1007   1.282   .     A
C935   O1008   1.287   .     A
C936   O1010   1.306   .     A
C936   O1009   1.296   .     A
C936   C938    1.470   .     S
C937   C956    1.415   .     A
C938   C955    1.409   .     A
C938   C956    1.413   .     A
C939   C940    1.384   .     A
C939   H988    1.084   .     S
C940   C113    1.386   1_556 S
C940   H162    1.077   1_556 S
C941   H989    1.080   .     S
C942   N996    1.444   .     S
C942   H960    1.109   .     S
C942   H959    1.111   .     S
C942   H1050   1.108   .     S
C943   C954    1.417   .     A
C944   H962    1.110   .     S
C944   H964    1.110   .     S
C944   N997    1.450   .     S
C944   H963    1.112   .     S
C945   H967    1.111   .     S
C945   N998    1.447   .     S
C945   H966    1.111   .     S
C945   H969    1.108   .     S
C946   N999    1.450   .     S
C946   H971    1.109   .     S
C946   H1064   1.111   .     S
C946   H1065   1.109   .     S
C947   H975    1.111   .     S
C947   N1000   1.448   .     S
C947   H977    1.111   .     S
C947   H976    1.110   .     S
C948   H981    1.110   .     S
C948   N1001   1.448   .     S
C948   H1072   1.110   .     S
C948   H154    1.110   1_556 S
C949   H984    1.111   .     S
C949   H985    1.108   .     S
C949   N1002   1.446   .     S
C949   H986    1.108   .     S
C950   N994    1.157   .     T
C951   C955    1.382   .     A
C952   C953    1.400   .     A
C952   C109    1.415   1_556 S
C952   C123    1.408   1_556 S
C953   C954    1.393   .     A
C953   H987    1.081   .     S
C954   H991    1.081   .     S
C955   N1002   1.429   .     S
C956   N996    1.419   .     S
H961   N997    1.031   .     S
H965   N998    1.030   .     S
H970   N999    1.031   .     S
H974   N1000   1.031   .     S
H978   N1001   1.031   .     S
H983   N1002   1.029   .     S
H992   N996    1.026   .     S
N993   Zn1011  2.027   .     S
N995   Zn1012  2.027   .     S
N1001  C109    1.423   1_556 S
O1003  Zn1011  1.980   .     S
O1004  Zn1012  1.978   .     S
O1005  Zn1011  1.972   .     S
O1006  Zn1012  1.942   .     S
O1007  Zn1011  1.978   .     S
O1008  Zn1012  1.980   .     S
O1009  Zn1011  1.942   .     S
O1010  Zn1012  1.972   .     S
C1013  O1096   1.283   .     A
C1013  C1021   1.407   .     S
C1013  O1095   1.286   .     A
C1014  C1031   1.399   .     A
C1014  C1016   1.454   .     S
C1014  C1035   1.418   .     A
C1015  C1042   1.447   .     S
C1015  C1021   1.403   .     A
C1015  C1293   1.372   .     S
C1016  O1098   1.295   .     A
C1016  O1097   1.301   .     A
C1017  H1049   1.086   .     S
C1017  C1018   1.389   .     A
C1017  C1567   1.372   1_545 S
C1018  C1027   1.401   .     S
C1018  C1019   1.400   .     A
C1019  N1089   1.427   .     S
C1019  C1572   1.390   1_545 S
C1020  C1021   1.404   .     A
C1020  N1090   1.426   .     S
C1020  C1295   1.390   .     S
C1022  N1087   1.388   .     A
C1022  N1091   1.424   .     S
C1022  C839    1.425   1_655 S
C1023  H1060   1.078   .     S
C1023  N1085   1.355   .     A
C1024  C1035   1.406   .     A
C1024  C205    1.413   1_556 S
C1024  C215    1.407   1_556 S
C1025  N1085   1.362   .     A
C1025  H1071   1.081   .     S
C1026  N1092   1.418   .     S
C1026  N1087   1.377   .     A
C1026  C841    1.425   1_655 S
C1027  O1099   1.282   .     A
C1027  O1100   1.287   .     A
C1028  O1102   1.306   .     A
C1028  O1101   1.296   .     A
C1028  C1030   1.470   .     S
C1029  C1048   1.415   .     A
C1030  C1047   1.409   .     A
C1030  C1048   1.413   .     A
C1031  C1032   1.384   .     A
C1031  H1080   1.084   .     S
C1032  C205    1.386   1_556 S
C1032  H254    1.077   1_556 S
C1033  H1081   1.080   .     S
C1034  N1088   1.444   .     S
C1034  H1052   1.109   .     S
C1034  H1051   1.111   .     S
C1034  H866    1.108   1_655 S
C1035  C1046   1.417   .     A
C1036  H1054   1.110   .     S
C1036  H1056   1.110   .     S
C1036  N1089   1.450   .     S
C1036  H1055   1.112   .     S
C1037  H1059   1.111   .     S
C1037  N1090   1.447   .     S
C1037  H1058   1.111   .     S
C1037  H1061   1.108   .     S
C1038  N1091   1.450   .     S
C1038  H1063   1.109   .     S
C1038  H880    1.111   1_655 S
C1038  H881    1.109   1_655 S
C1039  H1067   1.111   .     S
C1039  N1092   1.448   .     S
C1039  H1069   1.111   .     S
C1039  H1068   1.110   .     S
C1040  H1073   1.110   .     S
C1040  N1093   1.448   .     S
C1040  H888    1.110   1_655 S
C1040  H246    1.110   1_556 S
C1041  H1076   1.111   .     S
C1041  H1077   1.108   .     S
C1041  N1094   1.446   .     S
C1041  H1078   1.108   .     S
C1042  N1086   1.157   .     T
C1043  C1047   1.382   .     A
C1044  C1045   1.400   .     A
C1044  C201    1.415   1_556 S
C1044  C215    1.408   1_556 S
C1045  C1046   1.393   .     A
C1045  H1079   1.081   .     S
C1046  H1083   1.081   .     S
C1047  N1094   1.429   .     S
C1048  N1088   1.419   .     S
H1053  N1089   1.031   .     S
H1057  N1090   1.030   .     S
H1062  N1091   1.031   .     S
H1066  N1092   1.031   .     S
H1070  N1093   1.031   .     S
H1075  N1094   1.029   .     S
H1084  N1088   1.026   .     S
N1085  Zn1103  2.027   .     S
N1087  Zn1104  2.027   .     S
N1093  C201    1.423   1_556 S
O1095  Zn1103  1.980   .     S
O1096  Zn1104  1.978   .     S
O1097  Zn1103  1.972   .     S
O1098  Zn1104  1.942   .     S
O1099  Zn1103  1.978   .     S
O1100  Zn1104  1.980   .     S
O1101  Zn1103  1.942   .     S
O1102  Zn1104  1.972   .     S
C1105  O1188   1.283   .     A
C1105  C1113   1.407   .     S
C1105  O1187   1.286   .     A
C1106  C1123   1.399   .     A
C1106  C1108   1.454   .     S
C1106  C1127   1.418   .     A
C1107  C1134   1.447   .     S
C1107  C1113   1.403   .     A
C1107  C1385   1.372   .     S
C1108  O1190   1.295   .     A
C1108  O1189   1.301   .     A
C1109  H1141   1.086   .     S
C1109  C1110   1.389   .     A
C1110  C1119   1.401   .     S
C1110  C1111   1.400   .     A
C1111  N1181   1.427   .     S
C1112  C1113   1.404   .     A
C1112  N1182   1.426   .     S
C1112  C1387   1.390   .     S
C1114  N1179   1.388   .     A
C1114  N1183   1.424   .     S
C1114  C1207   1.425   .     S
C1115  H1152   1.078   .     S
C1115  N1177   1.355   .     A
C1115  C1298   1.425   1_455 S
C1116  C1127   1.406   .     A
C1116  C297    1.413   1_556 S
C1116  C307    1.407   1_556 S
C1117  N1177   1.362   .     A
C1117  H1163   1.081   .     S
C1117  C1302   1.425   1_455 S
C1118  N1184   1.418   .     S
C1118  N1179   1.377   .     A
C1118  C1209   1.425   .     S
C1119  O1191   1.282   .     A
C1119  O1192   1.287   .     A
C1120  O1194   1.306   .     A
C1120  O1193   1.296   .     A
C1120  C1122   1.470   .     S
C1121  C1140   1.415   .     A
C1122  C1139   1.409   .     A
C1122  C1140   1.413   .     A
C1123  C1124   1.384   .     A
C1123  H1172   1.084   .     S
C1124  C297    1.386   1_556 S
C1124  H346    1.077   1_556 S
C1125  H1173   1.080   .     S
C1126  N1180   1.444   .     S
C1126  H1144   1.109   .     S
C1126  H1143   1.111   .     S
C1126  H1234   1.108   .     S
C1127  C1138   1.417   .     A
C1128  H1146   1.110   .     S
C1128  H1148   1.110   .     S
C1128  N1181   1.450   .     S
C1128  H1147   1.112   .     S
C1129  H1151   1.111   .     S
C1129  N1182   1.447   .     S
C1129  H1150   1.111   .     S
C1129  H1153   1.108   .     S
C1130  N1183   1.450   .     S
C1130  H1155   1.109   .     S
C1130  H1248   1.111   .     S
C1130  H1249   1.109   .     S
C1131  H1159   1.111   .     S
C1131  N1184   1.448   .     S
C1131  H1161   1.111   .     S
C1131  H1160   1.110   .     S
C1132  H1165   1.110   .     S
C1132  N1185   1.448   .     S
C1132  H1256   1.110   .     S
C1132  H338    1.110   1_556 S
C1133  H1168   1.111   .     S
C1133  H1169   1.108   .     S
C1133  N1186   1.446   .     S
C1133  H1170   1.108   .     S
C1134  N1178   1.157   .     T
C1135  C1139   1.382   .     A
C1136  C1137   1.400   .     A
C1136  C293    1.415   1_556 S
C1136  C307    1.408   1_556 S
C1137  C1138   1.393   .     A
C1137  H1171   1.081   .     S
C1138  H1175   1.081   .     S
C1139  N1186   1.429   .     S
C1140  N1180   1.419   .     S
H1142  C1310   1.108   1_455 S
H1145  N1181   1.031   .     S
H1149  N1182   1.030   .     S
H1154  N1183   1.031   .     S
H1156  C1314   1.111   1_455 S
H1157  C1314   1.109   1_455 S
H1158  N1184   1.031   .     S
H1162  N1185   1.031   .     S
H1164  C1316   1.110   1_455 S
H1167  N1186   1.029   .     S
H1176  N1180   1.026   .     S
N1177  Zn1195  2.027   .     S
N1179  Zn1196  2.027   .     S
N1185  C293    1.423   1_556 S
O1187  Zn1195  1.980   .     S
O1188  Zn1196  1.978   .     S
O1189  Zn1195  1.972   .     S
O1190  Zn1196  1.942   .     S
O1191  Zn1195  1.978   .     S
O1192  Zn1196  1.980   .     S
O1193  Zn1195  1.942   .     S
O1194  Zn1196  1.972   .     S
C1197  O1280   1.283   .     A
C1197  C1205   1.407   .     S
C1197  O1279   1.286   .     A
C1198  C1215   1.399   .     A
C1198  C1200   1.454   .     S
C1198  C1219   1.418   .     A
C1199  C1226   1.447   .     S
C1199  C1205   1.403   .     A
C1199  C1477   1.372   .     S
C1200  O1282   1.295   .     A
C1200  O1281   1.301   .     A
C1201  H1233   1.086   .     S
C1201  C1202   1.389   .     A
C1202  C1211   1.401   .     S
C1202  C1203   1.400   .     A
C1203  N1273   1.427   .     S
C1204  C1205   1.404   .     A
C1204  N1274   1.426   .     S
C1204  C1479   1.390   .     S
C1206  N1271   1.388   .     A
C1206  N1275   1.424   .     S
C1206  C1299   1.425   .     S
C1207  H1244   1.078   .     S
C1207  N1269   1.355   .     A
C1208  C1219   1.406   .     A
C1208  C389    1.413   1_556 S
C1208  C399    1.407   1_556 S
C1209  N1269   1.362   .     A
C1209  H1255   1.081   .     S
C1210  N1276   1.418   .     S
C1210  N1271   1.377   .     A
C1210  C1301   1.425   .     S
C1211  O1283   1.282   .     A
C1211  O1284   1.287   .     A
C1212  O1286   1.306   .     A
C1212  O1285   1.296   .     A
C1212  C1214   1.470   .     S
C1213  C1232   1.415   .     A
C1214  C1231   1.409   .     A
C1214  C1232   1.413   .     A
C1215  C1216   1.384   .     A
C1215  H1264   1.084   .     S
C1216  C389    1.386   1_556 S
C1216  H438    1.077   1_556 S
C1217  H1265   1.080   .     S
C1218  N1272   1.444   .     S
C1218  H1236   1.109   .     S
C1218  H1235   1.111   .     S
C1218  H1326   1.108   .     S
C1219  C1230   1.417   .     A
C1220  H1238   1.110   .     S
C1220  H1240   1.110   .     S
C1220  N1273   1.450   .     S
C1220  H1239   1.112   .     S
C1221  H1243   1.111   .     S
C1221  N1274   1.447   .     S
C1221  H1242   1.111   .     S
C1221  H1245   1.108   .     S
C1222  N1275   1.450   .     S
C1222  H1247   1.109   .     S
C1222  H1340   1.111   .     S
C1222  H1341   1.109   .     S
C1223  H1251   1.111   .     S
C1223  N1276   1.448   .     S
C1223  H1253   1.111   .     S
C1223  H1252   1.110   .     S
C1224  H1257   1.110   .     S
C1224  N1277   1.448   .     S
C1224  H1348   1.110   .     S
C1224  H430    1.110   1_556 S
C1225  H1260   1.111   .     S
C1225  H1261   1.108   .     S
C1225  N1278   1.446   .     S
C1225  H1262   1.108   .     S
C1226  N1270   1.157   .     T
C1227  C1231   1.382   .     A
C1228  C1229   1.400   .     A
C1228  C385    1.415   1_556 S
C1228  C399    1.408   1_556 S
C1229  C1230   1.393   .     A
C1229  H1263   1.081   .     S
C1230  H1267   1.081   .     S
C1231  N1278   1.429   .     S
C1232  N1272   1.419   .     S
H1237  N1273   1.031   .     S
H1241  N1274   1.030   .     S
H1246  N1275   1.031   .     S
H1250  N1276   1.031   .     S
H1254  N1277   1.031   .     S
H1259  N1278   1.029   .     S
H1268  N1272   1.026   .     S
N1269  Zn1287  2.027   .     S
N1271  Zn1288  2.027   .     S
N1277  C385    1.423   1_556 S
O1279  Zn1287  1.980   .     S
O1280  Zn1288  1.978   .     S
O1281  Zn1287  1.972   .     S
O1282  Zn1288  1.942   .     S
O1283  Zn1287  1.978   .     S
O1284  Zn1288  1.980   .     S
O1285  Zn1287  1.942   .     S
O1286  Zn1288  1.972   .     S
C1289  O1372   1.283   .     A
C1289  C1297   1.407   .     S
C1289  O1371   1.286   .     A
C1290  C1307   1.399   .     A
C1290  C1292   1.454   .     S
C1290  C1311   1.418   .     A
C1291  C1318   1.447   .     S
C1291  C1297   1.403   .     A
C1291  C1569   1.372   .     S
C1292  O1374   1.295   .     A
C1292  O1373   1.301   .     A
C1293  H1325   1.086   .     S
C1293  C1294   1.389   .     A
C1294  C1303   1.401   .     S
C1294  C1295   1.400   .     A
C1295  N1365   1.427   .     S
C1296  C1297   1.404   .     A
C1296  N1366   1.426   .     S
C1296  C1571   1.390   .     S
C1298  N1363   1.388   .     A
C1298  N1367   1.424   .     S
C1298  C1115   1.425   1_655 S
C1299  H1336   1.078   .     S
C1299  N1361   1.355   .     A
C1300  C1311   1.406   .     A
C1300  C481    1.413   1_556 S
C1300  C491    1.407   1_556 S
C1301  N1361   1.362   .     A
C1301  H1347   1.081   .     S
C1302  N1368   1.418   .     S
C1302  N1363   1.377   .     A
C1302  C1117   1.425   1_655 S
C1303  O1375   1.282   .     A
C1303  O1376   1.287   .     A
C1304  O1378   1.306   .     A
C1304  O1377   1.296   .     A
C1304  C1306   1.470   .     S
C1305  C1324   1.415   .     A
C1306  C1323   1.409   .     A
C1306  C1324   1.413   .     A
C1307  C1308   1.384   .     A
C1307  H1356   1.084   .     S
C1308  C481    1.386   1_556 S
C1308  H530    1.077   1_556 S
C1309  H1357   1.080   .     S
C1310  N1364   1.444   .     S
C1310  H1328   1.109   .     S
C1310  H1327   1.111   .     S
C1310  H1142   1.108   1_655 S
C1311  C1322   1.417   .     A
C1312  H1330   1.110   .     S
C1312  H1332   1.110   .     S
C1312  N1365   1.450   .     S
C1312  H1331   1.112   .     S
C1313  H1335   1.111   .     S
C1313  N1366   1.447   .     S
C1313  H1334   1.111   .     S
C1313  H1337   1.108   .     S
C1314  N1367   1.450   .     S
C1314  H1339   1.109   .     S
C1314  H1156   1.111   1_655 S
C1314  H1157   1.109   1_655 S
C1315  H1343   1.111   .     S
C1315  N1368   1.448   .     S
C1315  H1345   1.111   .     S
C1315  H1344   1.110   .     S
C1316  H1349   1.110   .     S
C1316  N1369   1.448   .     S
C1316  H1164   1.110   1_655 S
C1316  H522    1.110   1_556 S
C1317  H1352   1.111   .     S
C1317  H1353   1.108   .     S
C1317  N1370   1.446   .     S
C1317  H1354   1.108   .     S
C1318  N1362   1.157   .     T
C1319  C1323   1.382   .     A
C1320  C1321   1.400   .     A
C1320  C477    1.415   1_556 S
C1320  C491    1.408   1_556 S
C1321  C1322   1.393   .     A
C1321  H1355   1.081   .     S
C1322  H1359   1.081   .     S
C1323  N1370   1.429   .     S
C1324  N1364   1.419   .     S
H1329  N1365   1.031   .     S
H1333  N1366   1.030   .     S
H1338  N1367   1.031   .     S
H1342  N1368   1.031   .     S
H1346  N1369   1.031   .     S
H1351  N1370   1.029   .     S
H1360  N1364   1.026   .     S
N1361  Zn1379  2.027   .     S
N1363  Zn1380  2.027   .     S
N1369  C477    1.423   1_556 S
O1371  Zn1379  1.980   .     S
O1372  Zn1380  1.978   .     S
O1373  Zn1379  1.972   .     S
O1374  Zn1380  1.942   .     S
O1375  Zn1379  1.978   .     S
O1376  Zn1380  1.980   .     S
O1377  Zn1379  1.942   .     S
O1378  Zn1380  1.972   .     S
C1381  O1464   1.283   .     A
C1381  C1389   1.407   .     S
C1381  O1463   1.286   .     A
C1382  C1399   1.399   .     A
C1382  C1384   1.454   .     S
C1382  C1403   1.418   .     A
C1383  C1410   1.447   .     S
C1383  C1389   1.403   .     A
C1383  C833    1.372   1_565 S
C1384  O1466   1.295   .     A
C1384  O1465   1.301   .     A
C1385  H1417   1.086   .     S
C1385  C1386   1.389   .     A
C1386  C1395   1.401   .     S
C1386  C1387   1.400   .     A
C1387  N1457   1.427   .     S
C1388  C1389   1.404   .     A
C1388  N1458   1.426   .     S
C1388  C835    1.390   1_565 S
C1390  N1455   1.388   .     A
C1390  N1459   1.424   .     S
C1390  C1483   1.425   .     S
C1391  H1428   1.078   .     S
C1391  N1453   1.355   .     A
C1391  C1574   1.425   1_455 S
C1392  C1403   1.406   .     A
C1392  C573    1.413   1_556 S
C1392  C583    1.407   1_556 S
C1393  N1453   1.362   .     A
C1393  H1439   1.081   .     S
C1393  C1578   1.425   1_455 S
C1394  N1460   1.418   .     S
C1394  N1455   1.377   .     A
C1394  C1485   1.425   .     S
C1395  O1467   1.282   .     A
C1395  O1468   1.287   .     A
C1396  O1470   1.306   .     A
C1396  O1469   1.296   .     A
C1396  C1398   1.470   .     S
C1397  C1416   1.415   .     A
C1398  C1415   1.409   .     A
C1398  C1416   1.413   .     A
C1399  C1400   1.384   .     A
C1399  H1448   1.084   .     S
C1400  C573    1.386   1_556 S
C1400  H622    1.077   1_556 S
C1401  H1449   1.080   .     S
C1402  N1456   1.444   .     S
C1402  H1420   1.109   .     S
C1402  H1419   1.111   .     S
C1402  H1510   1.108   .     S
C1403  C1414   1.417   .     A
C1404  H1422   1.110   .     S
C1404  H1424   1.110   .     S
C1404  N1457   1.450   .     S
C1404  H1423   1.112   .     S
C1405  H1427   1.111   .     S
C1405  N1458   1.447   .     S
C1405  H1426   1.111   .     S
C1405  H1429   1.108   .     S
C1406  N1459   1.450   .     S
C1406  H1431   1.109   .     S
C1406  H1524   1.111   .     S
C1406  H1525   1.109   .     S
C1407  H1435   1.111   .     S
C1407  N1460   1.448   .     S
C1407  H1437   1.111   .     S
C1407  H1436   1.110   .     S
C1408  H1441   1.110   .     S
C1408  N1461   1.448   .     S
C1408  H1532   1.110   .     S
C1408  H614    1.110   1_556 S
C1409  H1444   1.111   .     S
C1409  H1445   1.108   .     S
C1409  N1462   1.446   .     S
C1409  H1446   1.108   .     S
C1410  N1454   1.157   .     T
C1411  C1415   1.382   .     A
C1412  C1413   1.400   .     A
C1412  C569    1.415   1_556 S
C1412  C583    1.408   1_556 S
C1413  C1414   1.393   .     A
C1413  H1447   1.081   .     S
C1414  H1451   1.081   .     S
C1415  N1462   1.429   .     S
C1416  N1456   1.419   .     S
H1418  C1586   1.108   1_455 S
H1421  N1457   1.031   .     S
H1425  N1458   1.030   .     S
H1430  N1459   1.031   .     S
H1432  C1590   1.111   1_455 S
H1433  C1590   1.109   1_455 S
H1434  N1460   1.031   .     S
H1438  N1461   1.031   .     S
H1440  C1592   1.110   1_455 S
H1443  N1462   1.029   .     S
H1452  N1456   1.026   .     S
N1453  Zn1471  2.027   .     S
N1455  Zn1472  2.027   .     S
N1461  C569    1.423   1_556 S
O1463  Zn1471  1.980   .     S
O1464  Zn1472  1.978   .     S
O1465  Zn1471  1.972   .     S
O1466  Zn1472  1.942   .     S
O1467  Zn1471  1.978   .     S
O1468  Zn1472  1.980   .     S
O1469  Zn1471  1.942   .     S
O1470  Zn1472  1.972   .     S
C1473  O1556   1.283   .     A
C1473  C1481   1.407   .     S
C1473  O1555   1.286   .     A
C1474  C1491   1.399   .     A
C1474  C1476   1.454   .     S
C1474  C1495   1.418   .     A
C1475  C1502   1.447   .     S
C1475  C1481   1.403   .     A
C1475  C925    1.372   1_565 S
C1476  O1558   1.295   .     A
C1476  O1557   1.301   .     A
C1477  H1509   1.086   .     S
C1477  C1478   1.389   .     A
C1478  C1487   1.401   .     S
C1478  C1479   1.400   .     A
C1479  N1549   1.427   .     S
C1480  C1481   1.404   .     A
C1480  N1550   1.426   .     S
C1480  C927    1.390   1_565 S
C1482  N1547   1.388   .     A
C1482  N1551   1.424   .     S
C1482  C1575   1.425   .     S
C1483  H1520   1.078   .     S
C1483  N1545   1.355   .     A
C1484  C1495   1.406   .     A
C1484  C665    1.413   1_556 S
C1484  C675    1.407   1_556 S
C1485  N1545   1.362   .     A
C1485  H1531   1.081   .     S
C1486  N1552   1.418   .     S
C1486  N1547   1.377   .     A
C1486  C1577   1.425   .     S
C1487  O1559   1.282   .     A
C1487  O1560   1.287   .     A
C1488  O1562   1.306   .     A
C1488  O1561   1.296   .     A
C1488  C1490   1.470   .     S
C1489  C1508   1.415   .     A
C1490  C1507   1.409   .     A
C1490  C1508   1.413   .     A
C1491  C1492   1.384   .     A
C1491  H1540   1.084   .     S
C1492  C665    1.386   1_556 S
C1492  H714    1.077   1_556 S
C1493  H1541   1.080   .     S
C1494  N1548   1.444   .     S
C1494  H1512   1.109   .     S
C1494  H1511   1.111   .     S
C1494  H1602   1.108   .     S
C1495  C1506   1.417   .     A
C1496  H1514   1.110   .     S
C1496  H1516   1.110   .     S
C1496  N1549   1.450   .     S
C1496  H1515   1.112   .     S
C1497  H1519   1.111   .     S
C1497  N1550   1.447   .     S
C1497  H1518   1.111   .     S
C1497  H1521   1.108   .     S
C1498  N1551   1.450   .     S
C1498  H1523   1.109   .     S
C1498  H1616   1.111   .     S
C1498  H1617   1.109   .     S
C1499  H1527   1.111   .     S
C1499  N1552   1.448   .     S
C1499  H1529   1.111   .     S
C1499  H1528   1.110   .     S
C1500  H1533   1.110   .     S
C1500  N1553   1.448   .     S
C1500  H1624   1.110   .     S
C1500  H706    1.110   1_556 S
C1501  H1536   1.111   .     S
C1501  H1537   1.108   .     S
C1501  N1554   1.446   .     S
C1501  H1538   1.108   .     S
C1502  N1546   1.157   .     T
C1503  C1507   1.382   .     A
C1504  C1505   1.400   .     A
C1504  C661    1.415   1_556 S
C1504  C675    1.408   1_556 S
C1505  C1506   1.393   .     A
C1505  H1539   1.081   .     S
C1506  H1543   1.081   .     S
C1507  N1554   1.429   .     S
C1508  N1548   1.419   .     S
H1513  N1549   1.031   .     S
H1517  N1550   1.030   .     S
H1522  N1551   1.031   .     S
H1526  N1552   1.031   .     S
H1530  N1553   1.031   .     S
H1535  N1554   1.029   .     S
H1544  N1548   1.026   .     S
N1545  Zn1563  2.027   .     S
N1547  Zn1564  2.027   .     S
N1553  C661    1.423   1_556 S
O1555  Zn1563  1.980   .     S
O1556  Zn1564  1.978   .     S
O1557  Zn1563  1.972   .     S
O1558  Zn1564  1.942   .     S
O1559  Zn1563  1.978   .     S
O1560  Zn1564  1.980   .     S
O1561  Zn1563  1.942   .     S
O1562  Zn1564  1.972   .     S
C1565  O1648   1.283   .     A
C1565  C1573   1.407   .     S
C1565  O1647   1.286   .     A
C1566  C1583   1.399   .     A
C1566  C1568   1.454   .     S
C1566  C1587   1.418   .     A
C1567  C1594   1.447   .     S
C1567  C1573   1.403   .     A
C1567  C1017   1.372   1_565 S
C1568  O1650   1.295   .     A
C1568  O1649   1.301   .     A
C1569  H1601   1.086   .     S
C1569  C1570   1.389   .     A
C1570  C1579   1.401   .     S
C1570  C1571   1.400   .     A
C1571  N1641   1.427   .     S
C1572  C1573   1.404   .     A
C1572  N1642   1.426   .     S
C1572  C1019   1.390   1_565 S
C1574  N1639   1.388   .     A
C1574  N1643   1.424   .     S
C1574  C1391   1.425   1_655 S
C1575  H1612   1.078   .     S
C1575  N1637   1.355   .     A
C1576  C1587   1.406   .     A
C1576  C757    1.413   1_556 S
C1576  C767    1.407   1_556 S
C1577  N1637   1.362   .     A
C1577  H1623   1.081   .     S
C1578  N1644   1.418   .     S
C1578  N1639   1.377   .     A
C1578  C1393   1.425   1_655 S
C1579  O1651   1.282   .     A
C1579  O1652   1.287   .     A
C1580  O1654   1.306   .     A
C1580  O1653   1.296   .     A
C1580  C1582   1.470   .     S
C1581  C1600   1.415   .     A
C1582  C1599   1.409   .     A
C1582  C1600   1.413   .     A
C1583  C1584   1.384   .     A
C1583  H1632   1.084   .     S
C1584  C757    1.386   1_556 S
C1584  H806    1.077   1_556 S
C1585  H1633   1.080   .     S
C1586  N1640   1.444   .     S
C1586  H1604   1.109   .     S
C1586  H1603   1.111   .     S
C1586  H1418   1.108   1_655 S
C1587  C1598   1.417   .     A
C1588  H1606   1.110   .     S
C1588  H1608   1.110   .     S
C1588  N1641   1.450   .     S
C1588  H1607   1.112   .     S
C1589  H1611   1.111   .     S
C1589  N1642   1.447   .     S
C1589  H1610   1.111   .     S
C1589  H1613   1.108   .     S
C1590  N1643   1.450   .     S
C1590  H1615   1.109   .     S
C1590  H1432   1.111   1_655 S
C1590  H1433   1.109   1_655 S
C1591  H1619   1.111   .     S
C1591  N1644   1.448   .     S
C1591  H1621   1.111   .     S
C1591  H1620   1.110   .     S
C1592  H1625   1.110   .     S
C1592  N1645   1.448   .     S
C1592  H1440   1.110   1_655 S
C1592  H798    1.110   1_556 S
C1593  H1628   1.111   .     S
C1593  H1629   1.108   .     S
C1593  N1646   1.446   .     S
C1593  H1630   1.108   .     S
C1594  N1638   1.157   .     T
C1595  C1599   1.382   .     A
C1596  C1597   1.400   .     A
C1596  C753    1.415   1_556 S
C1596  C767    1.408   1_556 S
C1597  C1598   1.393   .     A
C1597  H1631   1.081   .     S
C1598  H1635   1.081   .     S
C1599  N1646   1.429   .     S
C1600  N1640   1.419   .     S
H1605  N1641   1.031   .     S
H1609  N1642   1.030   .     S
H1614  N1643   1.031   .     S
H1618  N1644   1.031   .     S
H1622  N1645   1.031   .     S
H1627  N1646   1.029   .     S
H1636  N1640   1.026   .     S
N1637  Zn1655  2.027   .     S
N1639  Zn1656  2.027   .     S
N1645  C753    1.423   1_556 S
O1647  Zn1655  1.980   .     S
O1648  Zn1656  1.978   .     S
O1649  Zn1655  1.972   .     S
O1650  Zn1656  1.942   .     S
O1651  Zn1655  1.978   .     S
O1652  Zn1656  1.980   .     S
O1653  Zn1655  1.942   .     S
O1654  Zn1656  1.972   .     S
