data_str_m3_o2_o10_pcu_sym.115
_audit_creation_date              2020-01-03
_audit_creation_method            'Materials Studio'
_symmetry_space_group_name_H-M    'P1'
_symmetry_Int_Tables_number       1
_symmetry_cell_setting            triclinic
loop_
_symmetry_equiv_pos_as_xyz
  x,y,z
_cell_length_a                    25.9841
_cell_length_b                    30.0022
_cell_length_c                    28.3190
_cell_angle_alpha                 90.7212
_cell_angle_beta                  98.2470
_cell_angle_gamma                 89.9823
loop_
_atom_site_label
_atom_site_type_symbol
_atom_site_fract_x
_atom_site_fract_y
_atom_site_fract_z
_atom_site_U_iso_or_equiv
_atom_site_adp_type
_atom_site_occupancy
C1     C     0.16702   0.16381   0.24969   0.00000  Uiso   1.00
C2     C     0.16717   0.33620   0.25045   0.00000  Uiso   1.00
C3     C     0.14983   0.21251   0.04989   0.00000  Uiso   1.00
C4     C     0.20379   0.27463   0.45252   0.00000  Uiso   1.00
C5     C     0.14982   0.21334   0.09953   0.00000  Uiso   1.00
C6     C     0.20287   0.27434   0.40275   0.00000  Uiso   1.00
C7     C     0.18379   0.28653   0.10494   0.00000  Uiso   1.00
C8     C     0.13077   0.22544   0.39271   0.00000  Uiso   1.00
C9     C     0.18399   0.28727   0.05535   0.00000  Uiso   1.00
C10    C     0.12997   0.22513   0.44222   0.00000  Uiso   1.00
C11    C     0.16692   0.24988   0.02668   0.00000  Uiso   1.00
C12    C     0.16689   0.24990   0.47331   0.00000  Uiso   1.00
C13    C     0.06723   0.25014   0.23781   0.00000  Uiso   1.00
C14    C     0.26608   0.24992   0.26218   0.00000  Uiso   1.00
C15    C     0.01299   0.25631   0.23216   0.00000  Uiso   1.00
C16    C     0.32029   0.24376   0.26778   0.00000  Uiso   1.00
C17    C     0.13843   0.04835   0.28332   0.00000  Uiso   1.00
C18    C     0.13637   0.45123   0.20931   0.00000  Uiso   1.00
C19    C     0.14214   0.09419   0.28385   0.00000  Uiso   1.00
C20    C     0.13994   0.40536   0.21024   0.00000  Uiso   1.00
C21    C     0.16513   0.11574   0.24854   0.00000  Uiso   1.00
C22    C     0.16515   0.38425   0.25103   0.00000  Uiso   1.00
C23    C     0.18459   0.09112   0.21212   0.00000  Uiso   1.00
C24    C     0.18716   0.40960   0.29141   0.00000  Uiso   1.00
C25    C     0.18000   0.04496   0.21172   0.00000  Uiso   1.00
C26    C     0.18313   0.45553   0.28999   0.00000  Uiso   1.00
C27    C     0.15745   0.02394   0.24737   0.00000  Uiso   1.00
C28    C     0.15790   0.47609   0.24918   0.00000  Uiso   1.00
H29    H     0.12108   0.03182   0.31100   0.00000  Uiso   1.00
H30    H     0.11705   0.46739   0.17761   0.00000  Uiso   1.00
H31    H     0.12671   0.11283   0.31170   0.00000  Uiso   1.00
H32    H     0.12264   0.38635   0.17919   0.00000  Uiso   1.00
H33    H     0.19564   0.02523   0.18476   0.00000  Uiso   1.00
H34    H     0.20079   0.47533   0.32033   0.00000  Uiso   1.00
H35    H     0.13716   0.18245   0.03010   0.00000  Uiso   1.00
H36    H     0.23380   0.29363   0.47443   0.00000  Uiso   1.00
H37    H     0.13645   0.18443   0.11672   0.00000  Uiso   1.00
H38    H     0.23141   0.29344   0.38728   0.00000  Uiso   1.00
H39    H     0.19728   0.31544   0.12637   0.00000  Uiso   1.00
H40    H     0.10257   0.20595   0.36936   0.00000  Uiso   1.00
H41    H     0.19680   0.31727   0.03969   0.00000  Uiso   1.00
H42    H     0.10011   0.20600   0.45579   0.00000  Uiso   1.00
N43    N     0.16667   0.24999   0.12623   0.00000  Uiso   1.00
N44    N     0.16667   0.25001   0.37376   0.00000  Uiso   1.00
O45    O     0.16667   0.18453   0.28974   0.00000  Uiso   1.00
O46    O     0.16666   0.31546   0.21026   0.00000  Uiso   1.00
O47    O     0.16667   0.18453   0.21026   0.00000  Uiso   1.00
O48    O     0.16666   0.31547   0.28974   0.00000  Uiso   1.00
O49    O     0.09058   0.25000   0.28044   0.00000  Uiso   1.00
O50    O     0.24275   0.25000   0.21955   0.00000  Uiso   1.00
O51    O     0.09058   0.24999   0.20096   0.00000  Uiso   1.00
O52    O     0.24275   0.25000   0.29903   0.00000  Uiso   1.00
Zn53   Zn    0.16667   0.25000   0.30307   0.00000  Uiso   1.00
Zn54   Zn    0.16667   0.24999   0.19693   0.00000  Uiso   1.00
N55    N     0.32223   0.28017   0.19088   0.00000  Uiso   1.00
H56    H     0.32770   0.26192   0.16029   0.00000  Uiso   1.00
H57    H     0.00768   0.31091   0.18993   0.00000  Uiso   1.00
N58    N     0.01097   0.21982   0.30899   0.00000  Uiso   1.00
H59    H     0.00537   0.23794   0.33962   0.00000  Uiso   1.00
H60    H     0.32559   0.18903   0.30978   0.00000  Uiso   1.00
N61    N     0.21017   0.11282   0.17686   0.00000  Uiso   1.00
H62    H     0.24549   0.12543   0.19423   0.00000  Uiso   1.00
H63    H     0.21931   0.08985   0.15125   0.00000  Uiso   1.00
N64    N     0.21540   0.39011   0.33331   0.00000  Uiso   1.00
H65    H     0.24378   0.36868   0.32326   0.00000  Uiso   1.00
H66    H     0.18960   0.37219   0.35096   0.00000  Uiso   1.00
C67    C     0.50036   0.16381   0.24969   0.00000  Uiso   1.00
C68    C     0.50050   0.33620   0.25045   0.00000  Uiso   1.00
C69    C     0.48316   0.21251   0.04989   0.00000  Uiso   1.00
C70    C     0.53713   0.27463   0.45252   0.00000  Uiso   1.00
C71    C     0.48316   0.21334   0.09953   0.00000  Uiso   1.00
C72    C     0.53620   0.27434   0.40275   0.00000  Uiso   1.00
C73    C     0.51713   0.28653   0.10494   0.00000  Uiso   1.00
C74    C     0.46410   0.22544   0.39271   0.00000  Uiso   1.00
C75    C     0.51733   0.28727   0.05535   0.00000  Uiso   1.00
C76    C     0.46330   0.22513   0.44222   0.00000  Uiso   1.00
C77    C     0.50025   0.24988   0.02668   0.00000  Uiso   1.00
C78    C     0.50022   0.24990   0.47331   0.00000  Uiso   1.00
C79    C     0.40057   0.25014   0.23781   0.00000  Uiso   1.00
C80    C     0.59942   0.24992   0.26218   0.00000  Uiso   1.00
C81    C     0.34632   0.25631   0.23216   0.00000  Uiso   1.00
C82    C     0.65362   0.24376   0.26778   0.00000  Uiso   1.00
C83    C     0.47176   0.04835   0.28332   0.00000  Uiso   1.00
C84    C     0.46971   0.45123   0.20931   0.00000  Uiso   1.00
C85    C     0.47548   0.09419   0.28385   0.00000  Uiso   1.00
C86    C     0.47328   0.40536   0.21024   0.00000  Uiso   1.00
C87    C     0.49847   0.11574   0.24854   0.00000  Uiso   1.00
C88    C     0.49848   0.38425   0.25103   0.00000  Uiso   1.00
C89    C     0.51792   0.09112   0.21212   0.00000  Uiso   1.00
C90    C     0.52050   0.40960   0.29141   0.00000  Uiso   1.00
C91    C     0.51334   0.04496   0.21172   0.00000  Uiso   1.00
C92    C     0.51647   0.45553   0.28999   0.00000  Uiso   1.00
C93    C     0.49078   0.02394   0.24737   0.00000  Uiso   1.00
C94    C     0.49123   0.47609   0.24918   0.00000  Uiso   1.00
H95    H     0.45441   0.03182   0.31100   0.00000  Uiso   1.00
H96    H     0.45038   0.46739   0.17761   0.00000  Uiso   1.00
H97    H     0.46004   0.11283   0.31170   0.00000  Uiso   1.00
H98    H     0.45597   0.38635   0.17919   0.00000  Uiso   1.00
H99    H     0.52897   0.02523   0.18476   0.00000  Uiso   1.00
H100   H     0.53413   0.47533   0.32033   0.00000  Uiso   1.00
H101   H     0.47050   0.18245   0.03010   0.00000  Uiso   1.00
H102   H     0.56713   0.29363   0.47443   0.00000  Uiso   1.00
H103   H     0.46979   0.18443   0.11672   0.00000  Uiso   1.00
H104   H     0.56474   0.29344   0.38728   0.00000  Uiso   1.00
H105   H     0.53062   0.31544   0.12637   0.00000  Uiso   1.00
H106   H     0.43590   0.20595   0.36936   0.00000  Uiso   1.00
H107   H     0.53013   0.31727   0.03969   0.00000  Uiso   1.00
H108   H     0.43344   0.20600   0.45579   0.00000  Uiso   1.00
N109   N     0.50000   0.24999   0.12623   0.00000  Uiso   1.00
N110   N     0.50000   0.25001   0.37376   0.00000  Uiso   1.00
O111   O     0.50000   0.18453   0.28974   0.00000  Uiso   1.00
O112   O     0.50000   0.31546   0.21026   0.00000  Uiso   1.00
O113   O     0.50000   0.18453   0.21026   0.00000  Uiso   1.00
O114   O     0.50000   0.31547   0.28974   0.00000  Uiso   1.00
O115   O     0.42392   0.25000   0.28044   0.00000  Uiso   1.00
O116   O     0.57608   0.25000   0.21955   0.00000  Uiso   1.00
O117   O     0.42392   0.24999   0.20096   0.00000  Uiso   1.00
O118   O     0.57608   0.25000   0.29903   0.00000  Uiso   1.00
Zn119  Zn    0.50000   0.25000   0.30307   0.00000  Uiso   1.00
Zn120  Zn    0.50000   0.24999   0.19693   0.00000  Uiso   1.00
N121   N     0.65557   0.28017   0.19088   0.00000  Uiso   1.00
H122   H     0.66103   0.26192   0.16029   0.00000  Uiso   1.00
H123   H     0.34101   0.31091   0.18993   0.00000  Uiso   1.00
N124   N     0.34430   0.21982   0.30899   0.00000  Uiso   1.00
H125   H     0.33870   0.23794   0.33962   0.00000  Uiso   1.00
H126   H     0.65893   0.18903   0.30978   0.00000  Uiso   1.00
N127   N     0.54351   0.11282   0.17686   0.00000  Uiso   1.00
H128   H     0.57883   0.12543   0.19423   0.00000  Uiso   1.00
H129   H     0.55264   0.08985   0.15125   0.00000  Uiso   1.00
N130   N     0.54874   0.39011   0.33331   0.00000  Uiso   1.00
H131   H     0.57711   0.36868   0.32326   0.00000  Uiso   1.00
H132   H     0.52294   0.37219   0.35096   0.00000  Uiso   1.00
C133   C     0.83369   0.16381   0.24969   0.00000  Uiso   1.00
C134   C     0.83383   0.33620   0.25045   0.00000  Uiso   1.00
C135   C     0.81649   0.21251   0.04989   0.00000  Uiso   1.00
C136   C     0.87046   0.27463   0.45252   0.00000  Uiso   1.00
C137   C     0.81649   0.21334   0.09953   0.00000  Uiso   1.00
C138   C     0.86953   0.27434   0.40275   0.00000  Uiso   1.00
C139   C     0.85046   0.28653   0.10494   0.00000  Uiso   1.00
C140   C     0.79744   0.22544   0.39271   0.00000  Uiso   1.00
C141   C     0.85066   0.28727   0.05535   0.00000  Uiso   1.00
C142   C     0.79663   0.22513   0.44222   0.00000  Uiso   1.00
C143   C     0.83358   0.24988   0.02668   0.00000  Uiso   1.00
C144   C     0.83355   0.24990   0.47331   0.00000  Uiso   1.00
C145   C     0.73390   0.25014   0.23781   0.00000  Uiso   1.00
C146   C     0.93275   0.24992   0.26218   0.00000  Uiso   1.00
C147   C     0.67965   0.25631   0.23216   0.00000  Uiso   1.00
C148   C     0.98696   0.24376   0.26778   0.00000  Uiso   1.00
C149   C     0.80509   0.04835   0.28332   0.00000  Uiso   1.00
C150   C     0.80304   0.45123   0.20931   0.00000  Uiso   1.00
C151   C     0.80881   0.09419   0.28385   0.00000  Uiso   1.00
C152   C     0.80661   0.40536   0.21024   0.00000  Uiso   1.00
C153   C     0.83180   0.11574   0.24854   0.00000  Uiso   1.00
C154   C     0.83181   0.38425   0.25103   0.00000  Uiso   1.00
C155   C     0.85125   0.09112   0.21212   0.00000  Uiso   1.00
C156   C     0.85383   0.40960   0.29141   0.00000  Uiso   1.00
C157   C     0.84667   0.04496   0.21172   0.00000  Uiso   1.00
C158   C     0.84980   0.45553   0.28999   0.00000  Uiso   1.00
C159   C     0.82412   0.02394   0.24737   0.00000  Uiso   1.00
C160   C     0.82457   0.47609   0.24918   0.00000  Uiso   1.00
H161   H     0.78774   0.03182   0.31100   0.00000  Uiso   1.00
H162   H     0.78371   0.46739   0.17761   0.00000  Uiso   1.00
H163   H     0.79338   0.11283   0.31170   0.00000  Uiso   1.00
H164   H     0.78930   0.38635   0.17919   0.00000  Uiso   1.00
H165   H     0.86230   0.02523   0.18476   0.00000  Uiso   1.00
H166   H     0.86746   0.47533   0.32033   0.00000  Uiso   1.00
H167   H     0.80383   0.18245   0.03010   0.00000  Uiso   1.00
H168   H     0.90046   0.29363   0.47443   0.00000  Uiso   1.00
H169   H     0.80312   0.18443   0.11672   0.00000  Uiso   1.00
H170   H     0.89807   0.29344   0.38728   0.00000  Uiso   1.00
H171   H     0.86395   0.31544   0.12637   0.00000  Uiso   1.00
H172   H     0.76924   0.20595   0.36936   0.00000  Uiso   1.00
H173   H     0.86346   0.31727   0.03969   0.00000  Uiso   1.00
H174   H     0.76678   0.20600   0.45579   0.00000  Uiso   1.00
N175   N     0.83333   0.24999   0.12623   0.00000  Uiso   1.00
N176   N     0.83333   0.25001   0.37376   0.00000  Uiso   1.00
O177   O     0.83334   0.18453   0.28974   0.00000  Uiso   1.00
O178   O     0.83333   0.31546   0.21026   0.00000  Uiso   1.00
O179   O     0.83334   0.18453   0.21026   0.00000  Uiso   1.00
O180   O     0.83333   0.31547   0.28974   0.00000  Uiso   1.00
O181   O     0.75725   0.25000   0.28044   0.00000  Uiso   1.00
O182   O     0.90942   0.25000   0.21955   0.00000  Uiso   1.00
O183   O     0.75725   0.24999   0.20096   0.00000  Uiso   1.00
O184   O     0.90942   0.25000   0.29903   0.00000  Uiso   1.00
Zn185  Zn    0.83333   0.25000   0.30307   0.00000  Uiso   1.00
Zn186  Zn    0.83333   0.24999   0.19693   0.00000  Uiso   1.00
N187   N     0.98890   0.28017   0.19088   0.00000  Uiso   1.00
H188   H     0.99436   0.26192   0.16029   0.00000  Uiso   1.00
H189   H     0.67435   0.31091   0.18993   0.00000  Uiso   1.00
N190   N     0.67763   0.21982   0.30899   0.00000  Uiso   1.00
H191   H     0.67203   0.23794   0.33962   0.00000  Uiso   1.00
H192   H     0.99226   0.18903   0.30978   0.00000  Uiso   1.00
N193   N     0.87684   0.11282   0.17686   0.00000  Uiso   1.00
H194   H     0.91216   0.12543   0.19423   0.00000  Uiso   1.00
H195   H     0.88597   0.08985   0.15125   0.00000  Uiso   1.00
N196   N     0.88207   0.39011   0.33331   0.00000  Uiso   1.00
H197   H     0.91045   0.36868   0.32326   0.00000  Uiso   1.00
H198   H     0.85627   0.37219   0.35096   0.00000  Uiso   1.00
C199   C     0.16702   0.66381   0.24969   0.00000  Uiso   1.00
C200   C     0.16717   0.83620   0.25045   0.00000  Uiso   1.00
C201   C     0.14983   0.71251   0.04989   0.00000  Uiso   1.00
C202   C     0.20379   0.77463   0.45252   0.00000  Uiso   1.00
C203   C     0.14982   0.71334   0.09953   0.00000  Uiso   1.00
C204   C     0.20287   0.77434   0.40275   0.00000  Uiso   1.00
C205   C     0.18379   0.78653   0.10494   0.00000  Uiso   1.00
C206   C     0.13077   0.72544   0.39271   0.00000  Uiso   1.00
C207   C     0.18399   0.78727   0.05535   0.00000  Uiso   1.00
C208   C     0.12997   0.72513   0.44222   0.00000  Uiso   1.00
C209   C     0.16692   0.74988   0.02668   0.00000  Uiso   1.00
C210   C     0.16689   0.74990   0.47331   0.00000  Uiso   1.00
C211   C     0.06723   0.75014   0.23781   0.00000  Uiso   1.00
C212   C     0.26608   0.74992   0.26218   0.00000  Uiso   1.00
C213   C     0.01299   0.75631   0.23216   0.00000  Uiso   1.00
C214   C     0.32029   0.74376   0.26778   0.00000  Uiso   1.00
C215   C     0.13843   0.54835   0.28332   0.00000  Uiso   1.00
C216   C     0.13637   0.95123   0.20931   0.00000  Uiso   1.00
C217   C     0.14214   0.59419   0.28385   0.00000  Uiso   1.00
C218   C     0.13994   0.90536   0.21024   0.00000  Uiso   1.00
C219   C     0.16513   0.61574   0.24854   0.00000  Uiso   1.00
C220   C     0.16515   0.88425   0.25103   0.00000  Uiso   1.00
C221   C     0.18459   0.59112   0.21212   0.00000  Uiso   1.00
C222   C     0.18716   0.90960   0.29141   0.00000  Uiso   1.00
C223   C     0.18000   0.54496   0.21172   0.00000  Uiso   1.00
C224   C     0.18313   0.95553   0.28999   0.00000  Uiso   1.00
C225   C     0.15745   0.52394   0.24737   0.00000  Uiso   1.00
C226   C     0.15790   0.97609   0.24918   0.00000  Uiso   1.00
H227   H     0.12108   0.53182   0.31100   0.00000  Uiso   1.00
H228   H     0.11705   0.96739   0.17761   0.00000  Uiso   1.00
H229   H     0.12671   0.61283   0.31170   0.00000  Uiso   1.00
H230   H     0.12264   0.88635   0.17919   0.00000  Uiso   1.00
H231   H     0.19564   0.52523   0.18476   0.00000  Uiso   1.00
H232   H     0.20079   0.97533   0.32033   0.00000  Uiso   1.00
H233   H     0.13716   0.68245   0.03010   0.00000  Uiso   1.00
H234   H     0.23380   0.79363   0.47443   0.00000  Uiso   1.00
H235   H     0.13645   0.68443   0.11672   0.00000  Uiso   1.00
H236   H     0.23141   0.79344   0.38728   0.00000  Uiso   1.00
H237   H     0.19728   0.81544   0.12637   0.00000  Uiso   1.00
H238   H     0.10257   0.70595   0.36936   0.00000  Uiso   1.00
H239   H     0.19680   0.81727   0.03969   0.00000  Uiso   1.00
H240   H     0.10011   0.70600   0.45579   0.00000  Uiso   1.00
N241   N     0.16667   0.74999   0.12623   0.00000  Uiso   1.00
N242   N     0.16667   0.75001   0.37376   0.00000  Uiso   1.00
O243   O     0.16667   0.68453   0.28974   0.00000  Uiso   1.00
O244   O     0.16666   0.81546   0.21026   0.00000  Uiso   1.00
O245   O     0.16667   0.68453   0.21026   0.00000  Uiso   1.00
O246   O     0.16666   0.81547   0.28974   0.00000  Uiso   1.00
O247   O     0.09058   0.75000   0.28044   0.00000  Uiso   1.00
O248   O     0.24275   0.75000   0.21955   0.00000  Uiso   1.00
O249   O     0.09058   0.74999   0.20096   0.00000  Uiso   1.00
O250   O     0.24275   0.75000   0.29903   0.00000  Uiso   1.00
Zn251  Zn    0.16667   0.75000   0.30307   0.00000  Uiso   1.00
Zn252  Zn    0.16667   0.74999   0.19693   0.00000  Uiso   1.00
N253   N     0.32223   0.78017   0.19088   0.00000  Uiso   1.00
H254   H     0.32770   0.76192   0.16029   0.00000  Uiso   1.00
H255   H     0.00768   0.81091   0.18993   0.00000  Uiso   1.00
N256   N     0.01097   0.71982   0.30899   0.00000  Uiso   1.00
H257   H     0.00537   0.73794   0.33962   0.00000  Uiso   1.00
H258   H     0.32559   0.68903   0.30978   0.00000  Uiso   1.00
N259   N     0.21017   0.61282   0.17686   0.00000  Uiso   1.00
H260   H     0.24549   0.62543   0.19423   0.00000  Uiso   1.00
H261   H     0.21931   0.58985   0.15125   0.00000  Uiso   1.00
N262   N     0.21540   0.89011   0.33331   0.00000  Uiso   1.00
H263   H     0.24378   0.86868   0.32326   0.00000  Uiso   1.00
H264   H     0.18960   0.87219   0.35096   0.00000  Uiso   1.00
C265   C     0.50036   0.66381   0.24969   0.00000  Uiso   1.00
C266   C     0.50050   0.83620   0.25045   0.00000  Uiso   1.00
C267   C     0.48316   0.71251   0.04989   0.00000  Uiso   1.00
C268   C     0.53713   0.77463   0.45252   0.00000  Uiso   1.00
C269   C     0.48316   0.71334   0.09953   0.00000  Uiso   1.00
C270   C     0.53620   0.77434   0.40275   0.00000  Uiso   1.00
C271   C     0.51713   0.78653   0.10494   0.00000  Uiso   1.00
C272   C     0.46410   0.72544   0.39271   0.00000  Uiso   1.00
C273   C     0.51733   0.78727   0.05535   0.00000  Uiso   1.00
C274   C     0.46330   0.72513   0.44222   0.00000  Uiso   1.00
C275   C     0.50025   0.74988   0.02668   0.00000  Uiso   1.00
C276   C     0.50022   0.74990   0.47331   0.00000  Uiso   1.00
C277   C     0.40057   0.75014   0.23781   0.00000  Uiso   1.00
C278   C     0.59942   0.74992   0.26218   0.00000  Uiso   1.00
C279   C     0.34632   0.75631   0.23216   0.00000  Uiso   1.00
C280   C     0.65362   0.74376   0.26778   0.00000  Uiso   1.00
C281   C     0.47176   0.54835   0.28332   0.00000  Uiso   1.00
C282   C     0.46971   0.95123   0.20931   0.00000  Uiso   1.00
C283   C     0.47548   0.59419   0.28385   0.00000  Uiso   1.00
C284   C     0.47328   0.90536   0.21024   0.00000  Uiso   1.00
C285   C     0.49847   0.61574   0.24854   0.00000  Uiso   1.00
C286   C     0.49848   0.88425   0.25103   0.00000  Uiso   1.00
C287   C     0.51792   0.59112   0.21212   0.00000  Uiso   1.00
C288   C     0.52050   0.90960   0.29141   0.00000  Uiso   1.00
C289   C     0.51334   0.54496   0.21172   0.00000  Uiso   1.00
C290   C     0.51647   0.95553   0.28999   0.00000  Uiso   1.00
C291   C     0.49078   0.52394   0.24737   0.00000  Uiso   1.00
C292   C     0.49123   0.97609   0.24918   0.00000  Uiso   1.00
H293   H     0.45441   0.53182   0.31100   0.00000  Uiso   1.00
H294   H     0.45038   0.96739   0.17761   0.00000  Uiso   1.00
H295   H     0.46004   0.61283   0.31170   0.00000  Uiso   1.00
H296   H     0.45597   0.88635   0.17919   0.00000  Uiso   1.00
H297   H     0.52897   0.52523   0.18476   0.00000  Uiso   1.00
H298   H     0.53413   0.97533   0.32033   0.00000  Uiso   1.00
H299   H     0.47050   0.68245   0.03010   0.00000  Uiso   1.00
H300   H     0.56713   0.79363   0.47443   0.00000  Uiso   1.00
H301   H     0.46979   0.68443   0.11672   0.00000  Uiso   1.00
H302   H     0.56474   0.79344   0.38728   0.00000  Uiso   1.00
H303   H     0.53062   0.81544   0.12637   0.00000  Uiso   1.00
H304   H     0.43590   0.70595   0.36936   0.00000  Uiso   1.00
H305   H     0.53013   0.81727   0.03969   0.00000  Uiso   1.00
H306   H     0.43344   0.70600   0.45579   0.00000  Uiso   1.00
N307   N     0.50000   0.74999   0.12623   0.00000  Uiso   1.00
N308   N     0.50000   0.75001   0.37376   0.00000  Uiso   1.00
O309   O     0.50000   0.68453   0.28974   0.00000  Uiso   1.00
O310   O     0.50000   0.81546   0.21026   0.00000  Uiso   1.00
O311   O     0.50000   0.68453   0.21026   0.00000  Uiso   1.00
O312   O     0.50000   0.81547   0.28974   0.00000  Uiso   1.00
O313   O     0.42392   0.75000   0.28044   0.00000  Uiso   1.00
O314   O     0.57608   0.75000   0.21955   0.00000  Uiso   1.00
O315   O     0.42392   0.74999   0.20096   0.00000  Uiso   1.00
O316   O     0.57608   0.75000   0.29903   0.00000  Uiso   1.00
Zn317  Zn    0.50000   0.75000   0.30307   0.00000  Uiso   1.00
Zn318  Zn    0.50000   0.74999   0.19693   0.00000  Uiso   1.00
N319   N     0.65557   0.78017   0.19088   0.00000  Uiso   1.00
H320   H     0.66103   0.76192   0.16029   0.00000  Uiso   1.00
H321   H     0.34101   0.81091   0.18993   0.00000  Uiso   1.00
N322   N     0.34430   0.71982   0.30899   0.00000  Uiso   1.00
H323   H     0.33870   0.73794   0.33962   0.00000  Uiso   1.00
H324   H     0.65893   0.68903   0.30978   0.00000  Uiso   1.00
N325   N     0.54351   0.61282   0.17686   0.00000  Uiso   1.00
H326   H     0.57883   0.62543   0.19423   0.00000  Uiso   1.00
H327   H     0.55264   0.58985   0.15125   0.00000  Uiso   1.00
N328   N     0.54874   0.89011   0.33331   0.00000  Uiso   1.00
H329   H     0.57711   0.86868   0.32326   0.00000  Uiso   1.00
H330   H     0.52294   0.87219   0.35096   0.00000  Uiso   1.00
C331   C     0.83369   0.66381   0.24969   0.00000  Uiso   1.00
C332   C     0.83383   0.83620   0.25045   0.00000  Uiso   1.00
C333   C     0.81649   0.71251   0.04989   0.00000  Uiso   1.00
C334   C     0.87046   0.77463   0.45252   0.00000  Uiso   1.00
C335   C     0.81649   0.71334   0.09953   0.00000  Uiso   1.00
C336   C     0.86953   0.77434   0.40275   0.00000  Uiso   1.00
C337   C     0.85046   0.78653   0.10494   0.00000  Uiso   1.00
C338   C     0.79744   0.72544   0.39271   0.00000  Uiso   1.00
C339   C     0.85066   0.78727   0.05535   0.00000  Uiso   1.00
C340   C     0.79663   0.72513   0.44222   0.00000  Uiso   1.00
C341   C     0.83358   0.74988   0.02668   0.00000  Uiso   1.00
C342   C     0.83355   0.74990   0.47331   0.00000  Uiso   1.00
C343   C     0.73390   0.75014   0.23781   0.00000  Uiso   1.00
C344   C     0.93275   0.74992   0.26218   0.00000  Uiso   1.00
C345   C     0.67965   0.75631   0.23216   0.00000  Uiso   1.00
C346   C     0.98696   0.74376   0.26778   0.00000  Uiso   1.00
C347   C     0.80509   0.54835   0.28332   0.00000  Uiso   1.00
C348   C     0.80304   0.95123   0.20931   0.00000  Uiso   1.00
C349   C     0.80881   0.59419   0.28385   0.00000  Uiso   1.00
C350   C     0.80661   0.90536   0.21024   0.00000  Uiso   1.00
C351   C     0.83180   0.61574   0.24854   0.00000  Uiso   1.00
C352   C     0.83181   0.88425   0.25103   0.00000  Uiso   1.00
C353   C     0.85125   0.59112   0.21212   0.00000  Uiso   1.00
C354   C     0.85383   0.90960   0.29141   0.00000  Uiso   1.00
C355   C     0.84667   0.54496   0.21172   0.00000  Uiso   1.00
C356   C     0.84980   0.95553   0.28999   0.00000  Uiso   1.00
C357   C     0.82412   0.52394   0.24737   0.00000  Uiso   1.00
C358   C     0.82457   0.97609   0.24918   0.00000  Uiso   1.00
H359   H     0.78774   0.53182   0.31100   0.00000  Uiso   1.00
H360   H     0.78371   0.96739   0.17761   0.00000  Uiso   1.00
H361   H     0.79338   0.61283   0.31170   0.00000  Uiso   1.00
H362   H     0.78930   0.88635   0.17919   0.00000  Uiso   1.00
H363   H     0.86230   0.52523   0.18476   0.00000  Uiso   1.00
H364   H     0.86746   0.97533   0.32033   0.00000  Uiso   1.00
H365   H     0.80383   0.68245   0.03010   0.00000  Uiso   1.00
H366   H     0.90046   0.79363   0.47443   0.00000  Uiso   1.00
H367   H     0.80312   0.68443   0.11672   0.00000  Uiso   1.00
H368   H     0.89807   0.79344   0.38728   0.00000  Uiso   1.00
H369   H     0.86395   0.81544   0.12637   0.00000  Uiso   1.00
H370   H     0.76924   0.70595   0.36936   0.00000  Uiso   1.00
H371   H     0.86346   0.81727   0.03969   0.00000  Uiso   1.00
H372   H     0.76678   0.70600   0.45579   0.00000  Uiso   1.00
N373   N     0.83333   0.74999   0.12623   0.00000  Uiso   1.00
N374   N     0.83333   0.75001   0.37376   0.00000  Uiso   1.00
O375   O     0.83334   0.68453   0.28974   0.00000  Uiso   1.00
O376   O     0.83333   0.81546   0.21026   0.00000  Uiso   1.00
O377   O     0.83334   0.68453   0.21026   0.00000  Uiso   1.00
O378   O     0.83333   0.81547   0.28974   0.00000  Uiso   1.00
O379   O     0.75725   0.75000   0.28044   0.00000  Uiso   1.00
O380   O     0.90942   0.75000   0.21955   0.00000  Uiso   1.00
O381   O     0.75725   0.74999   0.20096   0.00000  Uiso   1.00
O382   O     0.90942   0.75000   0.29903   0.00000  Uiso   1.00
Zn383  Zn    0.83333   0.75000   0.30307   0.00000  Uiso   1.00
Zn384  Zn    0.83333   0.74999   0.19693   0.00000  Uiso   1.00
N385   N     0.98890   0.78017   0.19088   0.00000  Uiso   1.00
H386   H     0.99436   0.76192   0.16029   0.00000  Uiso   1.00
H387   H     0.67435   0.81091   0.18993   0.00000  Uiso   1.00
N388   N     0.67763   0.71982   0.30899   0.00000  Uiso   1.00
H389   H     0.67203   0.73794   0.33962   0.00000  Uiso   1.00
H390   H     0.99226   0.68903   0.30978   0.00000  Uiso   1.00
N391   N     0.87684   0.61282   0.17686   0.00000  Uiso   1.00
H392   H     0.91216   0.62543   0.19423   0.00000  Uiso   1.00
H393   H     0.88597   0.58985   0.15125   0.00000  Uiso   1.00
N394   N     0.88207   0.89011   0.33331   0.00000  Uiso   1.00
H395   H     0.91045   0.86868   0.32326   0.00000  Uiso   1.00
H396   H     0.85627   0.87219   0.35096   0.00000  Uiso   1.00
C397   C     0.16702   0.16381   0.74969   0.00000  Uiso   1.00
C398   C     0.16717   0.33620   0.75045   0.00000  Uiso   1.00
C399   C     0.14983   0.21251   0.54989   0.00000  Uiso   1.00
C400   C     0.20379   0.27463   0.95252   0.00000  Uiso   1.00
C401   C     0.14982   0.21334   0.59953   0.00000  Uiso   1.00
C402   C     0.20287   0.27434   0.90275   0.00000  Uiso   1.00
C403   C     0.18379   0.28653   0.60494   0.00000  Uiso   1.00
C404   C     0.13077   0.22544   0.89271   0.00000  Uiso   1.00
C405   C     0.18399   0.28727   0.55535   0.00000  Uiso   1.00
C406   C     0.12997   0.22513   0.94222   0.00000  Uiso   1.00
C407   C     0.16692   0.24988   0.52668   0.00000  Uiso   1.00
C408   C     0.16689   0.24990   0.97331   0.00000  Uiso   1.00
C409   C     0.06723   0.25014   0.73781   0.00000  Uiso   1.00
C410   C     0.26608   0.24992   0.76218   0.00000  Uiso   1.00
C411   C     0.01299   0.25631   0.73216   0.00000  Uiso   1.00
C412   C     0.32029   0.24376   0.76778   0.00000  Uiso   1.00
C413   C     0.13843   0.04835   0.78332   0.00000  Uiso   1.00
C414   C     0.13637   0.45123   0.70931   0.00000  Uiso   1.00
C415   C     0.14214   0.09419   0.78385   0.00000  Uiso   1.00
C416   C     0.13994   0.40536   0.71024   0.00000  Uiso   1.00
C417   C     0.16513   0.11574   0.74854   0.00000  Uiso   1.00
C418   C     0.16515   0.38425   0.75103   0.00000  Uiso   1.00
C419   C     0.18459   0.09112   0.71212   0.00000  Uiso   1.00
C420   C     0.18716   0.40960   0.79141   0.00000  Uiso   1.00
C421   C     0.18000   0.04496   0.71172   0.00000  Uiso   1.00
C422   C     0.18313   0.45553   0.78999   0.00000  Uiso   1.00
C423   C     0.15745   0.02394   0.74737   0.00000  Uiso   1.00
C424   C     0.15790   0.47609   0.74918   0.00000  Uiso   1.00
H425   H     0.12108   0.03182   0.81100   0.00000  Uiso   1.00
H426   H     0.11705   0.46739   0.67761   0.00000  Uiso   1.00
H427   H     0.12671   0.11283   0.81170   0.00000  Uiso   1.00
H428   H     0.12264   0.38635   0.67919   0.00000  Uiso   1.00
H429   H     0.19564   0.02523   0.68476   0.00000  Uiso   1.00
H430   H     0.20079   0.47533   0.82033   0.00000  Uiso   1.00
H431   H     0.13716   0.18245   0.53010   0.00000  Uiso   1.00
H432   H     0.23380   0.29363   0.97443   0.00000  Uiso   1.00
H433   H     0.13645   0.18443   0.61672   0.00000  Uiso   1.00
H434   H     0.23141   0.29344   0.88728   0.00000  Uiso   1.00
H435   H     0.19728   0.31544   0.62637   0.00000  Uiso   1.00
H436   H     0.10257   0.20595   0.86936   0.00000  Uiso   1.00
H437   H     0.19680   0.31727   0.53969   0.00000  Uiso   1.00
H438   H     0.10011   0.20600   0.95579   0.00000  Uiso   1.00
N439   N     0.16667   0.24999   0.62623   0.00000  Uiso   1.00
N440   N     0.16667   0.25001   0.87376   0.00000  Uiso   1.00
O441   O     0.16667   0.18453   0.78974   0.00000  Uiso   1.00
O442   O     0.16666   0.31546   0.71026   0.00000  Uiso   1.00
O443   O     0.16667   0.18453   0.71026   0.00000  Uiso   1.00
O444   O     0.16666   0.31547   0.78974   0.00000  Uiso   1.00
O445   O     0.09058   0.25000   0.78044   0.00000  Uiso   1.00
O446   O     0.24275   0.25000   0.71955   0.00000  Uiso   1.00
O447   O     0.09058   0.24999   0.70096   0.00000  Uiso   1.00
O448   O     0.24275   0.25000   0.79903   0.00000  Uiso   1.00
Zn449  Zn    0.16667   0.25000   0.80307   0.00000  Uiso   1.00
Zn450  Zn    0.16667   0.24999   0.69693   0.00000  Uiso   1.00
N451   N     0.32223   0.28017   0.69088   0.00000  Uiso   1.00
H452   H     0.32770   0.26192   0.66029   0.00000  Uiso   1.00
H453   H     0.00768   0.31091   0.68993   0.00000  Uiso   1.00
N454   N     0.01097   0.21982   0.80899   0.00000  Uiso   1.00
H455   H     0.00537   0.23794   0.83962   0.00000  Uiso   1.00
H456   H     0.32559   0.18903   0.80978   0.00000  Uiso   1.00
N457   N     0.21017   0.11282   0.67686   0.00000  Uiso   1.00
H458   H     0.24549   0.12543   0.69423   0.00000  Uiso   1.00
H459   H     0.21931   0.08985   0.65125   0.00000  Uiso   1.00
N460   N     0.21540   0.39011   0.83331   0.00000  Uiso   1.00
H461   H     0.24378   0.36868   0.82326   0.00000  Uiso   1.00
H462   H     0.18960   0.37219   0.85096   0.00000  Uiso   1.00
C463   C     0.50036   0.16381   0.74969   0.00000  Uiso   1.00
C464   C     0.50050   0.33620   0.75045   0.00000  Uiso   1.00
C465   C     0.48316   0.21251   0.54989   0.00000  Uiso   1.00
C466   C     0.53713   0.27463   0.95252   0.00000  Uiso   1.00
C467   C     0.48316   0.21334   0.59953   0.00000  Uiso   1.00
C468   C     0.53620   0.27434   0.90275   0.00000  Uiso   1.00
C469   C     0.51713   0.28653   0.60494   0.00000  Uiso   1.00
C470   C     0.46410   0.22544   0.89271   0.00000  Uiso   1.00
C471   C     0.51733   0.28727   0.55535   0.00000  Uiso   1.00
C472   C     0.46330   0.22513   0.94222   0.00000  Uiso   1.00
C473   C     0.50025   0.24988   0.52668   0.00000  Uiso   1.00
C474   C     0.50022   0.24990   0.97331   0.00000  Uiso   1.00
C475   C     0.40057   0.25014   0.73781   0.00000  Uiso   1.00
C476   C     0.59942   0.24992   0.76218   0.00000  Uiso   1.00
C477   C     0.34632   0.25631   0.73216   0.00000  Uiso   1.00
C478   C     0.65362   0.24376   0.76778   0.00000  Uiso   1.00
C479   C     0.47176   0.04835   0.78332   0.00000  Uiso   1.00
C480   C     0.46971   0.45123   0.70931   0.00000  Uiso   1.00
C481   C     0.47548   0.09419   0.78385   0.00000  Uiso   1.00
C482   C     0.47328   0.40536   0.71024   0.00000  Uiso   1.00
C483   C     0.49847   0.11574   0.74854   0.00000  Uiso   1.00
C484   C     0.49848   0.38425   0.75103   0.00000  Uiso   1.00
C485   C     0.51792   0.09112   0.71212   0.00000  Uiso   1.00
C486   C     0.52050   0.40960   0.79141   0.00000  Uiso   1.00
C487   C     0.51334   0.04496   0.71172   0.00000  Uiso   1.00
C488   C     0.51647   0.45553   0.78999   0.00000  Uiso   1.00
C489   C     0.49078   0.02394   0.74737   0.00000  Uiso   1.00
C490   C     0.49123   0.47609   0.74918   0.00000  Uiso   1.00
H491   H     0.45441   0.03182   0.81100   0.00000  Uiso   1.00
H492   H     0.45038   0.46739   0.67761   0.00000  Uiso   1.00
H493   H     0.46004   0.11283   0.81170   0.00000  Uiso   1.00
H494   H     0.45597   0.38635   0.67919   0.00000  Uiso   1.00
H495   H     0.52897   0.02523   0.68476   0.00000  Uiso   1.00
H496   H     0.53413   0.47533   0.82033   0.00000  Uiso   1.00
H497   H     0.47050   0.18245   0.53010   0.00000  Uiso   1.00
H498   H     0.56713   0.29363   0.97443   0.00000  Uiso   1.00
H499   H     0.46979   0.18443   0.61672   0.00000  Uiso   1.00
H500   H     0.56474   0.29344   0.88728   0.00000  Uiso   1.00
H501   H     0.53062   0.31544   0.62637   0.00000  Uiso   1.00
H502   H     0.43590   0.20595   0.86936   0.00000  Uiso   1.00
H503   H     0.53013   0.31727   0.53969   0.00000  Uiso   1.00
H504   H     0.43344   0.20600   0.95579   0.00000  Uiso   1.00
N505   N     0.50000   0.24999   0.62623   0.00000  Uiso   1.00
N506   N     0.50000   0.25001   0.87376   0.00000  Uiso   1.00
O507   O     0.50000   0.18453   0.78974   0.00000  Uiso   1.00
O508   O     0.50000   0.31546   0.71026   0.00000  Uiso   1.00
O509   O     0.50000   0.18453   0.71026   0.00000  Uiso   1.00
O510   O     0.50000   0.31547   0.78974   0.00000  Uiso   1.00
O511   O     0.42392   0.25000   0.78044   0.00000  Uiso   1.00
O512   O     0.57608   0.25000   0.71955   0.00000  Uiso   1.00
O513   O     0.42392   0.24999   0.70096   0.00000  Uiso   1.00
O514   O     0.57608   0.25000   0.79903   0.00000  Uiso   1.00
Zn515  Zn    0.50000   0.25000   0.80307   0.00000  Uiso   1.00
Zn516  Zn    0.50000   0.24999   0.69693   0.00000  Uiso   1.00
N517   N     0.65557   0.28017   0.69088   0.00000  Uiso   1.00
H518   H     0.66103   0.26192   0.66029   0.00000  Uiso   1.00
H519   H     0.34101   0.31091   0.68993   0.00000  Uiso   1.00
N520   N     0.34430   0.21982   0.80899   0.00000  Uiso   1.00
H521   H     0.33870   0.23794   0.83962   0.00000  Uiso   1.00
H522   H     0.65893   0.18903   0.80978   0.00000  Uiso   1.00
N523   N     0.54351   0.11282   0.67686   0.00000  Uiso   1.00
H524   H     0.57883   0.12543   0.69423   0.00000  Uiso   1.00
H525   H     0.55264   0.08985   0.65125   0.00000  Uiso   1.00
N526   N     0.54874   0.39011   0.83331   0.00000  Uiso   1.00
H527   H     0.57711   0.36868   0.82326   0.00000  Uiso   1.00
H528   H     0.52294   0.37219   0.85096   0.00000  Uiso   1.00
C529   C     0.83369   0.16381   0.74969   0.00000  Uiso   1.00
C530   C     0.83383   0.33620   0.75045   0.00000  Uiso   1.00
C531   C     0.81649   0.21251   0.54989   0.00000  Uiso   1.00
C532   C     0.87046   0.27463   0.95252   0.00000  Uiso   1.00
C533   C     0.81649   0.21334   0.59953   0.00000  Uiso   1.00
C534   C     0.86953   0.27434   0.90275   0.00000  Uiso   1.00
C535   C     0.85046   0.28653   0.60494   0.00000  Uiso   1.00
C536   C     0.79744   0.22544   0.89271   0.00000  Uiso   1.00
C537   C     0.85066   0.28727   0.55535   0.00000  Uiso   1.00
C538   C     0.79663   0.22513   0.94222   0.00000  Uiso   1.00
C539   C     0.83358   0.24988   0.52668   0.00000  Uiso   1.00
C540   C     0.83355   0.24990   0.97331   0.00000  Uiso   1.00
C541   C     0.73390   0.25014   0.73781   0.00000  Uiso   1.00
C542   C     0.93275   0.24992   0.76218   0.00000  Uiso   1.00
C543   C     0.67965   0.25631   0.73216   0.00000  Uiso   1.00
C544   C     0.98696   0.24376   0.76778   0.00000  Uiso   1.00
C545   C     0.80509   0.04835   0.78332   0.00000  Uiso   1.00
C546   C     0.80304   0.45123   0.70931   0.00000  Uiso   1.00
C547   C     0.80881   0.09419   0.78385   0.00000  Uiso   1.00
C548   C     0.80661   0.40536   0.71024   0.00000  Uiso   1.00
C549   C     0.83180   0.11574   0.74854   0.00000  Uiso   1.00
C550   C     0.83181   0.38425   0.75103   0.00000  Uiso   1.00
C551   C     0.85125   0.09112   0.71212   0.00000  Uiso   1.00
C552   C     0.85383   0.40960   0.79141   0.00000  Uiso   1.00
C553   C     0.84667   0.04496   0.71172   0.00000  Uiso   1.00
C554   C     0.84980   0.45553   0.78999   0.00000  Uiso   1.00
C555   C     0.82412   0.02394   0.74737   0.00000  Uiso   1.00
C556   C     0.82457   0.47609   0.74918   0.00000  Uiso   1.00
H557   H     0.78774   0.03182   0.81100   0.00000  Uiso   1.00
H558   H     0.78371   0.46739   0.67761   0.00000  Uiso   1.00
H559   H     0.79338   0.11283   0.81170   0.00000  Uiso   1.00
H560   H     0.78930   0.38635   0.67919   0.00000  Uiso   1.00
H561   H     0.86230   0.02523   0.68476   0.00000  Uiso   1.00
H562   H     0.86746   0.47533   0.82033   0.00000  Uiso   1.00
H563   H     0.80383   0.18245   0.53010   0.00000  Uiso   1.00
H564   H     0.90046   0.29363   0.97443   0.00000  Uiso   1.00
H565   H     0.80312   0.18443   0.61672   0.00000  Uiso   1.00
H566   H     0.89807   0.29344   0.88728   0.00000  Uiso   1.00
H567   H     0.86395   0.31544   0.62637   0.00000  Uiso   1.00
H568   H     0.76924   0.20595   0.86936   0.00000  Uiso   1.00
H569   H     0.86346   0.31727   0.53969   0.00000  Uiso   1.00
H570   H     0.76678   0.20600   0.95579   0.00000  Uiso   1.00
N571   N     0.83333   0.24999   0.62623   0.00000  Uiso   1.00
N572   N     0.83333   0.25001   0.87376   0.00000  Uiso   1.00
O573   O     0.83334   0.18453   0.78974   0.00000  Uiso   1.00
O574   O     0.83333   0.31546   0.71026   0.00000  Uiso   1.00
O575   O     0.83334   0.18453   0.71026   0.00000  Uiso   1.00
O576   O     0.83333   0.31547   0.78974   0.00000  Uiso   1.00
O577   O     0.75725   0.25000   0.78044   0.00000  Uiso   1.00
O578   O     0.90942   0.25000   0.71955   0.00000  Uiso   1.00
O579   O     0.75725   0.24999   0.70096   0.00000  Uiso   1.00
O580   O     0.90942   0.25000   0.79903   0.00000  Uiso   1.00
Zn581  Zn    0.83333   0.25000   0.80307   0.00000  Uiso   1.00
Zn582  Zn    0.83333   0.24999   0.69693   0.00000  Uiso   1.00
N583   N     0.98890   0.28017   0.69088   0.00000  Uiso   1.00
H584   H     0.99436   0.26192   0.66029   0.00000  Uiso   1.00
H585   H     0.67435   0.31091   0.68993   0.00000  Uiso   1.00
N586   N     0.67763   0.21982   0.80899   0.00000  Uiso   1.00
H587   H     0.67203   0.23794   0.83962   0.00000  Uiso   1.00
H588   H     0.99226   0.18903   0.80978   0.00000  Uiso   1.00
N589   N     0.87684   0.11282   0.67686   0.00000  Uiso   1.00
H590   H     0.91216   0.12543   0.69423   0.00000  Uiso   1.00
H591   H     0.88597   0.08985   0.65125   0.00000  Uiso   1.00
N592   N     0.88207   0.39011   0.83331   0.00000  Uiso   1.00
H593   H     0.91045   0.36868   0.82326   0.00000  Uiso   1.00
H594   H     0.85627   0.37219   0.85096   0.00000  Uiso   1.00
C595   C     0.16702   0.66381   0.74969   0.00000  Uiso   1.00
C596   C     0.16717   0.83620   0.75045   0.00000  Uiso   1.00
C597   C     0.14983   0.71251   0.54989   0.00000  Uiso   1.00
C598   C     0.20379   0.77463   0.95252   0.00000  Uiso   1.00
C599   C     0.14982   0.71334   0.59953   0.00000  Uiso   1.00
C600   C     0.20287   0.77434   0.90275   0.00000  Uiso   1.00
C601   C     0.18379   0.78653   0.60494   0.00000  Uiso   1.00
C602   C     0.13077   0.72544   0.89271   0.00000  Uiso   1.00
C603   C     0.18399   0.78727   0.55535   0.00000  Uiso   1.00
C604   C     0.12997   0.72513   0.94222   0.00000  Uiso   1.00
C605   C     0.16692   0.74988   0.52668   0.00000  Uiso   1.00
C606   C     0.16689   0.74990   0.97331   0.00000  Uiso   1.00
C607   C     0.06723   0.75014   0.73781   0.00000  Uiso   1.00
C608   C     0.26608   0.74992   0.76218   0.00000  Uiso   1.00
C609   C     0.01299   0.75631   0.73216   0.00000  Uiso   1.00
C610   C     0.32029   0.74376   0.76778   0.00000  Uiso   1.00
C611   C     0.13843   0.54835   0.78332   0.00000  Uiso   1.00
C612   C     0.13637   0.95123   0.70931   0.00000  Uiso   1.00
C613   C     0.14214   0.59419   0.78385   0.00000  Uiso   1.00
C614   C     0.13994   0.90536   0.71024   0.00000  Uiso   1.00
C615   C     0.16513   0.61574   0.74854   0.00000  Uiso   1.00
C616   C     0.16515   0.88425   0.75103   0.00000  Uiso   1.00
C617   C     0.18459   0.59112   0.71212   0.00000  Uiso   1.00
C618   C     0.18716   0.90960   0.79141   0.00000  Uiso   1.00
C619   C     0.18000   0.54496   0.71172   0.00000  Uiso   1.00
C620   C     0.18313   0.95553   0.78999   0.00000  Uiso   1.00
C621   C     0.15745   0.52394   0.74737   0.00000  Uiso   1.00
C622   C     0.15790   0.97609   0.74918   0.00000  Uiso   1.00
H623   H     0.12108   0.53182   0.81100   0.00000  Uiso   1.00
H624   H     0.11705   0.96739   0.67761   0.00000  Uiso   1.00
H625   H     0.12671   0.61283   0.81170   0.00000  Uiso   1.00
H626   H     0.12264   0.88635   0.67919   0.00000  Uiso   1.00
H627   H     0.19564   0.52523   0.68476   0.00000  Uiso   1.00
H628   H     0.20079   0.97533   0.82033   0.00000  Uiso   1.00
H629   H     0.13716   0.68245   0.53010   0.00000  Uiso   1.00
H630   H     0.23380   0.79363   0.97443   0.00000  Uiso   1.00
H631   H     0.13645   0.68443   0.61672   0.00000  Uiso   1.00
H632   H     0.23141   0.79344   0.88728   0.00000  Uiso   1.00
H633   H     0.19728   0.81544   0.62637   0.00000  Uiso   1.00
H634   H     0.10257   0.70595   0.86936   0.00000  Uiso   1.00
H635   H     0.19680   0.81727   0.53969   0.00000  Uiso   1.00
H636   H     0.10011   0.70600   0.95579   0.00000  Uiso   1.00
N637   N     0.16667   0.74999   0.62623   0.00000  Uiso   1.00
N638   N     0.16667   0.75001   0.87376   0.00000  Uiso   1.00
O639   O     0.16667   0.68453   0.78974   0.00000  Uiso   1.00
O640   O     0.16666   0.81546   0.71026   0.00000  Uiso   1.00
O641   O     0.16667   0.68453   0.71026   0.00000  Uiso   1.00
O642   O     0.16666   0.81547   0.78974   0.00000  Uiso   1.00
O643   O     0.09058   0.75000   0.78044   0.00000  Uiso   1.00
O644   O     0.24275   0.75000   0.71955   0.00000  Uiso   1.00
O645   O     0.09058   0.74999   0.70096   0.00000  Uiso   1.00
O646   O     0.24275   0.75000   0.79903   0.00000  Uiso   1.00
Zn647  Zn    0.16667   0.75000   0.80307   0.00000  Uiso   1.00
Zn648  Zn    0.16667   0.74999   0.69693   0.00000  Uiso   1.00
N649   N     0.32223   0.78017   0.69088   0.00000  Uiso   1.00
H650   H     0.32770   0.76192   0.66029   0.00000  Uiso   1.00
H651   H     0.00768   0.81091   0.68993   0.00000  Uiso   1.00
N652   N     0.01097   0.71982   0.80899   0.00000  Uiso   1.00
H653   H     0.00537   0.73794   0.83962   0.00000  Uiso   1.00
H654   H     0.32559   0.68903   0.80978   0.00000  Uiso   1.00
N655   N     0.21017   0.61282   0.67686   0.00000  Uiso   1.00
H656   H     0.24549   0.62543   0.69423   0.00000  Uiso   1.00
H657   H     0.21931   0.58985   0.65125   0.00000  Uiso   1.00
N658   N     0.21540   0.89011   0.83331   0.00000  Uiso   1.00
H659   H     0.24378   0.86868   0.82326   0.00000  Uiso   1.00
H660   H     0.18960   0.87219   0.85096   0.00000  Uiso   1.00
C661   C     0.50036   0.66381   0.74969   0.00000  Uiso   1.00
C662   C     0.50050   0.83620   0.75045   0.00000  Uiso   1.00
C663   C     0.48316   0.71251   0.54989   0.00000  Uiso   1.00
C664   C     0.53713   0.77463   0.95252   0.00000  Uiso   1.00
C665   C     0.48316   0.71334   0.59953   0.00000  Uiso   1.00
C666   C     0.53620   0.77434   0.90275   0.00000  Uiso   1.00
C667   C     0.51713   0.78653   0.60494   0.00000  Uiso   1.00
C668   C     0.46410   0.72544   0.89271   0.00000  Uiso   1.00
C669   C     0.51733   0.78727   0.55535   0.00000  Uiso   1.00
C670   C     0.46330   0.72513   0.94222   0.00000  Uiso   1.00
C671   C     0.50025   0.74988   0.52668   0.00000  Uiso   1.00
C672   C     0.50022   0.74990   0.97331   0.00000  Uiso   1.00
C673   C     0.40057   0.75014   0.73781   0.00000  Uiso   1.00
C674   C     0.59942   0.74992   0.76218   0.00000  Uiso   1.00
C675   C     0.34632   0.75631   0.73216   0.00000  Uiso   1.00
C676   C     0.65362   0.74376   0.76778   0.00000  Uiso   1.00
C677   C     0.47176   0.54835   0.78332   0.00000  Uiso   1.00
C678   C     0.46971   0.95123   0.70931   0.00000  Uiso   1.00
C679   C     0.47548   0.59419   0.78385   0.00000  Uiso   1.00
C680   C     0.47328   0.90536   0.71024   0.00000  Uiso   1.00
C681   C     0.49847   0.61574   0.74854   0.00000  Uiso   1.00
C682   C     0.49848   0.88425   0.75103   0.00000  Uiso   1.00
C683   C     0.51792   0.59112   0.71212   0.00000  Uiso   1.00
C684   C     0.52050   0.90960   0.79141   0.00000  Uiso   1.00
C685   C     0.51334   0.54496   0.71172   0.00000  Uiso   1.00
C686   C     0.51647   0.95553   0.78999   0.00000  Uiso   1.00
C687   C     0.49078   0.52394   0.74737   0.00000  Uiso   1.00
C688   C     0.49123   0.97609   0.74918   0.00000  Uiso   1.00
H689   H     0.45441   0.53182   0.81100   0.00000  Uiso   1.00
H690   H     0.45038   0.96739   0.67761   0.00000  Uiso   1.00
H691   H     0.46004   0.61283   0.81170   0.00000  Uiso   1.00
H692   H     0.45597   0.88635   0.67919   0.00000  Uiso   1.00
H693   H     0.52897   0.52523   0.68476   0.00000  Uiso   1.00
H694   H     0.53413   0.97533   0.82033   0.00000  Uiso   1.00
H695   H     0.47050   0.68245   0.53010   0.00000  Uiso   1.00
H696   H     0.56713   0.79363   0.97443   0.00000  Uiso   1.00
H697   H     0.46979   0.68443   0.61672   0.00000  Uiso   1.00
H698   H     0.56474   0.79344   0.88728   0.00000  Uiso   1.00
H699   H     0.53062   0.81544   0.62637   0.00000  Uiso   1.00
H700   H     0.43590   0.70595   0.86936   0.00000  Uiso   1.00
H701   H     0.53013   0.81727   0.53969   0.00000  Uiso   1.00
H702   H     0.43344   0.70600   0.95579   0.00000  Uiso   1.00
N703   N     0.50000   0.74999   0.62623   0.00000  Uiso   1.00
N704   N     0.50000   0.75001   0.87376   0.00000  Uiso   1.00
O705   O     0.50000   0.68453   0.78974   0.00000  Uiso   1.00
O706   O     0.50000   0.81546   0.71026   0.00000  Uiso   1.00
O707   O     0.50000   0.68453   0.71026   0.00000  Uiso   1.00
O708   O     0.50000   0.81547   0.78974   0.00000  Uiso   1.00
O709   O     0.42392   0.75000   0.78044   0.00000  Uiso   1.00
O710   O     0.57608   0.75000   0.71955   0.00000  Uiso   1.00
O711   O     0.42392   0.74999   0.70096   0.00000  Uiso   1.00
O712   O     0.57608   0.75000   0.79903   0.00000  Uiso   1.00
Zn713  Zn    0.50000   0.75000   0.80307   0.00000  Uiso   1.00
Zn714  Zn    0.50000   0.74999   0.69693   0.00000  Uiso   1.00
N715   N     0.65557   0.78017   0.69088   0.00000  Uiso   1.00
H716   H     0.66103   0.76192   0.66029   0.00000  Uiso   1.00
H717   H     0.34101   0.81091   0.68993   0.00000  Uiso   1.00
N718   N     0.34430   0.71982   0.80899   0.00000  Uiso   1.00
H719   H     0.33870   0.73794   0.83962   0.00000  Uiso   1.00
H720   H     0.65893   0.68903   0.80978   0.00000  Uiso   1.00
N721   N     0.54351   0.61282   0.67686   0.00000  Uiso   1.00
H722   H     0.57883   0.62543   0.69423   0.00000  Uiso   1.00
H723   H     0.55264   0.58985   0.65125   0.00000  Uiso   1.00
N724   N     0.54874   0.89011   0.83331   0.00000  Uiso   1.00
H725   H     0.57711   0.86868   0.82326   0.00000  Uiso   1.00
H726   H     0.52294   0.87219   0.85096   0.00000  Uiso   1.00
C727   C     0.83369   0.66381   0.74969   0.00000  Uiso   1.00
C728   C     0.83383   0.83620   0.75045   0.00000  Uiso   1.00
C729   C     0.81649   0.71251   0.54989   0.00000  Uiso   1.00
C730   C     0.87046   0.77463   0.95252   0.00000  Uiso   1.00
C731   C     0.81649   0.71334   0.59953   0.00000  Uiso   1.00
C732   C     0.86953   0.77434   0.90275   0.00000  Uiso   1.00
C733   C     0.85046   0.78653   0.60494   0.00000  Uiso   1.00
C734   C     0.79744   0.72544   0.89271   0.00000  Uiso   1.00
C735   C     0.85066   0.78727   0.55535   0.00000  Uiso   1.00
C736   C     0.79663   0.72513   0.94222   0.00000  Uiso   1.00
C737   C     0.83358   0.74988   0.52668   0.00000  Uiso   1.00
C738   C     0.83355   0.74990   0.97331   0.00000  Uiso   1.00
C739   C     0.73390   0.75014   0.73781   0.00000  Uiso   1.00
C740   C     0.93275   0.74992   0.76218   0.00000  Uiso   1.00
C741   C     0.67965   0.75631   0.73216   0.00000  Uiso   1.00
C742   C     0.98696   0.74376   0.76778   0.00000  Uiso   1.00
C743   C     0.80509   0.54835   0.78332   0.00000  Uiso   1.00
C744   C     0.80304   0.95123   0.70931   0.00000  Uiso   1.00
C745   C     0.80881   0.59419   0.78385   0.00000  Uiso   1.00
C746   C     0.80661   0.90536   0.71024   0.00000  Uiso   1.00
C747   C     0.83180   0.61574   0.74854   0.00000  Uiso   1.00
C748   C     0.83181   0.88425   0.75103   0.00000  Uiso   1.00
C749   C     0.85125   0.59112   0.71212   0.00000  Uiso   1.00
C750   C     0.85383   0.90960   0.79141   0.00000  Uiso   1.00
C751   C     0.84667   0.54496   0.71172   0.00000  Uiso   1.00
C752   C     0.84980   0.95553   0.78999   0.00000  Uiso   1.00
C753   C     0.82412   0.52394   0.74737   0.00000  Uiso   1.00
C754   C     0.82457   0.97609   0.74918   0.00000  Uiso   1.00
H755   H     0.78774   0.53182   0.81100   0.00000  Uiso   1.00
H756   H     0.78371   0.96739   0.67761   0.00000  Uiso   1.00
H757   H     0.79338   0.61283   0.81170   0.00000  Uiso   1.00
H758   H     0.78930   0.88635   0.67919   0.00000  Uiso   1.00
H759   H     0.86230   0.52523   0.68476   0.00000  Uiso   1.00
H760   H     0.86746   0.97533   0.82033   0.00000  Uiso   1.00
H761   H     0.80383   0.68245   0.53010   0.00000  Uiso   1.00
H762   H     0.90046   0.79363   0.97443   0.00000  Uiso   1.00
H763   H     0.80312   0.68443   0.61672   0.00000  Uiso   1.00
H764   H     0.89807   0.79344   0.88728   0.00000  Uiso   1.00
H765   H     0.86395   0.81544   0.62637   0.00000  Uiso   1.00
H766   H     0.76924   0.70595   0.86936   0.00000  Uiso   1.00
H767   H     0.86346   0.81727   0.53969   0.00000  Uiso   1.00
H768   H     0.76678   0.70600   0.95579   0.00000  Uiso   1.00
N769   N     0.83333   0.74999   0.62623   0.00000  Uiso   1.00
N770   N     0.83333   0.75001   0.87376   0.00000  Uiso   1.00
O771   O     0.83334   0.68453   0.78974   0.00000  Uiso   1.00
O772   O     0.83333   0.81546   0.71026   0.00000  Uiso   1.00
O773   O     0.83334   0.68453   0.71026   0.00000  Uiso   1.00
O774   O     0.83333   0.81547   0.78974   0.00000  Uiso   1.00
O775   O     0.75725   0.75000   0.78044   0.00000  Uiso   1.00
O776   O     0.90942   0.75000   0.71955   0.00000  Uiso   1.00
O777   O     0.75725   0.74999   0.70096   0.00000  Uiso   1.00
O778   O     0.90942   0.75000   0.79903   0.00000  Uiso   1.00
Zn779  Zn    0.83333   0.75000   0.80307   0.00000  Uiso   1.00
Zn780  Zn    0.83333   0.74999   0.69693   0.00000  Uiso   1.00
N781   N     0.98890   0.78017   0.69088   0.00000  Uiso   1.00
H782   H     0.99436   0.76192   0.66029   0.00000  Uiso   1.00
H783   H     0.67435   0.81091   0.68993   0.00000  Uiso   1.00
N784   N     0.67763   0.71982   0.80899   0.00000  Uiso   1.00
H785   H     0.67203   0.73794   0.83962   0.00000  Uiso   1.00
H786   H     0.99226   0.68903   0.80978   0.00000  Uiso   1.00
N787   N     0.87684   0.61282   0.67686   0.00000  Uiso   1.00
H788   H     0.91216   0.62543   0.69423   0.00000  Uiso   1.00
H789   H     0.88597   0.58985   0.65125   0.00000  Uiso   1.00
N790   N     0.88207   0.89011   0.83331   0.00000  Uiso   1.00
H791   H     0.91045   0.86868   0.82326   0.00000  Uiso   1.00
H792   H     0.85627   0.87219   0.85096   0.00000  Uiso   1.00
loop_
_geom_bond_atom_site_label_1
_geom_bond_atom_site_label_2
_geom_bond_distance
_geom_bond_site_symmetry_2
_ccdc_geom_bond_type
C1     C21     1.443   .     S
C1     O45     1.288   .     A
C1     O47     1.284   .     A
C2     C22     1.443   .     S
C2     O46     1.289   .     A
C2     O48     1.283   .     A
C3     H35     1.082   .     S
C3     C11     1.410   .     A
C3     C5      1.406   .     A
C4     H36     1.082   .     S
C4     C12     1.411   .     A
C4     C6      1.406   .     A
C5     H37     1.081   .     S
C5     N43     1.363   .     A
C6     H38     1.082   .     S
C6     N44     1.362   .     A
C7     C9      1.406   .     A
C7     H39     1.081   .     S
C7     N43     1.363   .     A
C8     C10     1.405   .     A
C8     H40     1.081   .     S
C8     N44     1.362   .     A
C9     C11     1.410   .     A
C9     H41     1.082   .     S
C10    H42     1.082   .     S
C10    C12     1.410   .     A
C11    C408    1.511   1_554 S
C12    C407    1.511   .     S
C13    C15     1.408   .     S
C13    O49     1.271   .     A
C13    O51     1.280   .     A
C14    C16     1.407   .     S
C14    O50     1.271   .     A
C14    O52     1.280   .     A
C15    C148    1.350   1_455 S
C15    N187    1.443   1_455 S
C16    C81     1.350   .     S
C16    N124    1.442   .     S
C17    H29     1.084   .     S
C17    C27     1.394   .     A
C17    C19     1.379   .     A
C18    C28     1.394   .     A
C18    H30     1.084   .     S
C18    C20     1.380   .     A
C19    H31     1.084   .     S
C19    C21     1.401   .     A
C20    H32     1.084   .     S
C20    C22     1.402   .     A
C21    C23     1.413   .     A
C22    C24     1.416   .     A
C23    N61     1.439   .     S
C23    C25     1.390   .     A
C24    N64     1.434   .     S
C24    C26     1.383   .     A
C25    C27     1.395   .     A
C25    H33     1.084   .     S
C26    C28     1.395   .     A
C26    H34     1.085   .     S
C27    C226    1.437   1_545 S
C28    C225    1.437   .     S
N43    Zn54    2.002   .     S
N44    Zn53    2.002   .     S
O45    Zn53    1.996   .     S
O46    Zn54    1.996   .     S
O47    Zn54    2.005   .     S
O48    Zn53    2.005   .     S
O49    Zn53    1.989   .     S
O50    Zn54    1.989   .     S
O51    Zn54    1.997   .     S
O52    Zn53    1.997   .     S
N55    H56     1.046   .     S
N55    C81     1.443   .     S
N55    H123    1.046   .     S
H57    N187    1.046   1_455 S
N58    H59     1.046   .     S
N58    C148    1.442   1_455 S
N58    H192    1.046   1_455 S
H60    N124    1.046   .     S
N61    H62     1.046   .     S
N61    H63     1.046   .     S
N64    H65     1.046   .     S
N64    H66     1.045   .     S
C67    C87     1.443   .     S
C67    O111    1.288   .     A
C67    O113    1.284   .     A
C68    C88     1.443   .     S
C68    O112    1.289   .     A
C68    O114    1.283   .     A
C69    H101    1.082   .     S
C69    C77     1.410   .     A
C69    C71     1.406   .     A
C70    H102    1.082   .     S
C70    C78     1.411   .     A
C70    C72     1.406   .     A
C71    H103    1.081   .     S
C71    N109    1.363   .     A
C72    H104    1.082   .     S
C72    N110    1.362   .     A
C73    C75     1.406   .     A
C73    H105    1.081   .     S
C73    N109    1.363   .     A
C74    C76     1.405   .     A
C74    H106    1.081   .     S
C74    N110    1.362   .     A
C75    C77     1.410   .     A
C75    H107    1.082   .     S
C76    H108    1.082   .     S
C76    C78     1.410   .     A
C77    C474    1.511   1_554 S
C78    C473    1.511   .     S
C79    C81     1.408   .     S
C79    O115    1.271   .     A
C79    O117    1.280   .     A
C80    C82     1.407   .     S
C80    O116    1.271   .     A
C80    O118    1.280   .     A
C82    C147    1.350   .     S
C82    N190    1.442   .     S
C83    H95     1.084   .     S
C83    C93     1.394   .     A
C83    C85     1.379   .     A
C84    C94     1.394   .     A
C84    H96     1.084   .     S
C84    C86     1.380   .     A
C85    H97     1.084   .     S
C85    C87     1.401   .     A
C86    H98     1.084   .     S
C86    C88     1.402   .     A
C87    C89     1.413   .     A
C88    C90     1.416   .     A
C89    N127    1.439   .     S
C89    C91     1.390   .     A
C90    N130    1.434   .     S
C90    C92     1.383   .     A
C91    C93     1.395   .     A
C91    H99     1.084   .     S
C92    C94     1.395   .     A
C92    H100    1.085   .     S
C93    C292    1.437   1_545 S
C94    C291    1.437   .     S
N109   Zn120   2.002   .     S
N110   Zn119   2.002   .     S
O111   Zn119   1.996   .     S
O112   Zn120   1.996   .     S
O113   Zn120   2.005   .     S
O114   Zn119   2.005   .     S
O115   Zn119   1.989   .     S
O116   Zn120   1.989   .     S
O117   Zn120   1.997   .     S
O118   Zn119   1.997   .     S
N121   H122    1.046   .     S
N121   C147    1.443   .     S
N121   H189    1.046   .     S
N124   H125    1.046   .     S
H126   N190    1.046   .     S
N127   H128    1.046   .     S
N127   H129    1.046   .     S
N130   H131    1.046   .     S
N130   H132    1.045   .     S
C133   C153    1.443   .     S
C133   O177    1.288   .     A
C133   O179    1.284   .     A
C134   C154    1.443   .     S
C134   O178    1.289   .     A
C134   O180    1.283   .     A
C135   H167    1.082   .     S
C135   C143    1.410   .     A
C135   C137    1.406   .     A
C136   H168    1.082   .     S
C136   C144    1.411   .     A
C136   C138    1.406   .     A
C137   H169    1.081   .     S
C137   N175    1.363   .     A
C138   H170    1.082   .     S
C138   N176    1.362   .     A
C139   C141    1.406   .     A
C139   H171    1.081   .     S
C139   N175    1.363   .     A
C140   C142    1.405   .     A
C140   H172    1.081   .     S
C140   N176    1.362   .     A
C141   C143    1.410   .     A
C141   H173    1.082   .     S
C142   H174    1.082   .     S
C142   C144    1.410   .     A
C143   C540    1.511   1_554 S
C144   C539    1.511   .     S
C145   C147    1.408   .     S
C145   O181    1.271   .     A
C145   O183    1.280   .     A
C146   C148    1.407   .     S
C146   O182    1.271   .     A
C146   O184    1.280   .     A
C148   C15     1.350   1_655 S
C148   N58     1.442   1_655 S
C149   H161    1.084   .     S
C149   C159    1.394   .     A
C149   C151    1.379   .     A
C150   C160    1.394   .     A
C150   H162    1.084   .     S
C150   C152    1.380   .     A
C151   H163    1.084   .     S
C151   C153    1.401   .     A
C152   H164    1.084   .     S
C152   C154    1.402   .     A
C153   C155    1.413   .     A
C154   C156    1.416   .     A
C155   N193    1.439   .     S
C155   C157    1.390   .     A
C156   N196    1.434   .     S
C156   C158    1.383   .     A
C157   C159    1.395   .     A
C157   H165    1.084   .     S
C158   C160    1.395   .     A
C158   H166    1.085   .     S
C159   C358    1.437   1_545 S
C160   C357    1.437   .     S
N175   Zn186   2.002   .     S
N176   Zn185   2.002   .     S
O177   Zn185   1.996   .     S
O178   Zn186   1.996   .     S
O179   Zn186   2.005   .     S
O180   Zn185   2.005   .     S
O181   Zn185   1.989   .     S
O182   Zn186   1.989   .     S
O183   Zn186   1.997   .     S
O184   Zn185   1.997   .     S
N187   H188    1.046   .     S
N187   C15     1.443   1_655 S
N187   H57     1.046   1_655 S
N190   H191    1.046   .     S
H192   N58     1.046   1_655 S
N193   H194    1.046   .     S
N193   H195    1.046   .     S
N196   H197    1.046   .     S
N196   H198    1.045   .     S
C199   C219    1.443   .     S
C199   O243    1.288   .     A
C199   O245    1.284   .     A
C200   C220    1.443   .     S
C200   O244    1.289   .     A
C200   O246    1.283   .     A
C201   H233    1.082   .     S
C201   C209    1.410   .     A
C201   C203    1.406   .     A
C202   H234    1.082   .     S
C202   C210    1.411   .     A
C202   C204    1.406   .     A
C203   H235    1.081   .     S
C203   N241    1.363   .     A
C204   H236    1.082   .     S
C204   N242    1.362   .     A
C205   C207    1.406   .     A
C205   H237    1.081   .     S
C205   N241    1.363   .     A
C206   C208    1.405   .     A
C206   H238    1.081   .     S
C206   N242    1.362   .     A
C207   C209    1.410   .     A
C207   H239    1.082   .     S
C208   H240    1.082   .     S
C208   C210    1.410   .     A
C209   C606    1.511   1_554 S
C210   C605    1.511   .     S
C211   C213    1.408   .     S
C211   O247    1.271   .     A
C211   O249    1.280   .     A
C212   C214    1.407   .     S
C212   O248    1.271   .     A
C212   O250    1.280   .     A
C213   C346    1.350   1_455 S
C213   N385    1.443   1_455 S
C214   C279    1.350   .     S
C214   N322    1.442   .     S
C215   H227    1.084   .     S
C215   C225    1.394   .     A
C215   C217    1.379   .     A
C216   C226    1.394   .     A
C216   H228    1.084   .     S
C216   C218    1.380   .     A
C217   H229    1.084   .     S
C217   C219    1.401   .     A
C218   H230    1.084   .     S
C218   C220    1.402   .     A
C219   C221    1.413   .     A
C220   C222    1.416   .     A
C221   N259    1.439   .     S
C221   C223    1.390   .     A
C222   N262    1.434   .     S
C222   C224    1.383   .     A
C223   C225    1.395   .     A
C223   H231    1.084   .     S
C224   C226    1.395   .     A
C224   H232    1.085   .     S
C226   C27     1.437   1_565 S
N241   Zn252   2.002   .     S
N242   Zn251   2.002   .     S
O243   Zn251   1.996   .     S
O244   Zn252   1.996   .     S
O245   Zn252   2.005   .     S
O246   Zn251   2.005   .     S
O247   Zn251   1.989   .     S
O248   Zn252   1.989   .     S
O249   Zn252   1.997   .     S
O250   Zn251   1.997   .     S
N253   H254    1.046   .     S
N253   C279    1.443   .     S
N253   H321    1.046   .     S
H255   N385    1.046   1_455 S
N256   H257    1.046   .     S
N256   C346    1.442   1_455 S
N256   H390    1.046   1_455 S
H258   N322    1.046   .     S
N259   H260    1.046   .     S
N259   H261    1.046   .     S
N262   H263    1.046   .     S
N262   H264    1.045   .     S
C265   C285    1.443   .     S
C265   O309    1.288   .     A
C265   O311    1.284   .     A
C266   C286    1.443   .     S
C266   O310    1.289   .     A
C266   O312    1.283   .     A
C267   H299    1.082   .     S
C267   C275    1.410   .     A
C267   C269    1.406   .     A
C268   H300    1.082   .     S
C268   C276    1.411   .     A
C268   C270    1.406   .     A
C269   H301    1.081   .     S
C269   N307    1.363   .     A
C270   H302    1.082   .     S
C270   N308    1.362   .     A
C271   C273    1.406   .     A
C271   H303    1.081   .     S
C271   N307    1.363   .     A
C272   C274    1.405   .     A
C272   H304    1.081   .     S
C272   N308    1.362   .     A
C273   C275    1.410   .     A
C273   H305    1.082   .     S
C274   H306    1.082   .     S
C274   C276    1.410   .     A
C275   C672    1.511   1_554 S
C276   C671    1.511   .     S
C277   C279    1.408   .     S
C277   O313    1.271   .     A
C277   O315    1.280   .     A
C278   C280    1.407   .     S
C278   O314    1.271   .     A
C278   O316    1.280   .     A
C280   C345    1.350   .     S
C280   N388    1.442   .     S
C281   H293    1.084   .     S
C281   C291    1.394   .     A
C281   C283    1.379   .     A
C282   C292    1.394   .     A
C282   H294    1.084   .     S
C282   C284    1.380   .     A
C283   H295    1.084   .     S
C283   C285    1.401   .     A
C284   H296    1.084   .     S
C284   C286    1.402   .     A
C285   C287    1.413   .     A
C286   C288    1.416   .     A
C287   N325    1.439   .     S
C287   C289    1.390   .     A
C288   N328    1.434   .     S
C288   C290    1.383   .     A
C289   C291    1.395   .     A
C289   H297    1.084   .     S
C290   C292    1.395   .     A
C290   H298    1.085   .     S
C292   C93     1.437   1_565 S
N307   Zn318   2.002   .     S
N308   Zn317   2.002   .     S
O309   Zn317   1.996   .     S
O310   Zn318   1.996   .     S
O311   Zn318   2.005   .     S
O312   Zn317   2.005   .     S
O313   Zn317   1.989   .     S
O314   Zn318   1.989   .     S
O315   Zn318   1.997   .     S
O316   Zn317   1.997   .     S
N319   H320    1.046   .     S
N319   C345    1.443   .     S
N319   H387    1.046   .     S
N322   H323    1.046   .     S
H324   N388    1.046   .     S
N325   H326    1.046   .     S
N325   H327    1.046   .     S
N328   H329    1.046   .     S
N328   H330    1.045   .     S
C331   C351    1.443   .     S
C331   O375    1.288   .     A
C331   O377    1.284   .     A
C332   C352    1.443   .     S
C332   O376    1.289   .     A
C332   O378    1.283   .     A
C333   H365    1.082   .     S
C333   C341    1.410   .     A
C333   C335    1.406   .     A
C334   H366    1.082   .     S
C334   C342    1.411   .     A
C334   C336    1.406   .     A
C335   H367    1.081   .     S
C335   N373    1.363   .     A
C336   H368    1.082   .     S
C336   N374    1.362   .     A
C337   C339    1.406   .     A
C337   H369    1.081   .     S
C337   N373    1.363   .     A
C338   C340    1.405   .     A
C338   H370    1.081   .     S
C338   N374    1.362   .     A
C339   C341    1.410   .     A
C339   H371    1.082   .     S
C340   H372    1.082   .     S
C340   C342    1.410   .     A
C341   C738    1.511   1_554 S
C342   C737    1.511   .     S
C343   C345    1.408   .     S
C343   O379    1.271   .     A
C343   O381    1.280   .     A
C344   C346    1.407   .     S
C344   O380    1.271   .     A
C344   O382    1.280   .     A
C346   C213    1.350   1_655 S
C346   N256    1.442   1_655 S
C347   H359    1.084   .     S
C347   C357    1.394   .     A
C347   C349    1.379   .     A
C348   C358    1.394   .     A
C348   H360    1.084   .     S
C348   C350    1.380   .     A
C349   H361    1.084   .     S
C349   C351    1.401   .     A
C350   H362    1.084   .     S
C350   C352    1.402   .     A
C351   C353    1.413   .     A
C352   C354    1.416   .     A
C353   N391    1.439   .     S
C353   C355    1.390   .     A
C354   N394    1.434   .     S
C354   C356    1.383   .     A
C355   C357    1.395   .     A
C355   H363    1.084   .     S
C356   C358    1.395   .     A
C356   H364    1.085   .     S
C358   C159    1.437   1_565 S
N373   Zn384   2.002   .     S
N374   Zn383   2.002   .     S
O375   Zn383   1.996   .     S
O376   Zn384   1.996   .     S
O377   Zn384   2.005   .     S
O378   Zn383   2.005   .     S
O379   Zn383   1.989   .     S
O380   Zn384   1.989   .     S
O381   Zn384   1.997   .     S
O382   Zn383   1.997   .     S
N385   H386    1.046   .     S
N385   C213    1.443   1_655 S
N385   H255    1.046   1_655 S
N388   H389    1.046   .     S
H390   N256    1.046   1_655 S
N391   H392    1.046   .     S
N391   H393    1.046   .     S
N394   H395    1.046   .     S
N394   H396    1.045   .     S
C397   C417    1.443   .     S
C397   O441    1.288   .     A
C397   O443    1.284   .     A
C398   C418    1.443   .     S
C398   O442    1.289   .     A
C398   O444    1.283   .     A
C399   H431    1.082   .     S
C399   C407    1.410   .     A
C399   C401    1.406   .     A
C400   H432    1.082   .     S
C400   C408    1.411   .     A
C400   C402    1.406   .     A
C401   H433    1.081   .     S
C401   N439    1.363   .     A
C402   H434    1.082   .     S
C402   N440    1.362   .     A
C403   C405    1.406   .     A
C403   H435    1.081   .     S
C403   N439    1.363   .     A
C404   C406    1.405   .     A
C404   H436    1.081   .     S
C404   N440    1.362   .     A
C405   C407    1.410   .     A
C405   H437    1.082   .     S
C406   H438    1.082   .     S
C406   C408    1.410   .     A
C408   C11     1.511   1_556 S
C409   C411    1.408   .     S
C409   O445    1.271   .     A
C409   O447    1.280   .     A
C410   C412    1.407   .     S
C410   O446    1.271   .     A
C410   O448    1.280   .     A
C411   C544    1.350   1_455 S
C411   N583    1.443   1_455 S
C412   C477    1.350   .     S
C412   N520    1.442   .     S
C413   H425    1.084   .     S
C413   C423    1.394   .     A
C413   C415    1.379   .     A
C414   C424    1.394   .     A
C414   H426    1.084   .     S
C414   C416    1.380   .     A
C415   H427    1.084   .     S
C415   C417    1.401   .     A
C416   H428    1.084   .     S
C416   C418    1.402   .     A
C417   C419    1.413   .     A
C418   C420    1.416   .     A
C419   N457    1.439   .     S
C419   C421    1.390   .     A
C420   N460    1.434   .     S
C420   C422    1.383   .     A
C421   C423    1.395   .     A
C421   H429    1.084   .     S
C422   C424    1.395   .     A
C422   H430    1.085   .     S
C423   C622    1.437   1_545 S
C424   C621    1.437   .     S
N439   Zn450   2.002   .     S
N440   Zn449   2.002   .     S
O441   Zn449   1.996   .     S
O442   Zn450   1.996   .     S
O443   Zn450   2.005   .     S
O444   Zn449   2.005   .     S
O445   Zn449   1.989   .     S
O446   Zn450   1.989   .     S
O447   Zn450   1.997   .     S
O448   Zn449   1.997   .     S
N451   H452    1.046   .     S
N451   C477    1.443   .     S
N451   H519    1.046   .     S
H453   N583    1.046   1_455 S
N454   H455    1.046   .     S
N454   C544    1.442   1_455 S
N454   H588    1.046   1_455 S
H456   N520    1.046   .     S
N457   H458    1.046   .     S
N457   H459    1.046   .     S
N460   H461    1.046   .     S
N460   H462    1.045   .     S
C463   C483    1.443   .     S
C463   O507    1.288   .     A
C463   O509    1.284   .     A
C464   C484    1.443   .     S
C464   O508    1.289   .     A
C464   O510    1.283   .     A
C465   H497    1.082   .     S
C465   C473    1.410   .     A
C465   C467    1.406   .     A
C466   H498    1.082   .     S
C466   C474    1.411   .     A
C466   C468    1.406   .     A
C467   H499    1.081   .     S
C467   N505    1.363   .     A
C468   H500    1.082   .     S
C468   N506    1.362   .     A
C469   C471    1.406   .     A
C469   H501    1.081   .     S
C469   N505    1.363   .     A
C470   C472    1.405   .     A
C470   H502    1.081   .     S
C470   N506    1.362   .     A
C471   C473    1.410   .     A
C471   H503    1.082   .     S
C472   H504    1.082   .     S
C472   C474    1.410   .     A
C474   C77     1.511   1_556 S
C475   C477    1.408   .     S
C475   O511    1.271   .     A
C475   O513    1.280   .     A
C476   C478    1.407   .     S
C476   O512    1.271   .     A
C476   O514    1.280   .     A
C478   C543    1.350   .     S
C478   N586    1.442   .     S
C479   H491    1.084   .     S
C479   C489    1.394   .     A
C479   C481    1.379   .     A
C480   C490    1.394   .     A
C480   H492    1.084   .     S
C480   C482    1.380   .     A
C481   H493    1.084   .     S
C481   C483    1.401   .     A
C482   H494    1.084   .     S
C482   C484    1.402   .     A
C483   C485    1.413   .     A
C484   C486    1.416   .     A
C485   N523    1.439   .     S
C485   C487    1.390   .     A
C486   N526    1.434   .     S
C486   C488    1.383   .     A
C487   C489    1.395   .     A
C487   H495    1.084   .     S
C488   C490    1.395   .     A
C488   H496    1.085   .     S
C489   C688    1.437   1_545 S
C490   C687    1.437   .     S
N505   Zn516   2.002   .     S
N506   Zn515   2.002   .     S
O507   Zn515   1.996   .     S
O508   Zn516   1.996   .     S
O509   Zn516   2.005   .     S
O510   Zn515   2.005   .     S
O511   Zn515   1.989   .     S
O512   Zn516   1.989   .     S
O513   Zn516   1.997   .     S
O514   Zn515   1.997   .     S
N517   H518    1.046   .     S
N517   C543    1.443   .     S
N517   H585    1.046   .     S
N520   H521    1.046   .     S
H522   N586    1.046   .     S
N523   H524    1.046   .     S
N523   H525    1.046   .     S
N526   H527    1.046   .     S
N526   H528    1.045   .     S
C529   C549    1.443   .     S
C529   O573    1.288   .     A
C529   O575    1.284   .     A
C530   C550    1.443   .     S
C530   O574    1.289   .     A
C530   O576    1.283   .     A
C531   H563    1.082   .     S
C531   C539    1.410   .     A
C531   C533    1.406   .     A
C532   H564    1.082   .     S
C532   C540    1.411   .     A
C532   C534    1.406   .     A
C533   H565    1.081   .     S
C533   N571    1.363   .     A
C534   H566    1.082   .     S
C534   N572    1.362   .     A
C535   C537    1.406   .     A
C535   H567    1.081   .     S
C535   N571    1.363   .     A
C536   C538    1.405   .     A
C536   H568    1.081   .     S
C536   N572    1.362   .     A
C537   C539    1.410   .     A
C537   H569    1.082   .     S
C538   H570    1.082   .     S
C538   C540    1.410   .     A
C540   C143    1.511   1_556 S
C541   C543    1.408   .     S
C541   O577    1.271   .     A
C541   O579    1.280   .     A
C542   C544    1.407   .     S
C542   O578    1.271   .     A
C542   O580    1.280   .     A
C544   C411    1.350   1_655 S
C544   N454    1.442   1_655 S
C545   H557    1.084   .     S
C545   C555    1.394   .     A
C545   C547    1.379   .     A
C546   C556    1.394   .     A
C546   H558    1.084   .     S
C546   C548    1.380   .     A
C547   H559    1.084   .     S
C547   C549    1.401   .     A
C548   H560    1.084   .     S
C548   C550    1.402   .     A
C549   C551    1.413   .     A
C550   C552    1.416   .     A
C551   N589    1.439   .     S
C551   C553    1.390   .     A
C552   N592    1.434   .     S
C552   C554    1.383   .     A
C553   C555    1.395   .     A
C553   H561    1.084   .     S
C554   C556    1.395   .     A
C554   H562    1.085   .     S
C555   C754    1.437   1_545 S
C556   C753    1.437   .     S
N571   Zn582   2.002   .     S
N572   Zn581   2.002   .     S
O573   Zn581   1.996   .     S
O574   Zn582   1.996   .     S
O575   Zn582   2.005   .     S
O576   Zn581   2.005   .     S
O577   Zn581   1.989   .     S
O578   Zn582   1.989   .     S
O579   Zn582   1.997   .     S
O580   Zn581   1.997   .     S
N583   H584    1.046   .     S
N583   C411    1.443   1_655 S
N583   H453    1.046   1_655 S
N586   H587    1.046   .     S
H588   N454    1.046   1_655 S
N589   H590    1.046   .     S
N589   H591    1.046   .     S
N592   H593    1.046   .     S
N592   H594    1.045   .     S
C595   C615    1.443   .     S
C595   O639    1.288   .     A
C595   O641    1.284   .     A
C596   C616    1.443   .     S
C596   O640    1.289   .     A
C596   O642    1.283   .     A
C597   H629    1.082   .     S
C597   C605    1.410   .     A
C597   C599    1.406   .     A
C598   H630    1.082   .     S
C598   C606    1.411   .     A
C598   C600    1.406   .     A
C599   H631    1.081   .     S
C599   N637    1.363   .     A
C600   H632    1.082   .     S
C600   N638    1.362   .     A
C601   C603    1.406   .     A
C601   H633    1.081   .     S
C601   N637    1.363   .     A
C602   C604    1.405   .     A
C602   H634    1.081   .     S
C602   N638    1.362   .     A
C603   C605    1.410   .     A
C603   H635    1.082   .     S
C604   H636    1.082   .     S
C604   C606    1.410   .     A
C606   C209    1.511   1_556 S
C607   C609    1.408   .     S
C607   O643    1.271   .     A
C607   O645    1.280   .     A
C608   C610    1.407   .     S
C608   O644    1.271   .     A
C608   O646    1.280   .     A
C609   C742    1.350   1_455 S
C609   N781    1.443   1_455 S
C610   C675    1.350   .     S
C610   N718    1.442   .     S
C611   H623    1.084   .     S
C611   C621    1.394   .     A
C611   C613    1.379   .     A
C612   C622    1.394   .     A
C612   H624    1.084   .     S
C612   C614    1.380   .     A
C613   H625    1.084   .     S
C613   C615    1.401   .     A
C614   H626    1.084   .     S
C614   C616    1.402   .     A
C615   C617    1.413   .     A
C616   C618    1.416   .     A
C617   N655    1.439   .     S
C617   C619    1.390   .     A
C618   N658    1.434   .     S
C618   C620    1.383   .     A
C619   C621    1.395   .     A
C619   H627    1.084   .     S
C620   C622    1.395   .     A
C620   H628    1.085   .     S
C622   C423    1.437   1_565 S
N637   Zn648   2.002   .     S
N638   Zn647   2.002   .     S
O639   Zn647   1.996   .     S
O640   Zn648   1.996   .     S
O641   Zn648   2.005   .     S
O642   Zn647   2.005   .     S
O643   Zn647   1.989   .     S
O644   Zn648   1.989   .     S
O645   Zn648   1.997   .     S
O646   Zn647   1.997   .     S
N649   H650    1.046   .     S
N649   C675    1.443   .     S
N649   H717    1.046   .     S
H651   N781    1.046   1_455 S
N652   H653    1.046   .     S
N652   C742    1.442   1_455 S
N652   H786    1.046   1_455 S
H654   N718    1.046   .     S
N655   H656    1.046   .     S
N655   H657    1.046   .     S
N658   H659    1.046   .     S
N658   H660    1.045   .     S
C661   C681    1.443   .     S
C661   O705    1.288   .     A
C661   O707    1.284   .     A
C662   C682    1.443   .     S
C662   O706    1.289   .     A
C662   O708    1.283   .     A
C663   H695    1.082   .     S
C663   C671    1.410   .     A
C663   C665    1.406   .     A
C664   H696    1.082   .     S
C664   C672    1.411   .     A
C664   C666    1.406   .     A
C665   H697    1.081   .     S
C665   N703    1.363   .     A
C666   H698    1.082   .     S
C666   N704    1.362   .     A
C667   C669    1.406   .     A
C667   H699    1.081   .     S
C667   N703    1.363   .     A
C668   C670    1.405   .     A
C668   H700    1.081   .     S
C668   N704    1.362   .     A
C669   C671    1.410   .     A
C669   H701    1.082   .     S
C670   H702    1.082   .     S
C670   C672    1.410   .     A
C672   C275    1.511   1_556 S
C673   C675    1.408   .     S
C673   O709    1.271   .     A
C673   O711    1.280   .     A
C674   C676    1.407   .     S
C674   O710    1.271   .     A
C674   O712    1.280   .     A
C676   C741    1.350   .     S
C676   N784    1.442   .     S
C677   H689    1.084   .     S
C677   C687    1.394   .     A
C677   C679    1.379   .     A
C678   C688    1.394   .     A
C678   H690    1.084   .     S
C678   C680    1.380   .     A
C679   H691    1.084   .     S
C679   C681    1.401   .     A
C680   H692    1.084   .     S
C680   C682    1.402   .     A
C681   C683    1.413   .     A
C682   C684    1.416   .     A
C683   N721    1.439   .     S
C683   C685    1.390   .     A
C684   N724    1.434   .     S
C684   C686    1.383   .     A
C685   C687    1.395   .     A
C685   H693    1.084   .     S
C686   C688    1.395   .     A
C686   H694    1.085   .     S
C688   C489    1.437   1_565 S
N703   Zn714   2.002   .     S
N704   Zn713   2.002   .     S
O705   Zn713   1.996   .     S
O706   Zn714   1.996   .     S
O707   Zn714   2.005   .     S
O708   Zn713   2.005   .     S
O709   Zn713   1.989   .     S
O710   Zn714   1.989   .     S
O711   Zn714   1.997   .     S
O712   Zn713   1.997   .     S
N715   H716    1.046   .     S
N715   C741    1.443   .     S
N715   H783    1.046   .     S
N718   H719    1.046   .     S
H720   N784    1.046   .     S
N721   H722    1.046   .     S
N721   H723    1.046   .     S
N724   H725    1.046   .     S
N724   H726    1.045   .     S
C727   C747    1.443   .     S
C727   O771    1.288   .     A
C727   O773    1.284   .     A
C728   C748    1.443   .     S
C728   O772    1.289   .     A
C728   O774    1.283   .     A
C729   H761    1.082   .     S
C729   C737    1.410   .     A
C729   C731    1.406   .     A
C730   H762    1.082   .     S
C730   C738    1.411   .     A
C730   C732    1.406   .     A
C731   H763    1.081   .     S
C731   N769    1.363   .     A
C732   H764    1.082   .     S
C732   N770    1.362   .     A
C733   C735    1.406   .     A
C733   H765    1.081   .     S
C733   N769    1.363   .     A
C734   C736    1.405   .     A
C734   H766    1.081   .     S
C734   N770    1.362   .     A
C735   C737    1.410   .     A
C735   H767    1.082   .     S
C736   H768    1.082   .     S
C736   C738    1.410   .     A
C738   C341    1.511   1_556 S
C739   C741    1.408   .     S
C739   O775    1.271   .     A
C739   O777    1.280   .     A
C740   C742    1.407   .     S
C740   O776    1.271   .     A
C740   O778    1.280   .     A
C742   C609    1.350   1_655 S
C742   N652    1.442   1_655 S
C743   H755    1.084   .     S
C743   C753    1.394   .     A
C743   C745    1.379   .     A
C744   C754    1.394   .     A
C744   H756    1.084   .     S
C744   C746    1.380   .     A
C745   H757    1.084   .     S
C745   C747    1.401   .     A
C746   H758    1.084   .     S
C746   C748    1.402   .     A
C747   C749    1.413   .     A
C748   C750    1.416   .     A
C749   N787    1.439   .     S
C749   C751    1.390   .     A
C750   N790    1.434   .     S
C750   C752    1.383   .     A
C751   C753    1.395   .     A
C751   H759    1.084   .     S
C752   C754    1.395   .     A
C752   H760    1.085   .     S
C754   C555    1.437   1_565 S
N769   Zn780   2.002   .     S
N770   Zn779   2.002   .     S
O771   Zn779   1.996   .     S
O772   Zn780   1.996   .     S
O773   Zn780   2.005   .     S
O774   Zn779   2.005   .     S
O775   Zn779   1.989   .     S
O776   Zn780   1.989   .     S
O777   Zn780   1.997   .     S
O778   Zn779   1.997   .     S
N781   H782    1.046   .     S
N781   C609    1.443   1_655 S
N781   H651    1.046   1_655 S
N784   H785    1.046   .     S
H786   N652    1.046   1_655 S
N787   H788    1.046   .     S
N787   H789    1.046   .     S
N790   H791    1.046   .     S
N790   H792    1.045   .     S
