data_str_m1_o10_o18_pcu_sym.229
_audit_creation_date              2020-01-03
_audit_creation_method            'Materials Studio'
_symmetry_space_group_name_H-M    'P1'
_symmetry_Int_Tables_number       1
_symmetry_cell_setting            triclinic
loop_
_symmetry_equiv_pos_as_xyz
  x,y,z
_cell_length_a                    32.6913
_cell_length_b                    32.4938
_cell_length_c                    35.3783
_cell_angle_alpha                 98.4683
_cell_angle_beta                  73.1797
_cell_angle_gamma                 97.8064
loop_
_atom_site_label
_atom_site_type_symbol
_atom_site_fract_x
_atom_site_fract_y
_atom_site_fract_z
_atom_site_U_iso_or_equiv
_atom_site_adp_type
_atom_site_occupancy
C1     C     0.05262   0.16031   0.25874   0.00000  Uiso   1.00
C2     C     0.19446   0.11737   0.45715   0.00000  Uiso   1.00
C3     C     0.21972   0.10379   0.47788   0.00000  Uiso   1.00
C4     C     0.28092   0.17320   0.24143   0.00000  Uiso   1.00
C5     C     0.21140   0.11348   0.01894   0.00000  Uiso   1.00
C6     C     0.17605   0.13591   0.04028   0.00000  Uiso   1.00
C7     C     0.23742   0.09999   0.03902   0.00000  Uiso   1.00
C8     C     0.22975   0.11005   0.08016   0.00000  Uiso   1.00
C9     C     0.17222   0.15070   0.08083   0.00000  Uiso   1.00
C10    C     0.32653   0.17353   0.23786   0.00000  Uiso   1.00
C11    C     0.00663   0.15762   0.26477   0.00000  Uiso   1.00
C12    C     0.08667   0.19676   0.42062   0.00000  Uiso   1.00
C13    C     0.17807   0.32198   0.23886   0.00000  Uiso   1.00
C14    C     0.14976   0.01278   0.26481   0.00000  Uiso   1.00
C15    C     0.15593   0.05636   0.25915   0.00000  Uiso   1.00
C16    C     0.17642   0.27770   0.24174   0.00000  Uiso   1.00
C17    C     0.18798   0.14530   0.14394   0.00000  Uiso   1.00
C18    C     0.14498   0.18743   0.35656   0.00000  Uiso   1.00
C19    C     0.12919   0.18861   0.40029   0.00000  Uiso   1.00
C20    C     0.19712   0.13544   0.10090   0.00000  Uiso   1.00
C21    C     0.06847   0.18602   0.45936   0.00000  Uiso   1.00
C22    C     0.03784   0.21321   0.06285   0.00000  Uiso   1.00
C23    C     0.15498   0.17504   0.42071   0.00000  Uiso   1.00
C24    C     0.32901   0.12454   0.32221   0.00000  Uiso   1.00
C25    C     0.08646   0.02278   0.31746   0.00000  Uiso   1.00
C26    C     0.09639   0.05028   0.35348   0.00000  Uiso   1.00
C27    C     0.06270   0.08076   0.37289   0.00000  Uiso   1.00
C28    C     0.16614   0.22049   0.09093   0.00000  Uiso   1.00
C29    C     0.29358   0.11441   0.09438   0.00000  Uiso   1.00
C30    C     0.00051   0.15510   0.46682   0.00000  Uiso   1.00
C31    C     0.06823   0.25640   0.40491   0.00000  Uiso   1.00
C32    C     0.03788   0.27628   0.44291   0.00000  Uiso   1.00
C33    C     0.03966   0.32347   0.44320   0.00000  Uiso   1.00
C34    C     0.13649   0.16170   0.45891   0.00000  Uiso   1.00
C35    C     0.21735   0.21637   0.41787   0.00000  Uiso   1.00
C36    C     0.07565   0.09562   0.07685   0.00000  Uiso   1.00
C37    C     0.06375   0.08393   0.11925   0.00000  Uiso   1.00
C38    C     0.05013   0.03723   0.12047   0.00000  Uiso   1.00
C39    C     0.18602   0.06238   0.41055   0.00000  Uiso   1.00
C40    C     0.20731   0.04487   0.36781   0.00000  Uiso   1.00
C41    C     0.19295   0.33184   0.35950   0.00000  Uiso   1.00
C42    C     0.09389   0.17092   0.47969   0.00000  Uiso   1.00
C43    C     0.16011   0.14189   0.47802   0.00000  Uiso   1.00
C44    C     0.14677   0.14390   0.01998   0.00000  Uiso   1.00
C45    C     0.10334   0.14996   0.03981   0.00000  Uiso   1.00
C46    C     0.07773   0.16495   0.02033   0.00000  Uiso   1.00
H47    H     0.26305   0.08081   0.02297   0.00000  Uiso   1.00
H48    H     0.30295   0.11165   0.34662   0.00000  Uiso   1.00
H49    H     0.05696   0.00170   0.32857   0.00000  Uiso   1.00
H50    H     0.07823   0.04154   0.29725   0.00000  Uiso   1.00
H51    H     0.09749   0.02997   0.37564   0.00000  Uiso   1.00
H52    H     0.12810   0.06852   0.34461   0.00000  Uiso   1.00
H53    H     0.06411   0.10394   0.35234   0.00000  Uiso   1.00
H54    H     0.06939   0.09779   0.40041   0.00000  Uiso   1.00
H55    H     0.03003   0.06385   0.38077   0.00000  Uiso   1.00
H56    H     0.17139   0.22312   0.05884   0.00000  Uiso   1.00
H57    H     0.19716   0.22704   0.09886   0.00000  Uiso   1.00
H58    H     0.01628   0.18659   0.21257   0.00000  Uiso   1.00
H59    H     0.14520   0.24486   0.10812   0.00000  Uiso   1.00
H60    H     0.29237   0.14873   0.10271   0.00000  Uiso   1.00
H61    H     0.31287   0.10762   0.06306   0.00000  Uiso   1.00
H62    H     0.30998   0.10320   0.11370   0.00000  Uiso   1.00
H63    H     0.00843   0.12690   0.47671   0.00000  Uiso   1.00
H64    H     0.00407   0.15021   0.43427   0.00000  Uiso   1.00
H65    H     0.29963   0.15915   0.48201   0.00000  Uiso   1.00
H66    H     0.06135   0.26636   0.37883   0.00000  Uiso   1.00
H67    H     0.10227   0.26848   0.40335   0.00000  Uiso   1.00
H68    H     0.00441   0.26219   0.44528   0.00000  Uiso   1.00
H69    H     0.20272   0.00184   0.21457   0.00000  Uiso   1.00
H70    H     0.04716   0.27022   0.46925   0.00000  Uiso   1.00
H71    H     0.07277   0.00494   0.44135   0.00000  Uiso   1.00
H72    H     0.01771   0.00344   0.47126   0.00000  Uiso   1.00
H73    H     0.02928   0.33070   0.41786   0.00000  Uiso   1.00
H74    H     0.21206   0.21927   0.45064   0.00000  Uiso   1.00
H75    H     0.20470   0.24283   0.40951   0.00000  Uiso   1.00
H76    H     0.25253   0.21851   0.40392   0.00000  Uiso   1.00
H77    H     0.10396   0.07898   0.05908   0.00000  Uiso   1.00
H78    H     0.04846   0.08498   0.06364   0.00000  Uiso   1.00
H79    H     0.09192   0.09244   0.13140   0.00000  Uiso   1.00
H80    H     0.24619   0.08574   0.46152   0.00000  Uiso   1.00
H81    H     0.03712   0.10178   0.13843   0.00000  Uiso   1.00
H82    H     0.02136   0.02820   0.10927   0.00000  Uiso   1.00
H83    H     0.04206   0.02977   0.15159   0.00000  Uiso   1.00
H84    H     0.07666   0.01881   0.10204   0.00000  Uiso   1.00
H85    H     0.15070   0.06067   0.41527   0.00000  Uiso   1.00
H86    H     0.19256   0.04241   0.43083   0.00000  Uiso   1.00
H87    H     0.19942   0.06270   0.34681   0.00000  Uiso   1.00
H88    H     0.24275   0.04876   0.36259   0.00000  Uiso   1.00
H89    H     0.20304   0.31328   0.37863   0.00000  Uiso   1.00
H90    H     0.20792   0.32070   0.32790   0.00000  Uiso   1.00
H91    H     0.05295   0.23767   0.04269   0.00000  Uiso   1.00
H92    H     0.15757   0.32658   0.36523   0.00000  Uiso   1.00
H93    H     0.05502   0.21446   0.08600   0.00000  Uiso   1.00
H94    H     0.00448   0.22051   0.07819   0.00000  Uiso   1.00
H95    H     0.01700   0.14747   0.33617   0.00000  Uiso   1.00
H96    H     0.01313   0.09794   0.30426   0.00000  Uiso   1.00
O97    O     0.16667   0.16667   0.25000   0.00000  Uiso   1.00
O98    O     0.15693   0.12393   0.16625   0.00000  Uiso   1.00
O99    O     0.12687   0.20646   0.33749   0.00000  Uiso   1.00
O100   O     0.21088   0.17493   0.15877   0.00000  Uiso   1.00
O101   O     0.17198   0.16135   0.33749   0.00000  Uiso   1.00
O102   O     0.03634   0.17304   0.04148   0.00000  Uiso   1.00
O103   O     0.31041   0.14434   0.29923   0.00000  Uiso   1.00
O104   O     0.12012   0.33050   0.29816   0.00000  Uiso   1.00
O105   O     0.14542   0.18106   0.10108   0.00000  Uiso   1.00
O106   O     0.25218   0.09301   0.10070   0.00000  Uiso   1.00
O107   O     0.02564   0.19138   0.47739   0.00000  Uiso   1.00
O108   O     0.17849   0.08101   0.27821   0.00000  Uiso   1.00
O109   O     0.06107   0.21214   0.40191   0.00000  Uiso   1.00
O110   O     0.19896   0.17751   0.40371   0.00000  Uiso   1.00
O111   O     0.08437   0.13953   0.07800   0.00000  Uiso   1.00
O112   O     0.20248   0.10462   0.41680   0.00000  Uiso   1.00
O113   O     0.14581   0.26136   0.26767   0.00000  Uiso   1.00
O114   O     0.07452   0.13251   0.23607   0.00000  Uiso   1.00
O115   O     0.26785   0.19179   0.21806   0.00000  Uiso   1.00
O116   O     0.06990   0.18960   0.27820   0.00000  Uiso   1.00
O117   O     0.25440   0.15277   0.26768   0.00000  Uiso   1.00
O118   O     0.13800   0.06903   0.23607   0.00000  Uiso   1.00
O119   O     0.20437   0.25527   0.21806   0.00000  Uiso   1.00
Zn120  Zn    0.19244   0.14090   0.28278   0.00000  Uiso   1.00
Zn121  Zn    0.13459   0.12378   0.22258   0.00000  Uiso   1.00
Zn122  Zn    0.21166   0.19664   0.21188   0.00000  Uiso   1.00
Zn123  Zn    0.12798   0.20535   0.28277   0.00000  Uiso   1.00
C124   C     0.38595   0.16031   0.25874   0.00000  Uiso   1.00
C125   C     0.52779   0.11737   0.45715   0.00000  Uiso   1.00
C126   C     0.55306   0.10379   0.47788   0.00000  Uiso   1.00
C127   C     0.61426   0.17320   0.24143   0.00000  Uiso   1.00
C128   C     0.54473   0.11348   0.01894   0.00000  Uiso   1.00
C129   C     0.50939   0.13591   0.04028   0.00000  Uiso   1.00
C130   C     0.57075   0.09999   0.03902   0.00000  Uiso   1.00
C131   C     0.56309   0.11005   0.08016   0.00000  Uiso   1.00
C132   C     0.50555   0.15070   0.08083   0.00000  Uiso   1.00
C133   C     0.65986   0.17353   0.23786   0.00000  Uiso   1.00
C134   C     0.33997   0.15762   0.26477   0.00000  Uiso   1.00
C135   C     0.42000   0.19676   0.42062   0.00000  Uiso   1.00
C136   C     0.51141   0.32198   0.23886   0.00000  Uiso   1.00
C137   C     0.48309   0.01278   0.26481   0.00000  Uiso   1.00
C138   C     0.48926   0.05636   0.25915   0.00000  Uiso   1.00
C139   C     0.50975   0.27770   0.24174   0.00000  Uiso   1.00
C140   C     0.52131   0.14530   0.14394   0.00000  Uiso   1.00
C141   C     0.47831   0.18743   0.35656   0.00000  Uiso   1.00
C142   C     0.46252   0.18861   0.40029   0.00000  Uiso   1.00
C143   C     0.53046   0.13544   0.10090   0.00000  Uiso   1.00
C144   C     0.40180   0.18602   0.45936   0.00000  Uiso   1.00
C145   C     0.37118   0.21321   0.06285   0.00000  Uiso   1.00
C146   C     0.48832   0.17504   0.42071   0.00000  Uiso   1.00
C147   C     0.66234   0.12454   0.32221   0.00000  Uiso   1.00
C148   C     0.41980   0.02278   0.31746   0.00000  Uiso   1.00
C149   C     0.42972   0.05028   0.35348   0.00000  Uiso   1.00
C150   C     0.39604   0.08076   0.37289   0.00000  Uiso   1.00
C151   C     0.49948   0.22049   0.09093   0.00000  Uiso   1.00
C152   C     0.62692   0.11441   0.09438   0.00000  Uiso   1.00
C153   C     0.33385   0.15510   0.46682   0.00000  Uiso   1.00
C154   C     0.40157   0.25640   0.40491   0.00000  Uiso   1.00
C155   C     0.37122   0.27628   0.44291   0.00000  Uiso   1.00
C156   C     0.37299   0.32347   0.44320   0.00000  Uiso   1.00
C157   C     0.46982   0.16170   0.45891   0.00000  Uiso   1.00
C158   C     0.55068   0.21637   0.41787   0.00000  Uiso   1.00
C159   C     0.40899   0.09562   0.07685   0.00000  Uiso   1.00
C160   C     0.39708   0.08393   0.11925   0.00000  Uiso   1.00
C161   C     0.38346   0.03723   0.12047   0.00000  Uiso   1.00
C162   C     0.51936   0.06238   0.41055   0.00000  Uiso   1.00
C163   C     0.54064   0.04487   0.36781   0.00000  Uiso   1.00
C164   C     0.52628   0.33184   0.35950   0.00000  Uiso   1.00
C165   C     0.42723   0.17092   0.47969   0.00000  Uiso   1.00
C166   C     0.49345   0.14189   0.47802   0.00000  Uiso   1.00
C167   C     0.48011   0.14390   0.01998   0.00000  Uiso   1.00
C168   C     0.43668   0.14996   0.03981   0.00000  Uiso   1.00
C169   C     0.41106   0.16495   0.02033   0.00000  Uiso   1.00
H170   H     0.59638   0.08081   0.02297   0.00000  Uiso   1.00
H171   H     0.63629   0.11165   0.34662   0.00000  Uiso   1.00
H172   H     0.39029   0.00170   0.32857   0.00000  Uiso   1.00
H173   H     0.41157   0.04154   0.29725   0.00000  Uiso   1.00
H174   H     0.43083   0.02997   0.37564   0.00000  Uiso   1.00
H175   H     0.46143   0.06852   0.34461   0.00000  Uiso   1.00
H176   H     0.39745   0.10394   0.35234   0.00000  Uiso   1.00
H177   H     0.40272   0.09779   0.40041   0.00000  Uiso   1.00
H178   H     0.36337   0.06385   0.38077   0.00000  Uiso   1.00
H179   H     0.50472   0.22312   0.05884   0.00000  Uiso   1.00
H180   H     0.53049   0.22704   0.09886   0.00000  Uiso   1.00
H181   H     0.34961   0.18659   0.21257   0.00000  Uiso   1.00
H182   H     0.47853   0.24486   0.10812   0.00000  Uiso   1.00
H183   H     0.62570   0.14873   0.10271   0.00000  Uiso   1.00
H184   H     0.64620   0.10762   0.06306   0.00000  Uiso   1.00
H185   H     0.64332   0.10320   0.11370   0.00000  Uiso   1.00
H186   H     0.34177   0.12690   0.47671   0.00000  Uiso   1.00
H187   H     0.33740   0.15021   0.43427   0.00000  Uiso   1.00
H188   H     0.63296   0.15915   0.48201   0.00000  Uiso   1.00
H189   H     0.39469   0.26636   0.37883   0.00000  Uiso   1.00
H190   H     0.43560   0.26848   0.40335   0.00000  Uiso   1.00
H191   H     0.33774   0.26219   0.44528   0.00000  Uiso   1.00
H192   H     0.53606   0.00184   0.21457   0.00000  Uiso   1.00
H193   H     0.38049   0.27022   0.46925   0.00000  Uiso   1.00
H194   H     0.40610   0.00494   0.44135   0.00000  Uiso   1.00
H195   H     0.35104   0.00344   0.47126   0.00000  Uiso   1.00
H196   H     0.36262   0.33070   0.41786   0.00000  Uiso   1.00
H197   H     0.54540   0.21927   0.45064   0.00000  Uiso   1.00
H198   H     0.53803   0.24283   0.40951   0.00000  Uiso   1.00
H199   H     0.58586   0.21851   0.40392   0.00000  Uiso   1.00
H200   H     0.43729   0.07898   0.05908   0.00000  Uiso   1.00
H201   H     0.38180   0.08498   0.06364   0.00000  Uiso   1.00
H202   H     0.42525   0.09244   0.13140   0.00000  Uiso   1.00
H203   H     0.57953   0.08574   0.46152   0.00000  Uiso   1.00
H204   H     0.37045   0.10178   0.13843   0.00000  Uiso   1.00
H205   H     0.35469   0.02820   0.10927   0.00000  Uiso   1.00
H206   H     0.37540   0.02977   0.15159   0.00000  Uiso   1.00
H207   H     0.40999   0.01881   0.10204   0.00000  Uiso   1.00
H208   H     0.48404   0.06067   0.41527   0.00000  Uiso   1.00
H209   H     0.52589   0.04241   0.43083   0.00000  Uiso   1.00
H210   H     0.53275   0.06270   0.34681   0.00000  Uiso   1.00
H211   H     0.57608   0.04876   0.36259   0.00000  Uiso   1.00
H212   H     0.53637   0.31328   0.37863   0.00000  Uiso   1.00
H213   H     0.54126   0.32070   0.32790   0.00000  Uiso   1.00
H214   H     0.38629   0.23767   0.04269   0.00000  Uiso   1.00
H215   H     0.49091   0.32658   0.36523   0.00000  Uiso   1.00
H216   H     0.38835   0.21446   0.08600   0.00000  Uiso   1.00
H217   H     0.33781   0.22051   0.07819   0.00000  Uiso   1.00
H218   H     0.35034   0.14747   0.33617   0.00000  Uiso   1.00
H219   H     0.34646   0.09794   0.30426   0.00000  Uiso   1.00
O220   O     0.50000   0.16667   0.25000   0.00000  Uiso   1.00
O221   O     0.49027   0.12393   0.16625   0.00000  Uiso   1.00
O222   O     0.46020   0.20646   0.33749   0.00000  Uiso   1.00
O223   O     0.54421   0.17493   0.15877   0.00000  Uiso   1.00
O224   O     0.50532   0.16135   0.33749   0.00000  Uiso   1.00
O225   O     0.36967   0.17304   0.04148   0.00000  Uiso   1.00
O226   O     0.64375   0.14434   0.29923   0.00000  Uiso   1.00
O227   O     0.45345   0.33050   0.29816   0.00000  Uiso   1.00
O228   O     0.47875   0.18106   0.10108   0.00000  Uiso   1.00
O229   O     0.58551   0.09301   0.10070   0.00000  Uiso   1.00
O230   O     0.35898   0.19138   0.47739   0.00000  Uiso   1.00
O231   O     0.51182   0.08101   0.27821   0.00000  Uiso   1.00
O232   O     0.39441   0.21214   0.40191   0.00000  Uiso   1.00
O233   O     0.53229   0.17751   0.40371   0.00000  Uiso   1.00
O234   O     0.41770   0.13953   0.07800   0.00000  Uiso   1.00
O235   O     0.53581   0.10462   0.41680   0.00000  Uiso   1.00
O236   O     0.47914   0.26136   0.26767   0.00000  Uiso   1.00
O237   O     0.40785   0.13251   0.23607   0.00000  Uiso   1.00
O238   O     0.60119   0.19179   0.21806   0.00000  Uiso   1.00
O239   O     0.40323   0.18960   0.27820   0.00000  Uiso   1.00
O240   O     0.58773   0.15277   0.26768   0.00000  Uiso   1.00
O241   O     0.47133   0.06903   0.23607   0.00000  Uiso   1.00
O242   O     0.53771   0.25527   0.21806   0.00000  Uiso   1.00
Zn243  Zn    0.52577   0.14090   0.28278   0.00000  Uiso   1.00
Zn244  Zn    0.46792   0.12378   0.22258   0.00000  Uiso   1.00
Zn245  Zn    0.54500   0.19664   0.21188   0.00000  Uiso   1.00
Zn246  Zn    0.46131   0.20535   0.28277   0.00000  Uiso   1.00
C247   C     0.71929   0.16031   0.25874   0.00000  Uiso   1.00
C248   C     0.86112   0.11737   0.45715   0.00000  Uiso   1.00
C249   C     0.88639   0.10379   0.47788   0.00000  Uiso   1.00
C250   C     0.94759   0.17320   0.24143   0.00000  Uiso   1.00
C251   C     0.87806   0.11348   0.01894   0.00000  Uiso   1.00
C252   C     0.84272   0.13591   0.04028   0.00000  Uiso   1.00
C253   C     0.90409   0.09999   0.03902   0.00000  Uiso   1.00
C254   C     0.89642   0.11005   0.08016   0.00000  Uiso   1.00
C255   C     0.83889   0.15070   0.08083   0.00000  Uiso   1.00
C256   C     0.99319   0.17353   0.23786   0.00000  Uiso   1.00
C257   C     0.67330   0.15762   0.26477   0.00000  Uiso   1.00
C258   C     0.75334   0.19676   0.42062   0.00000  Uiso   1.00
C259   C     0.84474   0.32198   0.23886   0.00000  Uiso   1.00
C260   C     0.81643   0.01278   0.26481   0.00000  Uiso   1.00
C261   C     0.82259   0.05636   0.25915   0.00000  Uiso   1.00
C262   C     0.84308   0.27770   0.24174   0.00000  Uiso   1.00
C263   C     0.85465   0.14530   0.14394   0.00000  Uiso   1.00
C264   C     0.81165   0.18743   0.35656   0.00000  Uiso   1.00
C265   C     0.79585   0.18861   0.40029   0.00000  Uiso   1.00
C266   C     0.86379   0.13544   0.10090   0.00000  Uiso   1.00
C267   C     0.73513   0.18602   0.45936   0.00000  Uiso   1.00
C268   C     0.70451   0.21321   0.06285   0.00000  Uiso   1.00
C269   C     0.82165   0.17504   0.42071   0.00000  Uiso   1.00
C270   C     0.99568   0.12454   0.32221   0.00000  Uiso   1.00
C271   C     0.75313   0.02278   0.31746   0.00000  Uiso   1.00
C272   C     0.76306   0.05028   0.35348   0.00000  Uiso   1.00
C273   C     0.72937   0.08076   0.37289   0.00000  Uiso   1.00
C274   C     0.83281   0.22049   0.09093   0.00000  Uiso   1.00
C275   C     0.96025   0.11441   0.09438   0.00000  Uiso   1.00
C276   C     0.66718   0.15510   0.46682   0.00000  Uiso   1.00
C277   C     0.73490   0.25640   0.40491   0.00000  Uiso   1.00
C278   C     0.70455   0.27628   0.44291   0.00000  Uiso   1.00
C279   C     0.70632   0.32347   0.44320   0.00000  Uiso   1.00
C280   C     0.80316   0.16170   0.45891   0.00000  Uiso   1.00
C281   C     0.88401   0.21637   0.41787   0.00000  Uiso   1.00
C282   C     0.74232   0.09562   0.07685   0.00000  Uiso   1.00
C283   C     0.73042   0.08393   0.11925   0.00000  Uiso   1.00
C284   C     0.71679   0.03723   0.12047   0.00000  Uiso   1.00
C285   C     0.85269   0.06238   0.41055   0.00000  Uiso   1.00
C286   C     0.87397   0.04487   0.36781   0.00000  Uiso   1.00
C287   C     0.85961   0.33184   0.35950   0.00000  Uiso   1.00
C288   C     0.76056   0.17092   0.47969   0.00000  Uiso   1.00
C289   C     0.82678   0.14189   0.47802   0.00000  Uiso   1.00
C290   C     0.81344   0.14390   0.01998   0.00000  Uiso   1.00
C291   C     0.77001   0.14996   0.03981   0.00000  Uiso   1.00
C292   C     0.74439   0.16495   0.02033   0.00000  Uiso   1.00
H293   H     0.92972   0.08081   0.02297   0.00000  Uiso   1.00
H294   H     0.96962   0.11165   0.34662   0.00000  Uiso   1.00
H295   H     0.72363   0.00170   0.32857   0.00000  Uiso   1.00
H296   H     0.74490   0.04154   0.29725   0.00000  Uiso   1.00
H297   H     0.76416   0.02997   0.37564   0.00000  Uiso   1.00
H298   H     0.79477   0.06852   0.34461   0.00000  Uiso   1.00
H299   H     0.73078   0.10394   0.35234   0.00000  Uiso   1.00
H300   H     0.73605   0.09779   0.40041   0.00000  Uiso   1.00
H301   H     0.69670   0.06385   0.38077   0.00000  Uiso   1.00
H302   H     0.83806   0.22312   0.05884   0.00000  Uiso   1.00
H303   H     0.86382   0.22704   0.09886   0.00000  Uiso   1.00
H304   H     0.68294   0.18659   0.21257   0.00000  Uiso   1.00
H305   H     0.81186   0.24486   0.10812   0.00000  Uiso   1.00
H306   H     0.95904   0.14873   0.10271   0.00000  Uiso   1.00
H307   H     0.97953   0.10762   0.06306   0.00000  Uiso   1.00
H308   H     0.97665   0.10320   0.11370   0.00000  Uiso   1.00
H309   H     0.67510   0.12690   0.47671   0.00000  Uiso   1.00
H310   H     0.67074   0.15021   0.43427   0.00000  Uiso   1.00
H311   H     0.96630   0.15915   0.48201   0.00000  Uiso   1.00
H312   H     0.72802   0.26636   0.37883   0.00000  Uiso   1.00
H313   H     0.76894   0.26848   0.40335   0.00000  Uiso   1.00
H314   H     0.67108   0.26219   0.44528   0.00000  Uiso   1.00
H315   H     0.86939   0.00184   0.21457   0.00000  Uiso   1.00
H316   H     0.71382   0.27022   0.46925   0.00000  Uiso   1.00
H317   H     0.73943   0.00494   0.44135   0.00000  Uiso   1.00
H318   H     0.68437   0.00344   0.47126   0.00000  Uiso   1.00
H319   H     0.69595   0.33070   0.41786   0.00000  Uiso   1.00
H320   H     0.87873   0.21927   0.45064   0.00000  Uiso   1.00
H321   H     0.87137   0.24283   0.40951   0.00000  Uiso   1.00
H322   H     0.91919   0.21851   0.40392   0.00000  Uiso   1.00
H323   H     0.77062   0.07898   0.05908   0.00000  Uiso   1.00
H324   H     0.71513   0.08498   0.06364   0.00000  Uiso   1.00
H325   H     0.75858   0.09244   0.13140   0.00000  Uiso   1.00
H326   H     0.91286   0.08574   0.46152   0.00000  Uiso   1.00
H327   H     0.70379   0.10178   0.13843   0.00000  Uiso   1.00
H328   H     0.68802   0.02820   0.10927   0.00000  Uiso   1.00
H329   H     0.70873   0.02977   0.15159   0.00000  Uiso   1.00
H330   H     0.74332   0.01881   0.10204   0.00000  Uiso   1.00
H331   H     0.81737   0.06067   0.41527   0.00000  Uiso   1.00
H332   H     0.85922   0.04241   0.43083   0.00000  Uiso   1.00
H333   H     0.86609   0.06270   0.34681   0.00000  Uiso   1.00
H334   H     0.90941   0.04876   0.36259   0.00000  Uiso   1.00
H335   H     0.86970   0.31328   0.37863   0.00000  Uiso   1.00
H336   H     0.87459   0.32070   0.32790   0.00000  Uiso   1.00
H337   H     0.71962   0.23767   0.04269   0.00000  Uiso   1.00
H338   H     0.82424   0.32658   0.36523   0.00000  Uiso   1.00
H339   H     0.72168   0.21446   0.08600   0.00000  Uiso   1.00
H340   H     0.67115   0.22051   0.07819   0.00000  Uiso   1.00
H341   H     0.68367   0.14747   0.33617   0.00000  Uiso   1.00
H342   H     0.67980   0.09794   0.30426   0.00000  Uiso   1.00
O343   O     0.83333   0.16667   0.25000   0.00000  Uiso   1.00
O344   O     0.82360   0.12393   0.16625   0.00000  Uiso   1.00
O345   O     0.79354   0.20646   0.33749   0.00000  Uiso   1.00
O346   O     0.87755   0.17493   0.15877   0.00000  Uiso   1.00
O347   O     0.83865   0.16135   0.33749   0.00000  Uiso   1.00
O348   O     0.70301   0.17304   0.04148   0.00000  Uiso   1.00
O349   O     0.97708   0.14434   0.29923   0.00000  Uiso   1.00
O350   O     0.78678   0.33050   0.29816   0.00000  Uiso   1.00
O351   O     0.81208   0.18106   0.10108   0.00000  Uiso   1.00
O352   O     0.91884   0.09301   0.10070   0.00000  Uiso   1.00
O353   O     0.69231   0.19138   0.47739   0.00000  Uiso   1.00
O354   O     0.84515   0.08101   0.27821   0.00000  Uiso   1.00
O355   O     0.72774   0.21214   0.40191   0.00000  Uiso   1.00
O356   O     0.86562   0.17751   0.40371   0.00000  Uiso   1.00
O357   O     0.75104   0.13953   0.07800   0.00000  Uiso   1.00
O358   O     0.86915   0.10462   0.41680   0.00000  Uiso   1.00
O359   O     0.81247   0.26136   0.26767   0.00000  Uiso   1.00
O360   O     0.74119   0.13251   0.23607   0.00000  Uiso   1.00
O361   O     0.93452   0.19179   0.21806   0.00000  Uiso   1.00
O362   O     0.73656   0.18960   0.27820   0.00000  Uiso   1.00
O363   O     0.92106   0.15277   0.26768   0.00000  Uiso   1.00
O364   O     0.80467   0.06903   0.23607   0.00000  Uiso   1.00
O365   O     0.87104   0.25527   0.21806   0.00000  Uiso   1.00
Zn366  Zn    0.85910   0.14090   0.28278   0.00000  Uiso   1.00
Zn367  Zn    0.80125   0.12378   0.22258   0.00000  Uiso   1.00
Zn368  Zn    0.87833   0.19664   0.21188   0.00000  Uiso   1.00
Zn369  Zn    0.79465   0.20535   0.28277   0.00000  Uiso   1.00
C370   C     0.05262   0.49365   0.25874   0.00000  Uiso   1.00
C371   C     0.19446   0.45071   0.45715   0.00000  Uiso   1.00
C372   C     0.21972   0.43713   0.47788   0.00000  Uiso   1.00
C373   C     0.28092   0.50654   0.24143   0.00000  Uiso   1.00
C374   C     0.21140   0.44681   0.01894   0.00000  Uiso   1.00
C375   C     0.17605   0.46924   0.04028   0.00000  Uiso   1.00
C376   C     0.23742   0.43333   0.03902   0.00000  Uiso   1.00
C377   C     0.22975   0.44339   0.08016   0.00000  Uiso   1.00
C378   C     0.17222   0.48403   0.08083   0.00000  Uiso   1.00
C379   C     0.32653   0.50686   0.23786   0.00000  Uiso   1.00
C380   C     0.00663   0.49096   0.26477   0.00000  Uiso   1.00
C381   C     0.08667   0.53009   0.42062   0.00000  Uiso   1.00
C382   C     0.17807   0.65531   0.23886   0.00000  Uiso   1.00
C383   C     0.14976   0.34611   0.26481   0.00000  Uiso   1.00
C384   C     0.15593   0.38970   0.25915   0.00000  Uiso   1.00
C385   C     0.17642   0.61103   0.24174   0.00000  Uiso   1.00
C386   C     0.18798   0.47863   0.14394   0.00000  Uiso   1.00
C387   C     0.14498   0.52077   0.35656   0.00000  Uiso   1.00
C388   C     0.12919   0.52194   0.40029   0.00000  Uiso   1.00
C389   C     0.19712   0.46878   0.10090   0.00000  Uiso   1.00
C390   C     0.06847   0.51936   0.45936   0.00000  Uiso   1.00
C391   C     0.03784   0.54654   0.06285   0.00000  Uiso   1.00
C392   C     0.15498   0.50838   0.42071   0.00000  Uiso   1.00
C393   C     0.32901   0.45787   0.32221   0.00000  Uiso   1.00
C394   C     0.08646   0.35612   0.31746   0.00000  Uiso   1.00
C395   C     0.09639   0.38362   0.35348   0.00000  Uiso   1.00
C396   C     0.06270   0.41410   0.37289   0.00000  Uiso   1.00
C397   C     0.16614   0.55382   0.09093   0.00000  Uiso   1.00
C398   C     0.29358   0.44774   0.09438   0.00000  Uiso   1.00
C399   C     0.00051   0.48843   0.46682   0.00000  Uiso   1.00
C400   C     0.06823   0.58973   0.40491   0.00000  Uiso   1.00
C401   C     0.03788   0.60961   0.44291   0.00000  Uiso   1.00
C402   C     0.03966   0.65680   0.44320   0.00000  Uiso   1.00
C403   C     0.13649   0.49503   0.45891   0.00000  Uiso   1.00
C404   C     0.21735   0.54970   0.41787   0.00000  Uiso   1.00
C405   C     0.07565   0.42896   0.07685   0.00000  Uiso   1.00
C406   C     0.06375   0.41726   0.11925   0.00000  Uiso   1.00
C407   C     0.05013   0.37056   0.12047   0.00000  Uiso   1.00
C408   C     0.18602   0.39571   0.41055   0.00000  Uiso   1.00
C409   C     0.20731   0.37820   0.36781   0.00000  Uiso   1.00
C410   C     0.19295   0.66517   0.35950   0.00000  Uiso   1.00
C411   C     0.09389   0.50426   0.47969   0.00000  Uiso   1.00
C412   C     0.16011   0.47522   0.47802   0.00000  Uiso   1.00
C413   C     0.14677   0.47724   0.01998   0.00000  Uiso   1.00
C414   C     0.10334   0.48330   0.03981   0.00000  Uiso   1.00
C415   C     0.07773   0.49828   0.02033   0.00000  Uiso   1.00
H416   H     0.26305   0.41414   0.02297   0.00000  Uiso   1.00
H417   H     0.30295   0.44498   0.34662   0.00000  Uiso   1.00
H418   H     0.05696   0.33504   0.32857   0.00000  Uiso   1.00
H419   H     0.07823   0.37487   0.29725   0.00000  Uiso   1.00
H420   H     0.09749   0.36330   0.37564   0.00000  Uiso   1.00
H421   H     0.12810   0.40185   0.34461   0.00000  Uiso   1.00
H422   H     0.06411   0.43728   0.35234   0.00000  Uiso   1.00
H423   H     0.06939   0.43112   0.40041   0.00000  Uiso   1.00
H424   H     0.03003   0.39719   0.38077   0.00000  Uiso   1.00
H425   H     0.17139   0.55645   0.05884   0.00000  Uiso   1.00
H426   H     0.19716   0.56037   0.09886   0.00000  Uiso   1.00
H427   H     0.01628   0.51993   0.21257   0.00000  Uiso   1.00
H428   H     0.14520   0.57820   0.10812   0.00000  Uiso   1.00
H429   H     0.29237   0.48206   0.10271   0.00000  Uiso   1.00
H430   H     0.31287   0.44095   0.06306   0.00000  Uiso   1.00
H431   H     0.30998   0.43654   0.11370   0.00000  Uiso   1.00
H432   H     0.00843   0.46023   0.47671   0.00000  Uiso   1.00
H433   H     0.00407   0.48354   0.43427   0.00000  Uiso   1.00
H434   H     0.29963   0.49249   0.48201   0.00000  Uiso   1.00
H435   H     0.06135   0.59970   0.37883   0.00000  Uiso   1.00
H436   H     0.10227   0.60181   0.40335   0.00000  Uiso   1.00
H437   H     0.00441   0.59552   0.44528   0.00000  Uiso   1.00
H438   H     0.20272   0.33518   0.21457   0.00000  Uiso   1.00
H439   H     0.04716   0.60356   0.46925   0.00000  Uiso   1.00
H440   H     0.07277   0.33827   0.44135   0.00000  Uiso   1.00
H441   H     0.01771   0.33677   0.47126   0.00000  Uiso   1.00
H442   H     0.02928   0.66403   0.41786   0.00000  Uiso   1.00
H443   H     0.21206   0.55261   0.45064   0.00000  Uiso   1.00
H444   H     0.20470   0.57616   0.40951   0.00000  Uiso   1.00
H445   H     0.25253   0.55185   0.40392   0.00000  Uiso   1.00
H446   H     0.10396   0.41231   0.05908   0.00000  Uiso   1.00
H447   H     0.04846   0.41831   0.06364   0.00000  Uiso   1.00
H448   H     0.09192   0.42578   0.13140   0.00000  Uiso   1.00
H449   H     0.24619   0.41907   0.46152   0.00000  Uiso   1.00
H450   H     0.03712   0.43512   0.13843   0.00000  Uiso   1.00
H451   H     0.02136   0.36153   0.10927   0.00000  Uiso   1.00
H452   H     0.04206   0.36311   0.15159   0.00000  Uiso   1.00
H453   H     0.07666   0.35215   0.10204   0.00000  Uiso   1.00
H454   H     0.15070   0.39400   0.41527   0.00000  Uiso   1.00
H455   H     0.19256   0.37574   0.43083   0.00000  Uiso   1.00
H456   H     0.19942   0.39603   0.34681   0.00000  Uiso   1.00
H457   H     0.24275   0.38209   0.36259   0.00000  Uiso   1.00
H458   H     0.20304   0.64662   0.37863   0.00000  Uiso   1.00
H459   H     0.20792   0.65403   0.32790   0.00000  Uiso   1.00
H460   H     0.05295   0.57100   0.04269   0.00000  Uiso   1.00
H461   H     0.15757   0.65991   0.36523   0.00000  Uiso   1.00
H462   H     0.05502   0.54779   0.08600   0.00000  Uiso   1.00
H463   H     0.00448   0.55385   0.07819   0.00000  Uiso   1.00
H464   H     0.01700   0.48080   0.33617   0.00000  Uiso   1.00
H465   H     0.01313   0.43127   0.30426   0.00000  Uiso   1.00
O466   O     0.16667   0.50000   0.25000   0.00000  Uiso   1.00
O467   O     0.15693   0.45726   0.16625   0.00000  Uiso   1.00
O468   O     0.12687   0.53979   0.33749   0.00000  Uiso   1.00
O469   O     0.21088   0.50826   0.15877   0.00000  Uiso   1.00
O470   O     0.17198   0.49468   0.33749   0.00000  Uiso   1.00
O471   O     0.03634   0.50637   0.04148   0.00000  Uiso   1.00
O472   O     0.31041   0.47767   0.29923   0.00000  Uiso   1.00
O473   O     0.12012   0.66383   0.29816   0.00000  Uiso   1.00
O474   O     0.14542   0.51439   0.10108   0.00000  Uiso   1.00
O475   O     0.25218   0.42634   0.10070   0.00000  Uiso   1.00
O476   O     0.02564   0.52471   0.47739   0.00000  Uiso   1.00
O477   O     0.17849   0.41434   0.27821   0.00000  Uiso   1.00
O478   O     0.06107   0.54547   0.40191   0.00000  Uiso   1.00
O479   O     0.19896   0.51085   0.40371   0.00000  Uiso   1.00
O480   O     0.08437   0.47286   0.07800   0.00000  Uiso   1.00
O481   O     0.20248   0.43795   0.41680   0.00000  Uiso   1.00
O482   O     0.14581   0.59469   0.26767   0.00000  Uiso   1.00
O483   O     0.07452   0.46584   0.23607   0.00000  Uiso   1.00
O484   O     0.26785   0.52512   0.21806   0.00000  Uiso   1.00
O485   O     0.06990   0.52293   0.27820   0.00000  Uiso   1.00
O486   O     0.25440   0.48610   0.26768   0.00000  Uiso   1.00
O487   O     0.13800   0.40236   0.23607   0.00000  Uiso   1.00
O488   O     0.20437   0.58860   0.21806   0.00000  Uiso   1.00
Zn489  Zn    0.19244   0.47423   0.28278   0.00000  Uiso   1.00
Zn490  Zn    0.13459   0.45711   0.22258   0.00000  Uiso   1.00
Zn491  Zn    0.21166   0.52997   0.21188   0.00000  Uiso   1.00
Zn492  Zn    0.12798   0.53868   0.28277   0.00000  Uiso   1.00
C493   C     0.38595   0.49365   0.25874   0.00000  Uiso   1.00
C494   C     0.52779   0.45071   0.45715   0.00000  Uiso   1.00
C495   C     0.55306   0.43713   0.47788   0.00000  Uiso   1.00
C496   C     0.61426   0.50654   0.24143   0.00000  Uiso   1.00
C497   C     0.54473   0.44681   0.01894   0.00000  Uiso   1.00
C498   C     0.50939   0.46924   0.04028   0.00000  Uiso   1.00
C499   C     0.57075   0.43333   0.03902   0.00000  Uiso   1.00
C500   C     0.56309   0.44339   0.08016   0.00000  Uiso   1.00
C501   C     0.50555   0.48403   0.08083   0.00000  Uiso   1.00
C502   C     0.65986   0.50686   0.23786   0.00000  Uiso   1.00
C503   C     0.33997   0.49096   0.26477   0.00000  Uiso   1.00
C504   C     0.42000   0.53009   0.42062   0.00000  Uiso   1.00
C505   C     0.51141   0.65531   0.23886   0.00000  Uiso   1.00
C506   C     0.48309   0.34611   0.26481   0.00000  Uiso   1.00
C507   C     0.48926   0.38970   0.25915   0.00000  Uiso   1.00
C508   C     0.50975   0.61103   0.24174   0.00000  Uiso   1.00
C509   C     0.52131   0.47863   0.14394   0.00000  Uiso   1.00
C510   C     0.47831   0.52077   0.35656   0.00000  Uiso   1.00
C511   C     0.46252   0.52194   0.40029   0.00000  Uiso   1.00
C512   C     0.53046   0.46878   0.10090   0.00000  Uiso   1.00
C513   C     0.40180   0.51936   0.45936   0.00000  Uiso   1.00
C514   C     0.37118   0.54654   0.06285   0.00000  Uiso   1.00
C515   C     0.48832   0.50838   0.42071   0.00000  Uiso   1.00
C516   C     0.66234   0.45787   0.32221   0.00000  Uiso   1.00
C517   C     0.41980   0.35612   0.31746   0.00000  Uiso   1.00
C518   C     0.42972   0.38362   0.35348   0.00000  Uiso   1.00
C519   C     0.39604   0.41410   0.37289   0.00000  Uiso   1.00
C520   C     0.49948   0.55382   0.09093   0.00000  Uiso   1.00
C521   C     0.62692   0.44774   0.09438   0.00000  Uiso   1.00
C522   C     0.33385   0.48843   0.46682   0.00000  Uiso   1.00
C523   C     0.40157   0.58973   0.40491   0.00000  Uiso   1.00
C524   C     0.37122   0.60961   0.44291   0.00000  Uiso   1.00
C525   C     0.37299   0.65680   0.44320   0.00000  Uiso   1.00
C526   C     0.46982   0.49503   0.45891   0.00000  Uiso   1.00
C527   C     0.55068   0.54970   0.41787   0.00000  Uiso   1.00
C528   C     0.40899   0.42896   0.07685   0.00000  Uiso   1.00
C529   C     0.39708   0.41726   0.11925   0.00000  Uiso   1.00
C530   C     0.38346   0.37056   0.12047   0.00000  Uiso   1.00
C531   C     0.51936   0.39571   0.41055   0.00000  Uiso   1.00
C532   C     0.54064   0.37820   0.36781   0.00000  Uiso   1.00
C533   C     0.52628   0.66517   0.35950   0.00000  Uiso   1.00
C534   C     0.42723   0.50426   0.47969   0.00000  Uiso   1.00
C535   C     0.49345   0.47522   0.47802   0.00000  Uiso   1.00
C536   C     0.48011   0.47724   0.01998   0.00000  Uiso   1.00
C537   C     0.43668   0.48330   0.03981   0.00000  Uiso   1.00
C538   C     0.41106   0.49828   0.02033   0.00000  Uiso   1.00
H539   H     0.59638   0.41414   0.02297   0.00000  Uiso   1.00
H540   H     0.63629   0.44498   0.34662   0.00000  Uiso   1.00
H541   H     0.39029   0.33504   0.32857   0.00000  Uiso   1.00
H542   H     0.41157   0.37487   0.29725   0.00000  Uiso   1.00
H543   H     0.43083   0.36330   0.37564   0.00000  Uiso   1.00
H544   H     0.46143   0.40185   0.34461   0.00000  Uiso   1.00
H545   H     0.39745   0.43728   0.35234   0.00000  Uiso   1.00
H546   H     0.40272   0.43112   0.40041   0.00000  Uiso   1.00
H547   H     0.36337   0.39719   0.38077   0.00000  Uiso   1.00
H548   H     0.50472   0.55645   0.05884   0.00000  Uiso   1.00
H549   H     0.53049   0.56037   0.09886   0.00000  Uiso   1.00
H550   H     0.34961   0.51993   0.21257   0.00000  Uiso   1.00
H551   H     0.47853   0.57820   0.10812   0.00000  Uiso   1.00
H552   H     0.62570   0.48206   0.10271   0.00000  Uiso   1.00
H553   H     0.64620   0.44095   0.06306   0.00000  Uiso   1.00
H554   H     0.64332   0.43654   0.11370   0.00000  Uiso   1.00
H555   H     0.34177   0.46023   0.47671   0.00000  Uiso   1.00
H556   H     0.33740   0.48354   0.43427   0.00000  Uiso   1.00
H557   H     0.63296   0.49249   0.48201   0.00000  Uiso   1.00
H558   H     0.39469   0.59970   0.37883   0.00000  Uiso   1.00
H559   H     0.43560   0.60181   0.40335   0.00000  Uiso   1.00
H560   H     0.33774   0.59552   0.44528   0.00000  Uiso   1.00
H561   H     0.53606   0.33518   0.21457   0.00000  Uiso   1.00
H562   H     0.38049   0.60356   0.46925   0.00000  Uiso   1.00
H563   H     0.40610   0.33827   0.44135   0.00000  Uiso   1.00
H564   H     0.35104   0.33677   0.47126   0.00000  Uiso   1.00
H565   H     0.36262   0.66403   0.41786   0.00000  Uiso   1.00
H566   H     0.54540   0.55261   0.45064   0.00000  Uiso   1.00
H567   H     0.53803   0.57616   0.40951   0.00000  Uiso   1.00
H568   H     0.58586   0.55185   0.40392   0.00000  Uiso   1.00
H569   H     0.43729   0.41231   0.05908   0.00000  Uiso   1.00
H570   H     0.38180   0.41831   0.06364   0.00000  Uiso   1.00
H571   H     0.42525   0.42578   0.13140   0.00000  Uiso   1.00
H572   H     0.57953   0.41907   0.46152   0.00000  Uiso   1.00
H573   H     0.37045   0.43512   0.13843   0.00000  Uiso   1.00
H574   H     0.35469   0.36153   0.10927   0.00000  Uiso   1.00
H575   H     0.37540   0.36311   0.15159   0.00000  Uiso   1.00
H576   H     0.40999   0.35215   0.10204   0.00000  Uiso   1.00
H577   H     0.48404   0.39400   0.41527   0.00000  Uiso   1.00
H578   H     0.52589   0.37574   0.43083   0.00000  Uiso   1.00
H579   H     0.53275   0.39603   0.34681   0.00000  Uiso   1.00
H580   H     0.57608   0.38209   0.36259   0.00000  Uiso   1.00
H581   H     0.53637   0.64662   0.37863   0.00000  Uiso   1.00
H582   H     0.54126   0.65403   0.32790   0.00000  Uiso   1.00
H583   H     0.38629   0.57100   0.04269   0.00000  Uiso   1.00
H584   H     0.49091   0.65991   0.36523   0.00000  Uiso   1.00
H585   H     0.38835   0.54779   0.08600   0.00000  Uiso   1.00
H586   H     0.33781   0.55385   0.07819   0.00000  Uiso   1.00
H587   H     0.35034   0.48080   0.33617   0.00000  Uiso   1.00
H588   H     0.34646   0.43127   0.30426   0.00000  Uiso   1.00
O589   O     0.50000   0.50000   0.25000   0.00000  Uiso   1.00
O590   O     0.49027   0.45726   0.16625   0.00000  Uiso   1.00
O591   O     0.46020   0.53979   0.33749   0.00000  Uiso   1.00
O592   O     0.54421   0.50826   0.15877   0.00000  Uiso   1.00
O593   O     0.50532   0.49468   0.33749   0.00000  Uiso   1.00
O594   O     0.36967   0.50637   0.04148   0.00000  Uiso   1.00
O595   O     0.64375   0.47767   0.29923   0.00000  Uiso   1.00
O596   O     0.45345   0.66383   0.29816   0.00000  Uiso   1.00
O597   O     0.47875   0.51439   0.10108   0.00000  Uiso   1.00
O598   O     0.58551   0.42634   0.10070   0.00000  Uiso   1.00
O599   O     0.35898   0.52471   0.47739   0.00000  Uiso   1.00
O600   O     0.51182   0.41434   0.27821   0.00000  Uiso   1.00
O601   O     0.39441   0.54547   0.40191   0.00000  Uiso   1.00
O602   O     0.53229   0.51085   0.40371   0.00000  Uiso   1.00
O603   O     0.41770   0.47286   0.07800   0.00000  Uiso   1.00
O604   O     0.53581   0.43795   0.41680   0.00000  Uiso   1.00
O605   O     0.47914   0.59469   0.26767   0.00000  Uiso   1.00
O606   O     0.40785   0.46584   0.23607   0.00000  Uiso   1.00
O607   O     0.60119   0.52512   0.21806   0.00000  Uiso   1.00
O608   O     0.40323   0.52293   0.27820   0.00000  Uiso   1.00
O609   O     0.58773   0.48610   0.26768   0.00000  Uiso   1.00
O610   O     0.47133   0.40236   0.23607   0.00000  Uiso   1.00
O611   O     0.53771   0.58860   0.21806   0.00000  Uiso   1.00
Zn612  Zn    0.52577   0.47423   0.28278   0.00000  Uiso   1.00
Zn613  Zn    0.46792   0.45711   0.22258   0.00000  Uiso   1.00
Zn614  Zn    0.54500   0.52997   0.21188   0.00000  Uiso   1.00
Zn615  Zn    0.46131   0.53868   0.28277   0.00000  Uiso   1.00
C616   C     0.71929   0.49365   0.25874   0.00000  Uiso   1.00
C617   C     0.86112   0.45071   0.45715   0.00000  Uiso   1.00
C618   C     0.88639   0.43713   0.47788   0.00000  Uiso   1.00
C619   C     0.94759   0.50654   0.24143   0.00000  Uiso   1.00
C620   C     0.87806   0.44681   0.01894   0.00000  Uiso   1.00
C621   C     0.84272   0.46924   0.04028   0.00000  Uiso   1.00
C622   C     0.90409   0.43333   0.03902   0.00000  Uiso   1.00
C623   C     0.89642   0.44339   0.08016   0.00000  Uiso   1.00
C624   C     0.83889   0.48403   0.08083   0.00000  Uiso   1.00
C625   C     0.99319   0.50686   0.23786   0.00000  Uiso   1.00
C626   C     0.67330   0.49096   0.26477   0.00000  Uiso   1.00
C627   C     0.75334   0.53009   0.42062   0.00000  Uiso   1.00
C628   C     0.84474   0.65531   0.23886   0.00000  Uiso   1.00
C629   C     0.81643   0.34611   0.26481   0.00000  Uiso   1.00
C630   C     0.82259   0.38970   0.25915   0.00000  Uiso   1.00
C631   C     0.84308   0.61103   0.24174   0.00000  Uiso   1.00
C632   C     0.85465   0.47863   0.14394   0.00000  Uiso   1.00
C633   C     0.81165   0.52077   0.35656   0.00000  Uiso   1.00
C634   C     0.79585   0.52194   0.40029   0.00000  Uiso   1.00
C635   C     0.86379   0.46878   0.10090   0.00000  Uiso   1.00
C636   C     0.73513   0.51936   0.45936   0.00000  Uiso   1.00
C637   C     0.70451   0.54654   0.06285   0.00000  Uiso   1.00
C638   C     0.82165   0.50838   0.42071   0.00000  Uiso   1.00
C639   C     0.99568   0.45787   0.32221   0.00000  Uiso   1.00
C640   C     0.75313   0.35612   0.31746   0.00000  Uiso   1.00
C641   C     0.76306   0.38362   0.35348   0.00000  Uiso   1.00
C642   C     0.72937   0.41410   0.37289   0.00000  Uiso   1.00
C643   C     0.83281   0.55382   0.09093   0.00000  Uiso   1.00
C644   C     0.96025   0.44774   0.09438   0.00000  Uiso   1.00
C645   C     0.66718   0.48843   0.46682   0.00000  Uiso   1.00
C646   C     0.73490   0.58973   0.40491   0.00000  Uiso   1.00
C647   C     0.70455   0.60961   0.44291   0.00000  Uiso   1.00
C648   C     0.70632   0.65680   0.44320   0.00000  Uiso   1.00
C649   C     0.80316   0.49503   0.45891   0.00000  Uiso   1.00
C650   C     0.88401   0.54970   0.41787   0.00000  Uiso   1.00
C651   C     0.74232   0.42896   0.07685   0.00000  Uiso   1.00
C652   C     0.73042   0.41726   0.11925   0.00000  Uiso   1.00
C653   C     0.71679   0.37056   0.12047   0.00000  Uiso   1.00
C654   C     0.85269   0.39571   0.41055   0.00000  Uiso   1.00
C655   C     0.87397   0.37820   0.36781   0.00000  Uiso   1.00
C656   C     0.85961   0.66517   0.35950   0.00000  Uiso   1.00
C657   C     0.76056   0.50426   0.47969   0.00000  Uiso   1.00
C658   C     0.82678   0.47522   0.47802   0.00000  Uiso   1.00
C659   C     0.81344   0.47724   0.01998   0.00000  Uiso   1.00
C660   C     0.77001   0.48330   0.03981   0.00000  Uiso   1.00
C661   C     0.74439   0.49828   0.02033   0.00000  Uiso   1.00
H662   H     0.92972   0.41414   0.02297   0.00000  Uiso   1.00
H663   H     0.96962   0.44498   0.34662   0.00000  Uiso   1.00
H664   H     0.72363   0.33504   0.32857   0.00000  Uiso   1.00
H665   H     0.74490   0.37487   0.29725   0.00000  Uiso   1.00
H666   H     0.76416   0.36330   0.37564   0.00000  Uiso   1.00
H667   H     0.79477   0.40185   0.34461   0.00000  Uiso   1.00
H668   H     0.73078   0.43728   0.35234   0.00000  Uiso   1.00
H669   H     0.73605   0.43112   0.40041   0.00000  Uiso   1.00
H670   H     0.69670   0.39719   0.38077   0.00000  Uiso   1.00
H671   H     0.83806   0.55645   0.05884   0.00000  Uiso   1.00
H672   H     0.86382   0.56037   0.09886   0.00000  Uiso   1.00
H673   H     0.68294   0.51993   0.21257   0.00000  Uiso   1.00
H674   H     0.81186   0.57820   0.10812   0.00000  Uiso   1.00
H675   H     0.95904   0.48206   0.10271   0.00000  Uiso   1.00
H676   H     0.97953   0.44095   0.06306   0.00000  Uiso   1.00
H677   H     0.97665   0.43654   0.11370   0.00000  Uiso   1.00
H678   H     0.67510   0.46023   0.47671   0.00000  Uiso   1.00
H679   H     0.67074   0.48354   0.43427   0.00000  Uiso   1.00
H680   H     0.96630   0.49249   0.48201   0.00000  Uiso   1.00
H681   H     0.72802   0.59970   0.37883   0.00000  Uiso   1.00
H682   H     0.76894   0.60181   0.40335   0.00000  Uiso   1.00
H683   H     0.67108   0.59552   0.44528   0.00000  Uiso   1.00
H684   H     0.86939   0.33518   0.21457   0.00000  Uiso   1.00
H685   H     0.71382   0.60356   0.46925   0.00000  Uiso   1.00
H686   H     0.73943   0.33827   0.44135   0.00000  Uiso   1.00
H687   H     0.68437   0.33677   0.47126   0.00000  Uiso   1.00
H688   H     0.69595   0.66403   0.41786   0.00000  Uiso   1.00
H689   H     0.87873   0.55261   0.45064   0.00000  Uiso   1.00
H690   H     0.87137   0.57616   0.40951   0.00000  Uiso   1.00
H691   H     0.91919   0.55185   0.40392   0.00000  Uiso   1.00
H692   H     0.77062   0.41231   0.05908   0.00000  Uiso   1.00
H693   H     0.71513   0.41831   0.06364   0.00000  Uiso   1.00
H694   H     0.75858   0.42578   0.13140   0.00000  Uiso   1.00
H695   H     0.91286   0.41907   0.46152   0.00000  Uiso   1.00
H696   H     0.70379   0.43512   0.13843   0.00000  Uiso   1.00
H697   H     0.68802   0.36153   0.10927   0.00000  Uiso   1.00
H698   H     0.70873   0.36311   0.15159   0.00000  Uiso   1.00
H699   H     0.74332   0.35215   0.10204   0.00000  Uiso   1.00
H700   H     0.81737   0.39400   0.41527   0.00000  Uiso   1.00
H701   H     0.85922   0.37574   0.43083   0.00000  Uiso   1.00
H702   H     0.86609   0.39603   0.34681   0.00000  Uiso   1.00
H703   H     0.90941   0.38209   0.36259   0.00000  Uiso   1.00
H704   H     0.86970   0.64662   0.37863   0.00000  Uiso   1.00
H705   H     0.87459   0.65403   0.32790   0.00000  Uiso   1.00
H706   H     0.71962   0.57100   0.04269   0.00000  Uiso   1.00
H707   H     0.82424   0.65991   0.36523   0.00000  Uiso   1.00
H708   H     0.72168   0.54779   0.08600   0.00000  Uiso   1.00
H709   H     0.67115   0.55385   0.07819   0.00000  Uiso   1.00
H710   H     0.68367   0.48080   0.33617   0.00000  Uiso   1.00
H711   H     0.67980   0.43127   0.30426   0.00000  Uiso   1.00
O712   O     0.83333   0.50000   0.25000   0.00000  Uiso   1.00
O713   O     0.82360   0.45726   0.16625   0.00000  Uiso   1.00
O714   O     0.79354   0.53979   0.33749   0.00000  Uiso   1.00
O715   O     0.87755   0.50826   0.15877   0.00000  Uiso   1.00
O716   O     0.83865   0.49468   0.33749   0.00000  Uiso   1.00
O717   O     0.70301   0.50637   0.04148   0.00000  Uiso   1.00
O718   O     0.97708   0.47767   0.29923   0.00000  Uiso   1.00
O719   O     0.78678   0.66383   0.29816   0.00000  Uiso   1.00
O720   O     0.81208   0.51439   0.10108   0.00000  Uiso   1.00
O721   O     0.91884   0.42634   0.10070   0.00000  Uiso   1.00
O722   O     0.69231   0.52471   0.47739   0.00000  Uiso   1.00
O723   O     0.84515   0.41434   0.27821   0.00000  Uiso   1.00
O724   O     0.72774   0.54547   0.40191   0.00000  Uiso   1.00
O725   O     0.86562   0.51085   0.40371   0.00000  Uiso   1.00
O726   O     0.75104   0.47286   0.07800   0.00000  Uiso   1.00
O727   O     0.86915   0.43795   0.41680   0.00000  Uiso   1.00
O728   O     0.81247   0.59469   0.26767   0.00000  Uiso   1.00
O729   O     0.74119   0.46584   0.23607   0.00000  Uiso   1.00
O730   O     0.93452   0.52512   0.21806   0.00000  Uiso   1.00
O731   O     0.73656   0.52293   0.27820   0.00000  Uiso   1.00
O732   O     0.92106   0.48610   0.26768   0.00000  Uiso   1.00
O733   O     0.80467   0.40236   0.23607   0.00000  Uiso   1.00
O734   O     0.87104   0.58860   0.21806   0.00000  Uiso   1.00
Zn735  Zn    0.85910   0.47423   0.28278   0.00000  Uiso   1.00
Zn736  Zn    0.80125   0.45711   0.22258   0.00000  Uiso   1.00
Zn737  Zn    0.87833   0.52997   0.21188   0.00000  Uiso   1.00
Zn738  Zn    0.79465   0.53868   0.28277   0.00000  Uiso   1.00
C739   C     0.05262   0.82698   0.25874   0.00000  Uiso   1.00
C740   C     0.19446   0.78404   0.45715   0.00000  Uiso   1.00
C741   C     0.21972   0.77046   0.47788   0.00000  Uiso   1.00
C742   C     0.28092   0.83987   0.24143   0.00000  Uiso   1.00
C743   C     0.21140   0.78014   0.01894   0.00000  Uiso   1.00
C744   C     0.17605   0.80257   0.04028   0.00000  Uiso   1.00
C745   C     0.23742   0.76666   0.03902   0.00000  Uiso   1.00
C746   C     0.22975   0.77672   0.08016   0.00000  Uiso   1.00
C747   C     0.17222   0.81736   0.08083   0.00000  Uiso   1.00
C748   C     0.32653   0.84019   0.23786   0.00000  Uiso   1.00
C749   C     0.00663   0.82429   0.26477   0.00000  Uiso   1.00
C750   C     0.08667   0.86343   0.42062   0.00000  Uiso   1.00
C751   C     0.17807   0.98865   0.23886   0.00000  Uiso   1.00
C752   C     0.14976   0.67944   0.26481   0.00000  Uiso   1.00
C753   C     0.15593   0.72303   0.25915   0.00000  Uiso   1.00
C754   C     0.17642   0.94436   0.24174   0.00000  Uiso   1.00
C755   C     0.18798   0.81196   0.14394   0.00000  Uiso   1.00
C756   C     0.14498   0.85410   0.35656   0.00000  Uiso   1.00
C757   C     0.12919   0.85528   0.40029   0.00000  Uiso   1.00
C758   C     0.19712   0.80211   0.10090   0.00000  Uiso   1.00
C759   C     0.06847   0.85269   0.45936   0.00000  Uiso   1.00
C760   C     0.03784   0.87987   0.06285   0.00000  Uiso   1.00
C761   C     0.15498   0.84171   0.42071   0.00000  Uiso   1.00
C762   C     0.32901   0.79120   0.32221   0.00000  Uiso   1.00
C763   C     0.08646   0.68945   0.31746   0.00000  Uiso   1.00
C764   C     0.09639   0.71695   0.35348   0.00000  Uiso   1.00
C765   C     0.06270   0.74743   0.37289   0.00000  Uiso   1.00
C766   C     0.16614   0.88716   0.09093   0.00000  Uiso   1.00
C767   C     0.29358   0.78107   0.09438   0.00000  Uiso   1.00
C768   C     0.00051   0.82176   0.46682   0.00000  Uiso   1.00
C769   C     0.06823   0.92306   0.40491   0.00000  Uiso   1.00
C770   C     0.03788   0.94294   0.44291   0.00000  Uiso   1.00
C771   C     0.03966   0.99013   0.44320   0.00000  Uiso   1.00
C772   C     0.13649   0.82837   0.45891   0.00000  Uiso   1.00
C773   C     0.21735   0.88303   0.41787   0.00000  Uiso   1.00
C774   C     0.07565   0.76229   0.07685   0.00000  Uiso   1.00
C775   C     0.06375   0.75060   0.11925   0.00000  Uiso   1.00
C776   C     0.05013   0.70390   0.12047   0.00000  Uiso   1.00
C777   C     0.18602   0.72904   0.41055   0.00000  Uiso   1.00
C778   C     0.20731   0.71153   0.36781   0.00000  Uiso   1.00
C779   C     0.19295   0.99851   0.35950   0.00000  Uiso   1.00
C780   C     0.09389   0.83759   0.47969   0.00000  Uiso   1.00
C781   C     0.16011   0.80856   0.47802   0.00000  Uiso   1.00
C782   C     0.14677   0.81057   0.01998   0.00000  Uiso   1.00
C783   C     0.10334   0.81663   0.03981   0.00000  Uiso   1.00
C784   C     0.07773   0.83161   0.02033   0.00000  Uiso   1.00
H785   H     0.26305   0.74748   0.02297   0.00000  Uiso   1.00
H786   H     0.30295   0.77832   0.34662   0.00000  Uiso   1.00
H787   H     0.05696   0.66837   0.32857   0.00000  Uiso   1.00
H788   H     0.07823   0.70821   0.29725   0.00000  Uiso   1.00
H789   H     0.09749   0.69664   0.37564   0.00000  Uiso   1.00
H790   H     0.12810   0.73519   0.34461   0.00000  Uiso   1.00
H791   H     0.06411   0.77061   0.35234   0.00000  Uiso   1.00
H792   H     0.06939   0.76445   0.40041   0.00000  Uiso   1.00
H793   H     0.03003   0.73052   0.38077   0.00000  Uiso   1.00
H794   H     0.17139   0.88979   0.05884   0.00000  Uiso   1.00
H795   H     0.19716   0.89371   0.09886   0.00000  Uiso   1.00
H796   H     0.01628   0.85326   0.21257   0.00000  Uiso   1.00
H797   H     0.14520   0.91153   0.10812   0.00000  Uiso   1.00
H798   H     0.29237   0.81540   0.10271   0.00000  Uiso   1.00
H799   H     0.31287   0.77429   0.06306   0.00000  Uiso   1.00
H800   H     0.30998   0.76987   0.11370   0.00000  Uiso   1.00
H801   H     0.00843   0.79357   0.47671   0.00000  Uiso   1.00
H802   H     0.00407   0.81688   0.43427   0.00000  Uiso   1.00
H803   H     0.29963   0.82582   0.48201   0.00000  Uiso   1.00
H804   H     0.06135   0.93303   0.37883   0.00000  Uiso   1.00
H805   H     0.10227   0.93515   0.40335   0.00000  Uiso   1.00
H806   H     0.00441   0.92886   0.44528   0.00000  Uiso   1.00
H807   H     0.20272   0.66851   0.21457   0.00000  Uiso   1.00
H808   H     0.04716   0.93689   0.46925   0.00000  Uiso   1.00
H809   H     0.07277   0.67160   0.44135   0.00000  Uiso   1.00
H810   H     0.01771   0.67011   0.47126   0.00000  Uiso   1.00
H811   H     0.02928   0.99736   0.41786   0.00000  Uiso   1.00
H812   H     0.21206   0.88594   0.45064   0.00000  Uiso   1.00
H813   H     0.20470   0.90949   0.40951   0.00000  Uiso   1.00
H814   H     0.25253   0.88518   0.40392   0.00000  Uiso   1.00
H815   H     0.10396   0.74564   0.05908   0.00000  Uiso   1.00
H816   H     0.04846   0.75165   0.06364   0.00000  Uiso   1.00
H817   H     0.09192   0.75911   0.13140   0.00000  Uiso   1.00
H818   H     0.24619   0.75240   0.46152   0.00000  Uiso   1.00
H819   H     0.03712   0.76845   0.13843   0.00000  Uiso   1.00
H820   H     0.02136   0.69487   0.10927   0.00000  Uiso   1.00
H821   H     0.04206   0.69644   0.15159   0.00000  Uiso   1.00
H822   H     0.07666   0.68548   0.10204   0.00000  Uiso   1.00
H823   H     0.15070   0.72734   0.41527   0.00000  Uiso   1.00
H824   H     0.19256   0.70907   0.43083   0.00000  Uiso   1.00
H825   H     0.19942   0.72937   0.34681   0.00000  Uiso   1.00
H826   H     0.24275   0.71542   0.36259   0.00000  Uiso   1.00
H827   H     0.20304   0.97995   0.37863   0.00000  Uiso   1.00
H828   H     0.20792   0.98736   0.32790   0.00000  Uiso   1.00
H829   H     0.05295   0.90434   0.04269   0.00000  Uiso   1.00
H830   H     0.15757   0.99324   0.36523   0.00000  Uiso   1.00
H831   H     0.05502   0.88112   0.08600   0.00000  Uiso   1.00
H832   H     0.00448   0.88718   0.07819   0.00000  Uiso   1.00
H833   H     0.01700   0.81414   0.33617   0.00000  Uiso   1.00
H834   H     0.01313   0.76461   0.30426   0.00000  Uiso   1.00
O835   O     0.16667   0.83333   0.25000   0.00000  Uiso   1.00
O836   O     0.15693   0.79060   0.16625   0.00000  Uiso   1.00
O837   O     0.12687   0.87313   0.33749   0.00000  Uiso   1.00
O838   O     0.21088   0.84159   0.15877   0.00000  Uiso   1.00
O839   O     0.17198   0.82802   0.33749   0.00000  Uiso   1.00
O840   O     0.03634   0.83970   0.04148   0.00000  Uiso   1.00
O841   O     0.31041   0.81101   0.29923   0.00000  Uiso   1.00
O842   O     0.12012   0.99717   0.29816   0.00000  Uiso   1.00
O843   O     0.14542   0.84773   0.10108   0.00000  Uiso   1.00
O844   O     0.25218   0.75967   0.10070   0.00000  Uiso   1.00
O845   O     0.02564   0.85804   0.47739   0.00000  Uiso   1.00
O846   O     0.17849   0.74768   0.27821   0.00000  Uiso   1.00
O847   O     0.06107   0.87881   0.40191   0.00000  Uiso   1.00
O848   O     0.19896   0.84418   0.40371   0.00000  Uiso   1.00
O849   O     0.08437   0.80619   0.07800   0.00000  Uiso   1.00
O850   O     0.20248   0.77129   0.41680   0.00000  Uiso   1.00
O851   O     0.14581   0.92803   0.26767   0.00000  Uiso   1.00
O852   O     0.07452   0.79917   0.23607   0.00000  Uiso   1.00
O853   O     0.26785   0.85845   0.21806   0.00000  Uiso   1.00
O854   O     0.06990   0.85627   0.27820   0.00000  Uiso   1.00
O855   O     0.25440   0.81944   0.26768   0.00000  Uiso   1.00
O856   O     0.13800   0.73570   0.23607   0.00000  Uiso   1.00
O857   O     0.20437   0.92193   0.21806   0.00000  Uiso   1.00
Zn858  Zn    0.19244   0.80756   0.28278   0.00000  Uiso   1.00
Zn859  Zn    0.13459   0.79044   0.22258   0.00000  Uiso   1.00
Zn860  Zn    0.21166   0.86331   0.21188   0.00000  Uiso   1.00
Zn861  Zn    0.12798   0.87202   0.28277   0.00000  Uiso   1.00
C862   C     0.38595   0.82698   0.25874   0.00000  Uiso   1.00
C863   C     0.52779   0.78404   0.45715   0.00000  Uiso   1.00
C864   C     0.55306   0.77046   0.47788   0.00000  Uiso   1.00
C865   C     0.61426   0.83987   0.24143   0.00000  Uiso   1.00
C866   C     0.54473   0.78014   0.01894   0.00000  Uiso   1.00
C867   C     0.50939   0.80257   0.04028   0.00000  Uiso   1.00
C868   C     0.57075   0.76666   0.03902   0.00000  Uiso   1.00
C869   C     0.56309   0.77672   0.08016   0.00000  Uiso   1.00
C870   C     0.50555   0.81736   0.08083   0.00000  Uiso   1.00
C871   C     0.65986   0.84019   0.23786   0.00000  Uiso   1.00
C872   C     0.33997   0.82429   0.26477   0.00000  Uiso   1.00
C873   C     0.42000   0.86343   0.42062   0.00000  Uiso   1.00
C874   C     0.51141   0.98865   0.23886   0.00000  Uiso   1.00
C875   C     0.48309   0.67944   0.26481   0.00000  Uiso   1.00
C876   C     0.48926   0.72303   0.25915   0.00000  Uiso   1.00
C877   C     0.50975   0.94436   0.24174   0.00000  Uiso   1.00
C878   C     0.52131   0.81196   0.14394   0.00000  Uiso   1.00
C879   C     0.47831   0.85410   0.35656   0.00000  Uiso   1.00
C880   C     0.46252   0.85528   0.40029   0.00000  Uiso   1.00
C881   C     0.53046   0.80211   0.10090   0.00000  Uiso   1.00
C882   C     0.40180   0.85269   0.45936   0.00000  Uiso   1.00
C883   C     0.37118   0.87987   0.06285   0.00000  Uiso   1.00
C884   C     0.48832   0.84171   0.42071   0.00000  Uiso   1.00
C885   C     0.66234   0.79120   0.32221   0.00000  Uiso   1.00
C886   C     0.41980   0.68945   0.31746   0.00000  Uiso   1.00
C887   C     0.42972   0.71695   0.35348   0.00000  Uiso   1.00
C888   C     0.39604   0.74743   0.37289   0.00000  Uiso   1.00
C889   C     0.49948   0.88716   0.09093   0.00000  Uiso   1.00
C890   C     0.62692   0.78107   0.09438   0.00000  Uiso   1.00
C891   C     0.33385   0.82176   0.46682   0.00000  Uiso   1.00
C892   C     0.40157   0.92306   0.40491   0.00000  Uiso   1.00
C893   C     0.37122   0.94294   0.44291   0.00000  Uiso   1.00
C894   C     0.37299   0.99013   0.44320   0.00000  Uiso   1.00
C895   C     0.46982   0.82837   0.45891   0.00000  Uiso   1.00
C896   C     0.55068   0.88303   0.41787   0.00000  Uiso   1.00
C897   C     0.40899   0.76229   0.07685   0.00000  Uiso   1.00
C898   C     0.39708   0.75060   0.11925   0.00000  Uiso   1.00
C899   C     0.38346   0.70390   0.12047   0.00000  Uiso   1.00
C900   C     0.51936   0.72904   0.41055   0.00000  Uiso   1.00
C901   C     0.54064   0.71153   0.36781   0.00000  Uiso   1.00
C902   C     0.52628   0.99851   0.35950   0.00000  Uiso   1.00
C903   C     0.42723   0.83759   0.47969   0.00000  Uiso   1.00
C904   C     0.49345   0.80856   0.47802   0.00000  Uiso   1.00
C905   C     0.48011   0.81057   0.01998   0.00000  Uiso   1.00
C906   C     0.43668   0.81663   0.03981   0.00000  Uiso   1.00
C907   C     0.41106   0.83161   0.02033   0.00000  Uiso   1.00
H908   H     0.59638   0.74748   0.02297   0.00000  Uiso   1.00
H909   H     0.63629   0.77832   0.34662   0.00000  Uiso   1.00
H910   H     0.39029   0.66837   0.32857   0.00000  Uiso   1.00
H911   H     0.41157   0.70821   0.29725   0.00000  Uiso   1.00
H912   H     0.43083   0.69664   0.37564   0.00000  Uiso   1.00
H913   H     0.46143   0.73519   0.34461   0.00000  Uiso   1.00
H914   H     0.39745   0.77061   0.35234   0.00000  Uiso   1.00
H915   H     0.40272   0.76445   0.40041   0.00000  Uiso   1.00
H916   H     0.36337   0.73052   0.38077   0.00000  Uiso   1.00
H917   H     0.50472   0.88979   0.05884   0.00000  Uiso   1.00
H918   H     0.53049   0.89371   0.09886   0.00000  Uiso   1.00
H919   H     0.34961   0.85326   0.21257   0.00000  Uiso   1.00
H920   H     0.47853   0.91153   0.10812   0.00000  Uiso   1.00
H921   H     0.62570   0.81540   0.10271   0.00000  Uiso   1.00
H922   H     0.64620   0.77429   0.06306   0.00000  Uiso   1.00
H923   H     0.64332   0.76987   0.11370   0.00000  Uiso   1.00
H924   H     0.34177   0.79357   0.47671   0.00000  Uiso   1.00
H925   H     0.33740   0.81688   0.43427   0.00000  Uiso   1.00
H926   H     0.63296   0.82582   0.48201   0.00000  Uiso   1.00
H927   H     0.39469   0.93303   0.37883   0.00000  Uiso   1.00
H928   H     0.43560   0.93515   0.40335   0.00000  Uiso   1.00
H929   H     0.33774   0.92886   0.44528   0.00000  Uiso   1.00
H930   H     0.53606   0.66851   0.21457   0.00000  Uiso   1.00
H931   H     0.38049   0.93689   0.46925   0.00000  Uiso   1.00
H932   H     0.40610   0.67160   0.44135   0.00000  Uiso   1.00
H933   H     0.35104   0.67011   0.47126   0.00000  Uiso   1.00
H934   H     0.36262   0.99736   0.41786   0.00000  Uiso   1.00
H935   H     0.54540   0.88594   0.45064   0.00000  Uiso   1.00
H936   H     0.53803   0.90949   0.40951   0.00000  Uiso   1.00
H937   H     0.58586   0.88518   0.40392   0.00000  Uiso   1.00
H938   H     0.43729   0.74564   0.05908   0.00000  Uiso   1.00
H939   H     0.38180   0.75165   0.06364   0.00000  Uiso   1.00
H940   H     0.42525   0.75911   0.13140   0.00000  Uiso   1.00
H941   H     0.57953   0.75240   0.46152   0.00000  Uiso   1.00
H942   H     0.37045   0.76845   0.13843   0.00000  Uiso   1.00
H943   H     0.35469   0.69487   0.10927   0.00000  Uiso   1.00
H944   H     0.37540   0.69644   0.15159   0.00000  Uiso   1.00
H945   H     0.40999   0.68548   0.10204   0.00000  Uiso   1.00
H946   H     0.48404   0.72734   0.41527   0.00000  Uiso   1.00
H947   H     0.52589   0.70907   0.43083   0.00000  Uiso   1.00
H948   H     0.53275   0.72937   0.34681   0.00000  Uiso   1.00
H949   H     0.57608   0.71542   0.36259   0.00000  Uiso   1.00
H950   H     0.53637   0.97995   0.37863   0.00000  Uiso   1.00
H951   H     0.54126   0.98736   0.32790   0.00000  Uiso   1.00
H952   H     0.38629   0.90434   0.04269   0.00000  Uiso   1.00
H953   H     0.49091   0.99324   0.36523   0.00000  Uiso   1.00
H954   H     0.38835   0.88112   0.08600   0.00000  Uiso   1.00
H955   H     0.33781   0.88718   0.07819   0.00000  Uiso   1.00
H956   H     0.35034   0.81414   0.33617   0.00000  Uiso   1.00
H957   H     0.34646   0.76461   0.30426   0.00000  Uiso   1.00
O958   O     0.50000   0.83333   0.25000   0.00000  Uiso   1.00
O959   O     0.49027   0.79060   0.16625   0.00000  Uiso   1.00
O960   O     0.46020   0.87313   0.33749   0.00000  Uiso   1.00
O961   O     0.54421   0.84159   0.15877   0.00000  Uiso   1.00
O962   O     0.50532   0.82802   0.33749   0.00000  Uiso   1.00
O963   O     0.36967   0.83970   0.04148   0.00000  Uiso   1.00
O964   O     0.64375   0.81101   0.29923   0.00000  Uiso   1.00
O965   O     0.45345   0.99717   0.29816   0.00000  Uiso   1.00
O966   O     0.47875   0.84773   0.10108   0.00000  Uiso   1.00
O967   O     0.58551   0.75967   0.10070   0.00000  Uiso   1.00
O968   O     0.35898   0.85804   0.47739   0.00000  Uiso   1.00
O969   O     0.51182   0.74768   0.27821   0.00000  Uiso   1.00
O970   O     0.39441   0.87881   0.40191   0.00000  Uiso   1.00
O971   O     0.53229   0.84418   0.40371   0.00000  Uiso   1.00
O972   O     0.41770   0.80619   0.07800   0.00000  Uiso   1.00
O973   O     0.53581   0.77129   0.41680   0.00000  Uiso   1.00
O974   O     0.47914   0.92803   0.26767   0.00000  Uiso   1.00
O975   O     0.40785   0.79917   0.23607   0.00000  Uiso   1.00
O976   O     0.60119   0.85845   0.21806   0.00000  Uiso   1.00
O977   O     0.40323   0.85627   0.27820   0.00000  Uiso   1.00
O978   O     0.58773   0.81944   0.26768   0.00000  Uiso   1.00
O979   O     0.47133   0.73570   0.23607   0.00000  Uiso   1.00
O980   O     0.53771   0.92193   0.21806   0.00000  Uiso   1.00
Zn981  Zn    0.52577   0.80756   0.28278   0.00000  Uiso   1.00
Zn982  Zn    0.46792   0.79044   0.22258   0.00000  Uiso   1.00
Zn983  Zn    0.54500   0.86331   0.21188   0.00000  Uiso   1.00
Zn984  Zn    0.46131   0.87202   0.28277   0.00000  Uiso   1.00
C985   C     0.71929   0.82698   0.25874   0.00000  Uiso   1.00
C986   C     0.86112   0.78404   0.45715   0.00000  Uiso   1.00
C987   C     0.88639   0.77046   0.47788   0.00000  Uiso   1.00
C988   C     0.94759   0.83987   0.24143   0.00000  Uiso   1.00
C989   C     0.87806   0.78014   0.01894   0.00000  Uiso   1.00
C990   C     0.84272   0.80257   0.04028   0.00000  Uiso   1.00
C991   C     0.90409   0.76666   0.03902   0.00000  Uiso   1.00
C992   C     0.89642   0.77672   0.08016   0.00000  Uiso   1.00
C993   C     0.83889   0.81736   0.08083   0.00000  Uiso   1.00
C994   C     0.99319   0.84019   0.23786   0.00000  Uiso   1.00
C995   C     0.67330   0.82429   0.26477   0.00000  Uiso   1.00
C996   C     0.75334   0.86343   0.42062   0.00000  Uiso   1.00
C997   C     0.84474   0.98865   0.23886   0.00000  Uiso   1.00
C998   C     0.81643   0.67944   0.26481   0.00000  Uiso   1.00
C999   C     0.82259   0.72303   0.25915   0.00000  Uiso   1.00
C1000  C     0.84308   0.94436   0.24174   0.00000  Uiso   1.00
C1001  C     0.85465   0.81196   0.14394   0.00000  Uiso   1.00
C1002  C     0.81165   0.85410   0.35656   0.00000  Uiso   1.00
C1003  C     0.79585   0.85528   0.40029   0.00000  Uiso   1.00
C1004  C     0.86379   0.80211   0.10090   0.00000  Uiso   1.00
C1005  C     0.73513   0.85269   0.45936   0.00000  Uiso   1.00
C1006  C     0.70451   0.87987   0.06285   0.00000  Uiso   1.00
C1007  C     0.82165   0.84171   0.42071   0.00000  Uiso   1.00
C1008  C     0.99568   0.79120   0.32221   0.00000  Uiso   1.00
C1009  C     0.75313   0.68945   0.31746   0.00000  Uiso   1.00
C1010  C     0.76306   0.71695   0.35348   0.00000  Uiso   1.00
C1011  C     0.72937   0.74743   0.37289   0.00000  Uiso   1.00
C1012  C     0.83281   0.88716   0.09093   0.00000  Uiso   1.00
C1013  C     0.96025   0.78107   0.09438   0.00000  Uiso   1.00
C1014  C     0.66718   0.82176   0.46682   0.00000  Uiso   1.00
C1015  C     0.73490   0.92306   0.40491   0.00000  Uiso   1.00
C1016  C     0.70455   0.94294   0.44291   0.00000  Uiso   1.00
C1017  C     0.70632   0.99013   0.44320   0.00000  Uiso   1.00
C1018  C     0.80316   0.82837   0.45891   0.00000  Uiso   1.00
C1019  C     0.88401   0.88303   0.41787   0.00000  Uiso   1.00
C1020  C     0.74232   0.76229   0.07685   0.00000  Uiso   1.00
C1021  C     0.73042   0.75060   0.11925   0.00000  Uiso   1.00
C1022  C     0.71679   0.70390   0.12047   0.00000  Uiso   1.00
C1023  C     0.85269   0.72904   0.41055   0.00000  Uiso   1.00
C1024  C     0.87397   0.71153   0.36781   0.00000  Uiso   1.00
C1025  C     0.85961   0.99851   0.35950   0.00000  Uiso   1.00
C1026  C     0.76056   0.83759   0.47969   0.00000  Uiso   1.00
C1027  C     0.82678   0.80856   0.47802   0.00000  Uiso   1.00
C1028  C     0.81344   0.81057   0.01998   0.00000  Uiso   1.00
C1029  C     0.77001   0.81663   0.03981   0.00000  Uiso   1.00
C1030  C     0.74439   0.83161   0.02033   0.00000  Uiso   1.00
H1031  H     0.92972   0.74748   0.02297   0.00000  Uiso   1.00
H1032  H     0.96962   0.77832   0.34662   0.00000  Uiso   1.00
H1033  H     0.72363   0.66837   0.32857   0.00000  Uiso   1.00
H1034  H     0.74490   0.70821   0.29725   0.00000  Uiso   1.00
H1035  H     0.76416   0.69664   0.37564   0.00000  Uiso   1.00
H1036  H     0.79477   0.73519   0.34461   0.00000  Uiso   1.00
H1037  H     0.73078   0.77061   0.35234   0.00000  Uiso   1.00
H1038  H     0.73605   0.76445   0.40041   0.00000  Uiso   1.00
H1039  H     0.69670   0.73052   0.38077   0.00000  Uiso   1.00
H1040  H     0.83806   0.88979   0.05884   0.00000  Uiso   1.00
H1041  H     0.86382   0.89371   0.09886   0.00000  Uiso   1.00
H1042  H     0.68294   0.85326   0.21257   0.00000  Uiso   1.00
H1043  H     0.81186   0.91153   0.10812   0.00000  Uiso   1.00
H1044  H     0.95904   0.81540   0.10271   0.00000  Uiso   1.00
H1045  H     0.97953   0.77429   0.06306   0.00000  Uiso   1.00
H1046  H     0.97665   0.76987   0.11370   0.00000  Uiso   1.00
H1047  H     0.67510   0.79357   0.47671   0.00000  Uiso   1.00
H1048  H     0.67074   0.81688   0.43427   0.00000  Uiso   1.00
H1049  H     0.96630   0.82582   0.48201   0.00000  Uiso   1.00
H1050  H     0.72802   0.93303   0.37883   0.00000  Uiso   1.00
H1051  H     0.76894   0.93515   0.40335   0.00000  Uiso   1.00
H1052  H     0.67108   0.92886   0.44528   0.00000  Uiso   1.00
H1053  H     0.86939   0.66851   0.21457   0.00000  Uiso   1.00
H1054  H     0.71382   0.93689   0.46925   0.00000  Uiso   1.00
H1055  H     0.73943   0.67160   0.44135   0.00000  Uiso   1.00
H1056  H     0.68437   0.67011   0.47126   0.00000  Uiso   1.00
H1057  H     0.69595   0.99736   0.41786   0.00000  Uiso   1.00
H1058  H     0.87873   0.88594   0.45064   0.00000  Uiso   1.00
H1059  H     0.87137   0.90949   0.40951   0.00000  Uiso   1.00
H1060  H     0.91919   0.88518   0.40392   0.00000  Uiso   1.00
H1061  H     0.77062   0.74564   0.05908   0.00000  Uiso   1.00
H1062  H     0.71513   0.75165   0.06364   0.00000  Uiso   1.00
H1063  H     0.75858   0.75911   0.13140   0.00000  Uiso   1.00
H1064  H     0.91286   0.75240   0.46152   0.00000  Uiso   1.00
H1065  H     0.70379   0.76845   0.13843   0.00000  Uiso   1.00
H1066  H     0.68802   0.69487   0.10927   0.00000  Uiso   1.00
H1067  H     0.70873   0.69644   0.15159   0.00000  Uiso   1.00
H1068  H     0.74332   0.68548   0.10204   0.00000  Uiso   1.00
H1069  H     0.81737   0.72734   0.41527   0.00000  Uiso   1.00
H1070  H     0.85922   0.70907   0.43083   0.00000  Uiso   1.00
H1071  H     0.86609   0.72937   0.34681   0.00000  Uiso   1.00
H1072  H     0.90941   0.71542   0.36259   0.00000  Uiso   1.00
H1073  H     0.86970   0.97995   0.37863   0.00000  Uiso   1.00
H1074  H     0.87459   0.98736   0.32790   0.00000  Uiso   1.00
H1075  H     0.71962   0.90434   0.04269   0.00000  Uiso   1.00
H1076  H     0.82424   0.99324   0.36523   0.00000  Uiso   1.00
H1077  H     0.72168   0.88112   0.08600   0.00000  Uiso   1.00
H1078  H     0.67115   0.88718   0.07819   0.00000  Uiso   1.00
H1079  H     0.68367   0.81414   0.33617   0.00000  Uiso   1.00
H1080  H     0.67980   0.76461   0.30426   0.00000  Uiso   1.00
O1081  O     0.83333   0.83333   0.25000   0.00000  Uiso   1.00
O1082  O     0.82360   0.79060   0.16625   0.00000  Uiso   1.00
O1083  O     0.79354   0.87313   0.33749   0.00000  Uiso   1.00
O1084  O     0.87755   0.84159   0.15877   0.00000  Uiso   1.00
O1085  O     0.83865   0.82802   0.33749   0.00000  Uiso   1.00
O1086  O     0.70301   0.83970   0.04148   0.00000  Uiso   1.00
O1087  O     0.97708   0.81101   0.29923   0.00000  Uiso   1.00
O1088  O     0.78678   0.99717   0.29816   0.00000  Uiso   1.00
O1089  O     0.81208   0.84773   0.10108   0.00000  Uiso   1.00
O1090  O     0.91884   0.75967   0.10070   0.00000  Uiso   1.00
O1091  O     0.69231   0.85804   0.47739   0.00000  Uiso   1.00
O1092  O     0.84515   0.74768   0.27821   0.00000  Uiso   1.00
O1093  O     0.72774   0.87881   0.40191   0.00000  Uiso   1.00
O1094  O     0.86562   0.84418   0.40371   0.00000  Uiso   1.00
O1095  O     0.75104   0.80619   0.07800   0.00000  Uiso   1.00
O1096  O     0.86915   0.77129   0.41680   0.00000  Uiso   1.00
O1097  O     0.81247   0.92803   0.26767   0.00000  Uiso   1.00
O1098  O     0.74119   0.79917   0.23607   0.00000  Uiso   1.00
O1099  O     0.93452   0.85845   0.21806   0.00000  Uiso   1.00
O1100  O     0.73656   0.85627   0.27820   0.00000  Uiso   1.00
O1101  O     0.92106   0.81944   0.26768   0.00000  Uiso   1.00
O1102  O     0.80467   0.73570   0.23607   0.00000  Uiso   1.00
O1103  O     0.87104   0.92193   0.21806   0.00000  Uiso   1.00
Zn1104 Zn    0.85910   0.80756   0.28278   0.00000  Uiso   1.00
Zn1105 Zn    0.80125   0.79044   0.22258   0.00000  Uiso   1.00
Zn1106 Zn    0.87833   0.86331   0.21188   0.00000  Uiso   1.00
Zn1107 Zn    0.79465   0.87202   0.28277   0.00000  Uiso   1.00
C1108  C     0.05262   0.16031   0.75874   0.00000  Uiso   1.00
C1109  C     0.19446   0.11737   0.95715   0.00000  Uiso   1.00
C1110  C     0.21972   0.10379   0.97788   0.00000  Uiso   1.00
C1111  C     0.28092   0.17320   0.74143   0.00000  Uiso   1.00
C1112  C     0.21140   0.11348   0.51894   0.00000  Uiso   1.00
C1113  C     0.17605   0.13591   0.54028   0.00000  Uiso   1.00
C1114  C     0.23742   0.09999   0.53902   0.00000  Uiso   1.00
C1115  C     0.22975   0.11005   0.58016   0.00000  Uiso   1.00
C1116  C     0.17222   0.15070   0.58083   0.00000  Uiso   1.00
C1117  C     0.32653   0.17353   0.73786   0.00000  Uiso   1.00
C1118  C     0.00663   0.15762   0.76477   0.00000  Uiso   1.00
C1119  C     0.08667   0.19676   0.92062   0.00000  Uiso   1.00
C1120  C     0.17807   0.32198   0.73886   0.00000  Uiso   1.00
C1121  C     0.14976   0.01278   0.76481   0.00000  Uiso   1.00
C1122  C     0.15593   0.05636   0.75915   0.00000  Uiso   1.00
C1123  C     0.17642   0.27770   0.74174   0.00000  Uiso   1.00
C1124  C     0.18798   0.14530   0.64394   0.00000  Uiso   1.00
C1125  C     0.14498   0.18743   0.85656   0.00000  Uiso   1.00
C1126  C     0.12919   0.18861   0.90029   0.00000  Uiso   1.00
C1127  C     0.19712   0.13544   0.60090   0.00000  Uiso   1.00
C1128  C     0.06847   0.18602   0.95936   0.00000  Uiso   1.00
C1129  C     0.03784   0.21321   0.56285   0.00000  Uiso   1.00
C1130  C     0.15498   0.17504   0.92071   0.00000  Uiso   1.00
C1131  C     0.32901   0.12454   0.82221   0.00000  Uiso   1.00
C1132  C     0.08646   0.02278   0.81746   0.00000  Uiso   1.00
C1133  C     0.09639   0.05028   0.85348   0.00000  Uiso   1.00
C1134  C     0.06270   0.08076   0.87289   0.00000  Uiso   1.00
C1135  C     0.16614   0.22049   0.59093   0.00000  Uiso   1.00
C1136  C     0.29358   0.11441   0.59438   0.00000  Uiso   1.00
C1137  C     0.00051   0.15510   0.96682   0.00000  Uiso   1.00
C1138  C     0.06823   0.25640   0.90491   0.00000  Uiso   1.00
C1139  C     0.03788   0.27628   0.94291   0.00000  Uiso   1.00
C1140  C     0.03966   0.32347   0.94320   0.00000  Uiso   1.00
C1141  C     0.13649   0.16170   0.95891   0.00000  Uiso   1.00
C1142  C     0.21735   0.21637   0.91787   0.00000  Uiso   1.00
C1143  C     0.07565   0.09562   0.57685   0.00000  Uiso   1.00
C1144  C     0.06375   0.08393   0.61925   0.00000  Uiso   1.00
C1145  C     0.05013   0.03723   0.62047   0.00000  Uiso   1.00
C1146  C     0.18602   0.06238   0.91055   0.00000  Uiso   1.00
C1147  C     0.20731   0.04487   0.86781   0.00000  Uiso   1.00
C1148  C     0.19295   0.33184   0.85950   0.00000  Uiso   1.00
C1149  C     0.09389   0.17092   0.97969   0.00000  Uiso   1.00
C1150  C     0.16011   0.14189   0.97802   0.00000  Uiso   1.00
C1151  C     0.14677   0.14390   0.51998   0.00000  Uiso   1.00
C1152  C     0.10334   0.14996   0.53981   0.00000  Uiso   1.00
C1153  C     0.07773   0.16495   0.52033   0.00000  Uiso   1.00
H1154  H     0.26305   0.08081   0.52297   0.00000  Uiso   1.00
H1155  H     0.30295   0.11165   0.84662   0.00000  Uiso   1.00
H1156  H     0.05696   0.00170   0.82857   0.00000  Uiso   1.00
H1157  H     0.07823   0.04154   0.79725   0.00000  Uiso   1.00
H1158  H     0.09749   0.02997   0.87564   0.00000  Uiso   1.00
H1159  H     0.12810   0.06852   0.84461   0.00000  Uiso   1.00
H1160  H     0.06411   0.10394   0.85234   0.00000  Uiso   1.00
H1161  H     0.06939   0.09779   0.90041   0.00000  Uiso   1.00
H1162  H     0.03003   0.06385   0.88077   0.00000  Uiso   1.00
H1163  H     0.17139   0.22312   0.55884   0.00000  Uiso   1.00
H1164  H     0.19716   0.22704   0.59886   0.00000  Uiso   1.00
H1165  H     0.01628   0.18659   0.71257   0.00000  Uiso   1.00
H1166  H     0.14520   0.24486   0.60812   0.00000  Uiso   1.00
H1167  H     0.29237   0.14873   0.60271   0.00000  Uiso   1.00
H1168  H     0.31287   0.10762   0.56306   0.00000  Uiso   1.00
H1169  H     0.30998   0.10320   0.61370   0.00000  Uiso   1.00
H1170  H     0.00843   0.12690   0.97671   0.00000  Uiso   1.00
H1171  H     0.00407   0.15021   0.93427   0.00000  Uiso   1.00
H1172  H     0.29963   0.15915   0.98201   0.00000  Uiso   1.00
H1173  H     0.06135   0.26636   0.87883   0.00000  Uiso   1.00
H1174  H     0.10227   0.26848   0.90335   0.00000  Uiso   1.00
H1175  H     0.00441   0.26219   0.94528   0.00000  Uiso   1.00
H1176  H     0.20272   0.00184   0.71457   0.00000  Uiso   1.00
H1177  H     0.04716   0.27022   0.96925   0.00000  Uiso   1.00
H1178  H     0.07277   0.00494   0.94135   0.00000  Uiso   1.00
H1179  H     0.01771   0.00344   0.97126   0.00000  Uiso   1.00
H1180  H     0.02928   0.33070   0.91786   0.00000  Uiso   1.00
H1181  H     0.21206   0.21927   0.95064   0.00000  Uiso   1.00
H1182  H     0.20470   0.24283   0.90951   0.00000  Uiso   1.00
H1183  H     0.25253   0.21851   0.90392   0.00000  Uiso   1.00
H1184  H     0.10396   0.07898   0.55908   0.00000  Uiso   1.00
H1185  H     0.04846   0.08498   0.56364   0.00000  Uiso   1.00
H1186  H     0.09192   0.09244   0.63140   0.00000  Uiso   1.00
H1187  H     0.24619   0.08574   0.96152   0.00000  Uiso   1.00
H1188  H     0.03712   0.10178   0.63843   0.00000  Uiso   1.00
H1189  H     0.02136   0.02820   0.60927   0.00000  Uiso   1.00
H1190  H     0.04206   0.02977   0.65159   0.00000  Uiso   1.00
H1191  H     0.07666   0.01881   0.60204   0.00000  Uiso   1.00
H1192  H     0.15070   0.06067   0.91527   0.00000  Uiso   1.00
H1193  H     0.19256   0.04241   0.93083   0.00000  Uiso   1.00
H1194  H     0.19942   0.06270   0.84681   0.00000  Uiso   1.00
H1195  H     0.24275   0.04876   0.86259   0.00000  Uiso   1.00
H1196  H     0.20304   0.31328   0.87863   0.00000  Uiso   1.00
H1197  H     0.20792   0.32070   0.82790   0.00000  Uiso   1.00
H1198  H     0.05295   0.23767   0.54269   0.00000  Uiso   1.00
H1199  H     0.15757   0.32658   0.86523   0.00000  Uiso   1.00
H1200  H     0.05502   0.21446   0.58600   0.00000  Uiso   1.00
H1201  H     0.00448   0.22051   0.57819   0.00000  Uiso   1.00
H1202  H     0.01700   0.14747   0.83617   0.00000  Uiso   1.00
H1203  H     0.01313   0.09794   0.80426   0.00000  Uiso   1.00
O1204  O     0.16667   0.16667   0.75000   0.00000  Uiso   1.00
O1205  O     0.15693   0.12393   0.66625   0.00000  Uiso   1.00
O1206  O     0.12687   0.20646   0.83749   0.00000  Uiso   1.00
O1207  O     0.21088   0.17493   0.65877   0.00000  Uiso   1.00
O1208  O     0.17198   0.16135   0.83749   0.00000  Uiso   1.00
O1209  O     0.03634   0.17304   0.54148   0.00000  Uiso   1.00
O1210  O     0.31041   0.14434   0.79923   0.00000  Uiso   1.00
O1211  O     0.12012   0.33050   0.79816   0.00000  Uiso   1.00
O1212  O     0.14542   0.18106   0.60108   0.00000  Uiso   1.00
O1213  O     0.25218   0.09301   0.60070   0.00000  Uiso   1.00
O1214  O     0.02564   0.19138   0.97739   0.00000  Uiso   1.00
O1215  O     0.17849   0.08101   0.77821   0.00000  Uiso   1.00
O1216  O     0.06107   0.21214   0.90191   0.00000  Uiso   1.00
O1217  O     0.19896   0.17751   0.90371   0.00000  Uiso   1.00
O1218  O     0.08437   0.13953   0.57800   0.00000  Uiso   1.00
O1219  O     0.20248   0.10462   0.91680   0.00000  Uiso   1.00
O1220  O     0.14581   0.26136   0.76767   0.00000  Uiso   1.00
O1221  O     0.07452   0.13251   0.73607   0.00000  Uiso   1.00
O1222  O     0.26785   0.19179   0.71806   0.00000  Uiso   1.00
O1223  O     0.06990   0.18960   0.77820   0.00000  Uiso   1.00
O1224  O     0.25440   0.15277   0.76768   0.00000  Uiso   1.00
O1225  O     0.13800   0.06903   0.73607   0.00000  Uiso   1.00
O1226  O     0.20437   0.25527   0.71806   0.00000  Uiso   1.00
Zn1227 Zn    0.19244   0.14090   0.78278   0.00000  Uiso   1.00
Zn1228 Zn    0.13459   0.12378   0.72258   0.00000  Uiso   1.00
Zn1229 Zn    0.21166   0.19664   0.71188   0.00000  Uiso   1.00
Zn1230 Zn    0.12798   0.20535   0.78277   0.00000  Uiso   1.00
C1231  C     0.38595   0.16031   0.75874   0.00000  Uiso   1.00
C1232  C     0.52779   0.11737   0.95715   0.00000  Uiso   1.00
C1233  C     0.55306   0.10379   0.97788   0.00000  Uiso   1.00
C1234  C     0.61426   0.17320   0.74143   0.00000  Uiso   1.00
C1235  C     0.54473   0.11348   0.51894   0.00000  Uiso   1.00
C1236  C     0.50939   0.13591   0.54028   0.00000  Uiso   1.00
C1237  C     0.57075   0.09999   0.53902   0.00000  Uiso   1.00
C1238  C     0.56309   0.11005   0.58016   0.00000  Uiso   1.00
C1239  C     0.50555   0.15070   0.58083   0.00000  Uiso   1.00
C1240  C     0.65986   0.17353   0.73786   0.00000  Uiso   1.00
C1241  C     0.33997   0.15762   0.76477   0.00000  Uiso   1.00
C1242  C     0.42000   0.19676   0.92062   0.00000  Uiso   1.00
C1243  C     0.51141   0.32198   0.73886   0.00000  Uiso   1.00
C1244  C     0.48309   0.01278   0.76481   0.00000  Uiso   1.00
C1245  C     0.48926   0.05636   0.75915   0.00000  Uiso   1.00
C1246  C     0.50975   0.27770   0.74174   0.00000  Uiso   1.00
C1247  C     0.52131   0.14530   0.64394   0.00000  Uiso   1.00
C1248  C     0.47831   0.18743   0.85656   0.00000  Uiso   1.00
C1249  C     0.46252   0.18861   0.90029   0.00000  Uiso   1.00
C1250  C     0.53046   0.13544   0.60090   0.00000  Uiso   1.00
C1251  C     0.40180   0.18602   0.95936   0.00000  Uiso   1.00
C1252  C     0.37118   0.21321   0.56285   0.00000  Uiso   1.00
C1253  C     0.48832   0.17504   0.92071   0.00000  Uiso   1.00
C1254  C     0.66234   0.12454   0.82221   0.00000  Uiso   1.00
C1255  C     0.41980   0.02278   0.81746   0.00000  Uiso   1.00
C1256  C     0.42972   0.05028   0.85348   0.00000  Uiso   1.00
C1257  C     0.39604   0.08076   0.87289   0.00000  Uiso   1.00
C1258  C     0.49948   0.22049   0.59093   0.00000  Uiso   1.00
C1259  C     0.62692   0.11441   0.59438   0.00000  Uiso   1.00
C1260  C     0.33385   0.15510   0.96682   0.00000  Uiso   1.00
C1261  C     0.40157   0.25640   0.90491   0.00000  Uiso   1.00
C1262  C     0.37122   0.27628   0.94291   0.00000  Uiso   1.00
C1263  C     0.37299   0.32347   0.94320   0.00000  Uiso   1.00
C1264  C     0.46982   0.16170   0.95891   0.00000  Uiso   1.00
C1265  C     0.55068   0.21637   0.91787   0.00000  Uiso   1.00
C1266  C     0.40899   0.09562   0.57685   0.00000  Uiso   1.00
C1267  C     0.39708   0.08393   0.61925   0.00000  Uiso   1.00
C1268  C     0.38346   0.03723   0.62047   0.00000  Uiso   1.00
C1269  C     0.51936   0.06238   0.91055   0.00000  Uiso   1.00
C1270  C     0.54064   0.04487   0.86781   0.00000  Uiso   1.00
C1271  C     0.52628   0.33184   0.85950   0.00000  Uiso   1.00
C1272  C     0.42723   0.17092   0.97969   0.00000  Uiso   1.00
C1273  C     0.49345   0.14189   0.97802   0.00000  Uiso   1.00
C1274  C     0.48011   0.14390   0.51998   0.00000  Uiso   1.00
C1275  C     0.43668   0.14996   0.53981   0.00000  Uiso   1.00
C1276  C     0.41106   0.16495   0.52033   0.00000  Uiso   1.00
H1277  H     0.59638   0.08081   0.52297   0.00000  Uiso   1.00
H1278  H     0.63629   0.11165   0.84662   0.00000  Uiso   1.00
H1279  H     0.39029   0.00170   0.82857   0.00000  Uiso   1.00
H1280  H     0.41157   0.04154   0.79725   0.00000  Uiso   1.00
H1281  H     0.43083   0.02997   0.87564   0.00000  Uiso   1.00
H1282  H     0.46143   0.06852   0.84461   0.00000  Uiso   1.00
H1283  H     0.39745   0.10394   0.85234   0.00000  Uiso   1.00
H1284  H     0.40272   0.09779   0.90041   0.00000  Uiso   1.00
H1285  H     0.36337   0.06385   0.88077   0.00000  Uiso   1.00
H1286  H     0.50472   0.22312   0.55884   0.00000  Uiso   1.00
H1287  H     0.53049   0.22704   0.59886   0.00000  Uiso   1.00
H1288  H     0.34961   0.18659   0.71257   0.00000  Uiso   1.00
H1289  H     0.47853   0.24486   0.60812   0.00000  Uiso   1.00
H1290  H     0.62570   0.14873   0.60271   0.00000  Uiso   1.00
H1291  H     0.64620   0.10762   0.56306   0.00000  Uiso   1.00
H1292  H     0.64332   0.10320   0.61370   0.00000  Uiso   1.00
H1293  H     0.34177   0.12690   0.97671   0.00000  Uiso   1.00
H1294  H     0.33740   0.15021   0.93427   0.00000  Uiso   1.00
H1295  H     0.63296   0.15915   0.98201   0.00000  Uiso   1.00
H1296  H     0.39469   0.26636   0.87883   0.00000  Uiso   1.00
H1297  H     0.43560   0.26848   0.90335   0.00000  Uiso   1.00
H1298  H     0.33774   0.26219   0.94528   0.00000  Uiso   1.00
H1299  H     0.53606   0.00184   0.71457   0.00000  Uiso   1.00
H1300  H     0.38049   0.27022   0.96925   0.00000  Uiso   1.00
H1301  H     0.40610   0.00494   0.94135   0.00000  Uiso   1.00
H1302  H     0.35104   0.00344   0.97126   0.00000  Uiso   1.00
H1303  H     0.36262   0.33070   0.91786   0.00000  Uiso   1.00
H1304  H     0.54540   0.21927   0.95064   0.00000  Uiso   1.00
H1305  H     0.53803   0.24283   0.90951   0.00000  Uiso   1.00
H1306  H     0.58586   0.21851   0.90392   0.00000  Uiso   1.00
H1307  H     0.43729   0.07898   0.55908   0.00000  Uiso   1.00
H1308  H     0.38180   0.08498   0.56364   0.00000  Uiso   1.00
H1309  H     0.42525   0.09244   0.63140   0.00000  Uiso   1.00
H1310  H     0.57953   0.08574   0.96152   0.00000  Uiso   1.00
H1311  H     0.37045   0.10178   0.63843   0.00000  Uiso   1.00
H1312  H     0.35469   0.02820   0.60927   0.00000  Uiso   1.00
H1313  H     0.37540   0.02977   0.65159   0.00000  Uiso   1.00
H1314  H     0.40999   0.01881   0.60204   0.00000  Uiso   1.00
H1315  H     0.48404   0.06067   0.91527   0.00000  Uiso   1.00
H1316  H     0.52589   0.04241   0.93083   0.00000  Uiso   1.00
H1317  H     0.53275   0.06270   0.84681   0.00000  Uiso   1.00
H1318  H     0.57608   0.04876   0.86259   0.00000  Uiso   1.00
H1319  H     0.53637   0.31328   0.87863   0.00000  Uiso   1.00
H1320  H     0.54126   0.32070   0.82790   0.00000  Uiso   1.00
H1321  H     0.38629   0.23767   0.54269   0.00000  Uiso   1.00
H1322  H     0.49091   0.32658   0.86523   0.00000  Uiso   1.00
H1323  H     0.38835   0.21446   0.58600   0.00000  Uiso   1.00
H1324  H     0.33781   0.22051   0.57819   0.00000  Uiso   1.00
H1325  H     0.35034   0.14747   0.83617   0.00000  Uiso   1.00
H1326  H     0.34646   0.09794   0.80426   0.00000  Uiso   1.00
O1327  O     0.50000   0.16667   0.75000   0.00000  Uiso   1.00
O1328  O     0.49027   0.12393   0.66625   0.00000  Uiso   1.00
O1329  O     0.46020   0.20646   0.83749   0.00000  Uiso   1.00
O1330  O     0.54421   0.17493   0.65877   0.00000  Uiso   1.00
O1331  O     0.50532   0.16135   0.83749   0.00000  Uiso   1.00
O1332  O     0.36967   0.17304   0.54148   0.00000  Uiso   1.00
O1333  O     0.64375   0.14434   0.79923   0.00000  Uiso   1.00
O1334  O     0.45345   0.33050   0.79816   0.00000  Uiso   1.00
O1335  O     0.47875   0.18106   0.60108   0.00000  Uiso   1.00
O1336  O     0.58551   0.09301   0.60070   0.00000  Uiso   1.00
O1337  O     0.35898   0.19138   0.97739   0.00000  Uiso   1.00
O1338  O     0.51182   0.08101   0.77821   0.00000  Uiso   1.00
O1339  O     0.39441   0.21214   0.90191   0.00000  Uiso   1.00
O1340  O     0.53229   0.17751   0.90371   0.00000  Uiso   1.00
O1341  O     0.41770   0.13953   0.57800   0.00000  Uiso   1.00
O1342  O     0.53581   0.10462   0.91680   0.00000  Uiso   1.00
O1343  O     0.47914   0.26136   0.76767   0.00000  Uiso   1.00
O1344  O     0.40785   0.13251   0.73607   0.00000  Uiso   1.00
O1345  O     0.60119   0.19179   0.71806   0.00000  Uiso   1.00
O1346  O     0.40323   0.18960   0.77820   0.00000  Uiso   1.00
O1347  O     0.58773   0.15277   0.76768   0.00000  Uiso   1.00
O1348  O     0.47133   0.06903   0.73607   0.00000  Uiso   1.00
O1349  O     0.53771   0.25527   0.71806   0.00000  Uiso   1.00
Zn1350 Zn    0.52577   0.14090   0.78278   0.00000  Uiso   1.00
Zn1351 Zn    0.46792   0.12378   0.72258   0.00000  Uiso   1.00
Zn1352 Zn    0.54500   0.19664   0.71188   0.00000  Uiso   1.00
Zn1353 Zn    0.46131   0.20535   0.78277   0.00000  Uiso   1.00
C1354  C     0.71929   0.16031   0.75874   0.00000  Uiso   1.00
C1355  C     0.86112   0.11737   0.95715   0.00000  Uiso   1.00
C1356  C     0.88639   0.10379   0.97788   0.00000  Uiso   1.00
C1357  C     0.94759   0.17320   0.74143   0.00000  Uiso   1.00
C1358  C     0.87806   0.11348   0.51894   0.00000  Uiso   1.00
C1359  C     0.84272   0.13591   0.54028   0.00000  Uiso   1.00
C1360  C     0.90409   0.09999   0.53902   0.00000  Uiso   1.00
C1361  C     0.89642   0.11005   0.58016   0.00000  Uiso   1.00
C1362  C     0.83889   0.15070   0.58083   0.00000  Uiso   1.00
C1363  C     0.99319   0.17353   0.73786   0.00000  Uiso   1.00
C1364  C     0.67330   0.15762   0.76477   0.00000  Uiso   1.00
C1365  C     0.75334   0.19676   0.92062   0.00000  Uiso   1.00
C1366  C     0.84474   0.32198   0.73886   0.00000  Uiso   1.00
C1367  C     0.81643   0.01278   0.76481   0.00000  Uiso   1.00
C1368  C     0.82259   0.05636   0.75915   0.00000  Uiso   1.00
C1369  C     0.84308   0.27770   0.74174   0.00000  Uiso   1.00
C1370  C     0.85465   0.14530   0.64394   0.00000  Uiso   1.00
C1371  C     0.81165   0.18743   0.85656   0.00000  Uiso   1.00
C1372  C     0.79585   0.18861   0.90029   0.00000  Uiso   1.00
C1373  C     0.86379   0.13544   0.60090   0.00000  Uiso   1.00
C1374  C     0.73513   0.18602   0.95936   0.00000  Uiso   1.00
C1375  C     0.70451   0.21321   0.56285   0.00000  Uiso   1.00
C1376  C     0.82165   0.17504   0.92071   0.00000  Uiso   1.00
C1377  C     0.99568   0.12454   0.82221   0.00000  Uiso   1.00
C1378  C     0.75313   0.02278   0.81746   0.00000  Uiso   1.00
C1379  C     0.76306   0.05028   0.85348   0.00000  Uiso   1.00
C1380  C     0.72937   0.08076   0.87289   0.00000  Uiso   1.00
C1381  C     0.83281   0.22049   0.59093   0.00000  Uiso   1.00
C1382  C     0.96025   0.11441   0.59438   0.00000  Uiso   1.00
C1383  C     0.66718   0.15510   0.96682   0.00000  Uiso   1.00
C1384  C     0.73490   0.25640   0.90491   0.00000  Uiso   1.00
C1385  C     0.70455   0.27628   0.94291   0.00000  Uiso   1.00
C1386  C     0.70632   0.32347   0.94320   0.00000  Uiso   1.00
C1387  C     0.80316   0.16170   0.95891   0.00000  Uiso   1.00
C1388  C     0.88401   0.21637   0.91787   0.00000  Uiso   1.00
C1389  C     0.74232   0.09562   0.57685   0.00000  Uiso   1.00
C1390  C     0.73042   0.08393   0.61925   0.00000  Uiso   1.00
C1391  C     0.71679   0.03723   0.62047   0.00000  Uiso   1.00
C1392  C     0.85269   0.06238   0.91055   0.00000  Uiso   1.00
C1393  C     0.87397   0.04487   0.86781   0.00000  Uiso   1.00
C1394  C     0.85961   0.33184   0.85950   0.00000  Uiso   1.00
C1395  C     0.76056   0.17092   0.97969   0.00000  Uiso   1.00
C1396  C     0.82678   0.14189   0.97802   0.00000  Uiso   1.00
C1397  C     0.81344   0.14390   0.51998   0.00000  Uiso   1.00
C1398  C     0.77001   0.14996   0.53981   0.00000  Uiso   1.00
C1399  C     0.74439   0.16495   0.52033   0.00000  Uiso   1.00
H1400  H     0.92972   0.08081   0.52297   0.00000  Uiso   1.00
H1401  H     0.96962   0.11165   0.84662   0.00000  Uiso   1.00
H1402  H     0.72363   0.00170   0.82857   0.00000  Uiso   1.00
H1403  H     0.74490   0.04154   0.79725   0.00000  Uiso   1.00
H1404  H     0.76416   0.02997   0.87564   0.00000  Uiso   1.00
H1405  H     0.79477   0.06852   0.84461   0.00000  Uiso   1.00
H1406  H     0.73078   0.10394   0.85234   0.00000  Uiso   1.00
H1407  H     0.73605   0.09779   0.90041   0.00000  Uiso   1.00
H1408  H     0.69670   0.06385   0.88077   0.00000  Uiso   1.00
H1409  H     0.83806   0.22312   0.55884   0.00000  Uiso   1.00
H1410  H     0.86382   0.22704   0.59886   0.00000  Uiso   1.00
H1411  H     0.68294   0.18659   0.71257   0.00000  Uiso   1.00
H1412  H     0.81186   0.24486   0.60812   0.00000  Uiso   1.00
H1413  H     0.95904   0.14873   0.60271   0.00000  Uiso   1.00
H1414  H     0.97953   0.10762   0.56306   0.00000  Uiso   1.00
H1415  H     0.97665   0.10320   0.61370   0.00000  Uiso   1.00
H1416  H     0.67510   0.12690   0.97671   0.00000  Uiso   1.00
H1417  H     0.67074   0.15021   0.93427   0.00000  Uiso   1.00
H1418  H     0.96630   0.15915   0.98201   0.00000  Uiso   1.00
H1419  H     0.72802   0.26636   0.87883   0.00000  Uiso   1.00
H1420  H     0.76894   0.26848   0.90335   0.00000  Uiso   1.00
H1421  H     0.67108   0.26219   0.94528   0.00000  Uiso   1.00
H1422  H     0.86939   0.00184   0.71457   0.00000  Uiso   1.00
H1423  H     0.71382   0.27022   0.96925   0.00000  Uiso   1.00
H1424  H     0.73943   0.00494   0.94135   0.00000  Uiso   1.00
H1425  H     0.68437   0.00344   0.97126   0.00000  Uiso   1.00
H1426  H     0.69595   0.33070   0.91786   0.00000  Uiso   1.00
H1427  H     0.87873   0.21927   0.95064   0.00000  Uiso   1.00
H1428  H     0.87137   0.24283   0.90951   0.00000  Uiso   1.00
H1429  H     0.91919   0.21851   0.90392   0.00000  Uiso   1.00
H1430  H     0.77062   0.07898   0.55908   0.00000  Uiso   1.00
H1431  H     0.71513   0.08498   0.56364   0.00000  Uiso   1.00
H1432  H     0.75858   0.09244   0.63140   0.00000  Uiso   1.00
H1433  H     0.91286   0.08574   0.96152   0.00000  Uiso   1.00
H1434  H     0.70379   0.10178   0.63843   0.00000  Uiso   1.00
H1435  H     0.68802   0.02820   0.60927   0.00000  Uiso   1.00
H1436  H     0.70873   0.02977   0.65159   0.00000  Uiso   1.00
H1437  H     0.74332   0.01881   0.60204   0.00000  Uiso   1.00
H1438  H     0.81737   0.06067   0.91527   0.00000  Uiso   1.00
H1439  H     0.85922   0.04241   0.93083   0.00000  Uiso   1.00
H1440  H     0.86609   0.06270   0.84681   0.00000  Uiso   1.00
H1441  H     0.90941   0.04876   0.86259   0.00000  Uiso   1.00
H1442  H     0.86970   0.31328   0.87863   0.00000  Uiso   1.00
H1443  H     0.87459   0.32070   0.82790   0.00000  Uiso   1.00
H1444  H     0.71962   0.23767   0.54269   0.00000  Uiso   1.00
H1445  H     0.82424   0.32658   0.86523   0.00000  Uiso   1.00
H1446  H     0.72168   0.21446   0.58600   0.00000  Uiso   1.00
H1447  H     0.67115   0.22051   0.57819   0.00000  Uiso   1.00
H1448  H     0.68367   0.14747   0.83617   0.00000  Uiso   1.00
H1449  H     0.67980   0.09794   0.80426   0.00000  Uiso   1.00
O1450  O     0.83333   0.16667   0.75000   0.00000  Uiso   1.00
O1451  O     0.82360   0.12393   0.66625   0.00000  Uiso   1.00
O1452  O     0.79354   0.20646   0.83749   0.00000  Uiso   1.00
O1453  O     0.87755   0.17493   0.65877   0.00000  Uiso   1.00
O1454  O     0.83865   0.16135   0.83749   0.00000  Uiso   1.00
O1455  O     0.70301   0.17304   0.54148   0.00000  Uiso   1.00
O1456  O     0.97708   0.14434   0.79923   0.00000  Uiso   1.00
O1457  O     0.78678   0.33050   0.79816   0.00000  Uiso   1.00
O1458  O     0.81208   0.18106   0.60108   0.00000  Uiso   1.00
O1459  O     0.91884   0.09301   0.60070   0.00000  Uiso   1.00
O1460  O     0.69231   0.19138   0.97739   0.00000  Uiso   1.00
O1461  O     0.84515   0.08101   0.77821   0.00000  Uiso   1.00
O1462  O     0.72774   0.21214   0.90191   0.00000  Uiso   1.00
O1463  O     0.86562   0.17751   0.90371   0.00000  Uiso   1.00
O1464  O     0.75104   0.13953   0.57800   0.00000  Uiso   1.00
O1465  O     0.86915   0.10462   0.91680   0.00000  Uiso   1.00
O1466  O     0.81247   0.26136   0.76767   0.00000  Uiso   1.00
O1467  O     0.74119   0.13251   0.73607   0.00000  Uiso   1.00
O1468  O     0.93452   0.19179   0.71806   0.00000  Uiso   1.00
O1469  O     0.73656   0.18960   0.77820   0.00000  Uiso   1.00
O1470  O     0.92106   0.15277   0.76768   0.00000  Uiso   1.00
O1471  O     0.80467   0.06903   0.73607   0.00000  Uiso   1.00
O1472  O     0.87104   0.25527   0.71806   0.00000  Uiso   1.00
Zn1473 Zn    0.85910   0.14090   0.78278   0.00000  Uiso   1.00
Zn1474 Zn    0.80125   0.12378   0.72258   0.00000  Uiso   1.00
Zn1475 Zn    0.87833   0.19664   0.71188   0.00000  Uiso   1.00
Zn1476 Zn    0.79465   0.20535   0.78277   0.00000  Uiso   1.00
C1477  C     0.05262   0.49365   0.75874   0.00000  Uiso   1.00
C1478  C     0.19446   0.45071   0.95715   0.00000  Uiso   1.00
C1479  C     0.21972   0.43713   0.97788   0.00000  Uiso   1.00
C1480  C     0.28092   0.50654   0.74143   0.00000  Uiso   1.00
C1481  C     0.21140   0.44681   0.51894   0.00000  Uiso   1.00
C1482  C     0.17605   0.46924   0.54028   0.00000  Uiso   1.00
C1483  C     0.23742   0.43333   0.53902   0.00000  Uiso   1.00
C1484  C     0.22975   0.44339   0.58016   0.00000  Uiso   1.00
C1485  C     0.17222   0.48403   0.58083   0.00000  Uiso   1.00
C1486  C     0.32653   0.50686   0.73786   0.00000  Uiso   1.00
C1487  C     0.00663   0.49096   0.76477   0.00000  Uiso   1.00
C1488  C     0.08667   0.53009   0.92062   0.00000  Uiso   1.00
C1489  C     0.17807   0.65531   0.73886   0.00000  Uiso   1.00
C1490  C     0.14976   0.34611   0.76481   0.00000  Uiso   1.00
C1491  C     0.15593   0.38970   0.75915   0.00000  Uiso   1.00
C1492  C     0.17642   0.61103   0.74174   0.00000  Uiso   1.00
C1493  C     0.18798   0.47863   0.64394   0.00000  Uiso   1.00
C1494  C     0.14498   0.52077   0.85656   0.00000  Uiso   1.00
C1495  C     0.12919   0.52194   0.90029   0.00000  Uiso   1.00
C1496  C     0.19712   0.46878   0.60090   0.00000  Uiso   1.00
C1497  C     0.06847   0.51936   0.95936   0.00000  Uiso   1.00
C1498  C     0.03784   0.54654   0.56285   0.00000  Uiso   1.00
C1499  C     0.15498   0.50838   0.92071   0.00000  Uiso   1.00
C1500  C     0.32901   0.45787   0.82221   0.00000  Uiso   1.00
C1501  C     0.08646   0.35612   0.81746   0.00000  Uiso   1.00
C1502  C     0.09639   0.38362   0.85348   0.00000  Uiso   1.00
C1503  C     0.06270   0.41410   0.87289   0.00000  Uiso   1.00
C1504  C     0.16614   0.55382   0.59093   0.00000  Uiso   1.00
C1505  C     0.29358   0.44774   0.59438   0.00000  Uiso   1.00
C1506  C     0.00051   0.48843   0.96682   0.00000  Uiso   1.00
C1507  C     0.06823   0.58973   0.90491   0.00000  Uiso   1.00
C1508  C     0.03788   0.60961   0.94291   0.00000  Uiso   1.00
C1509  C     0.03966   0.65680   0.94320   0.00000  Uiso   1.00
C1510  C     0.13649   0.49503   0.95891   0.00000  Uiso   1.00
C1511  C     0.21735   0.54970   0.91787   0.00000  Uiso   1.00
C1512  C     0.07565   0.42896   0.57685   0.00000  Uiso   1.00
C1513  C     0.06375   0.41726   0.61925   0.00000  Uiso   1.00
C1514  C     0.05013   0.37056   0.62047   0.00000  Uiso   1.00
C1515  C     0.18602   0.39571   0.91055   0.00000  Uiso   1.00
C1516  C     0.20731   0.37820   0.86781   0.00000  Uiso   1.00
C1517  C     0.19295   0.66517   0.85950   0.00000  Uiso   1.00
C1518  C     0.09389   0.50426   0.97969   0.00000  Uiso   1.00
C1519  C     0.16011   0.47522   0.97802   0.00000  Uiso   1.00
C1520  C     0.14677   0.47724   0.51998   0.00000  Uiso   1.00
C1521  C     0.10334   0.48330   0.53981   0.00000  Uiso   1.00
C1522  C     0.07773   0.49828   0.52033   0.00000  Uiso   1.00
H1523  H     0.26305   0.41414   0.52297   0.00000  Uiso   1.00
H1524  H     0.30295   0.44498   0.84662   0.00000  Uiso   1.00
H1525  H     0.05696   0.33504   0.82857   0.00000  Uiso   1.00
H1526  H     0.07823   0.37487   0.79725   0.00000  Uiso   1.00
H1527  H     0.09749   0.36330   0.87564   0.00000  Uiso   1.00
H1528  H     0.12810   0.40185   0.84461   0.00000  Uiso   1.00
H1529  H     0.06411   0.43728   0.85234   0.00000  Uiso   1.00
H1530  H     0.06939   0.43112   0.90041   0.00000  Uiso   1.00
H1531  H     0.03003   0.39719   0.88077   0.00000  Uiso   1.00
H1532  H     0.17139   0.55645   0.55884   0.00000  Uiso   1.00
H1533  H     0.19716   0.56037   0.59886   0.00000  Uiso   1.00
H1534  H     0.01628   0.51993   0.71257   0.00000  Uiso   1.00
H1535  H     0.14520   0.57820   0.60812   0.00000  Uiso   1.00
H1536  H     0.29237   0.48206   0.60271   0.00000  Uiso   1.00
H1537  H     0.31287   0.44095   0.56306   0.00000  Uiso   1.00
H1538  H     0.30998   0.43654   0.61370   0.00000  Uiso   1.00
H1539  H     0.00843   0.46023   0.97671   0.00000  Uiso   1.00
H1540  H     0.00407   0.48354   0.93427   0.00000  Uiso   1.00
H1541  H     0.29963   0.49249   0.98201   0.00000  Uiso   1.00
H1542  H     0.06135   0.59970   0.87883   0.00000  Uiso   1.00
H1543  H     0.10227   0.60181   0.90335   0.00000  Uiso   1.00
H1544  H     0.00441   0.59552   0.94528   0.00000  Uiso   1.00
H1545  H     0.20272   0.33518   0.71457   0.00000  Uiso   1.00
H1546  H     0.04716   0.60356   0.96925   0.00000  Uiso   1.00
H1547  H     0.07277   0.33827   0.94135   0.00000  Uiso   1.00
H1548  H     0.01771   0.33677   0.97126   0.00000  Uiso   1.00
H1549  H     0.02928   0.66403   0.91786   0.00000  Uiso   1.00
H1550  H     0.21206   0.55261   0.95064   0.00000  Uiso   1.00
H1551  H     0.20470   0.57616   0.90951   0.00000  Uiso   1.00
H1552  H     0.25253   0.55185   0.90392   0.00000  Uiso   1.00
H1553  H     0.10396   0.41231   0.55908   0.00000  Uiso   1.00
H1554  H     0.04846   0.41831   0.56364   0.00000  Uiso   1.00
H1555  H     0.09192   0.42578   0.63140   0.00000  Uiso   1.00
H1556  H     0.24619   0.41907   0.96152   0.00000  Uiso   1.00
H1557  H     0.03712   0.43512   0.63843   0.00000  Uiso   1.00
H1558  H     0.02136   0.36153   0.60927   0.00000  Uiso   1.00
H1559  H     0.04206   0.36311   0.65159   0.00000  Uiso   1.00
H1560  H     0.07666   0.35215   0.60204   0.00000  Uiso   1.00
H1561  H     0.15070   0.39400   0.91527   0.00000  Uiso   1.00
H1562  H     0.19256   0.37574   0.93083   0.00000  Uiso   1.00
H1563  H     0.19942   0.39603   0.84681   0.00000  Uiso   1.00
H1564  H     0.24275   0.38209   0.86259   0.00000  Uiso   1.00
H1565  H     0.20304   0.64662   0.87863   0.00000  Uiso   1.00
H1566  H     0.20792   0.65403   0.82790   0.00000  Uiso   1.00
H1567  H     0.05295   0.57100   0.54269   0.00000  Uiso   1.00
H1568  H     0.15757   0.65991   0.86523   0.00000  Uiso   1.00
H1569  H     0.05502   0.54779   0.58600   0.00000  Uiso   1.00
H1570  H     0.00448   0.55385   0.57819   0.00000  Uiso   1.00
H1571  H     0.01700   0.48080   0.83617   0.00000  Uiso   1.00
H1572  H     0.01313   0.43127   0.80426   0.00000  Uiso   1.00
O1573  O     0.16667   0.50000   0.75000   0.00000  Uiso   1.00
O1574  O     0.15693   0.45726   0.66625   0.00000  Uiso   1.00
O1575  O     0.12687   0.53979   0.83749   0.00000  Uiso   1.00
O1576  O     0.21088   0.50826   0.65877   0.00000  Uiso   1.00
O1577  O     0.17198   0.49468   0.83749   0.00000  Uiso   1.00
O1578  O     0.03634   0.50637   0.54148   0.00000  Uiso   1.00
O1579  O     0.31041   0.47767   0.79923   0.00000  Uiso   1.00
O1580  O     0.12012   0.66383   0.79816   0.00000  Uiso   1.00
O1581  O     0.14542   0.51439   0.60108   0.00000  Uiso   1.00
O1582  O     0.25218   0.42634   0.60070   0.00000  Uiso   1.00
O1583  O     0.02564   0.52471   0.97739   0.00000  Uiso   1.00
O1584  O     0.17849   0.41434   0.77821   0.00000  Uiso   1.00
O1585  O     0.06107   0.54547   0.90191   0.00000  Uiso   1.00
O1586  O     0.19896   0.51085   0.90371   0.00000  Uiso   1.00
O1587  O     0.08437   0.47286   0.57800   0.00000  Uiso   1.00
O1588  O     0.20248   0.43795   0.91680   0.00000  Uiso   1.00
O1589  O     0.14581   0.59469   0.76767   0.00000  Uiso   1.00
O1590  O     0.07452   0.46584   0.73607   0.00000  Uiso   1.00
O1591  O     0.26785   0.52512   0.71806   0.00000  Uiso   1.00
O1592  O     0.06990   0.52293   0.77820   0.00000  Uiso   1.00
O1593  O     0.25440   0.48610   0.76768   0.00000  Uiso   1.00
O1594  O     0.13800   0.40236   0.73607   0.00000  Uiso   1.00
O1595  O     0.20437   0.58860   0.71806   0.00000  Uiso   1.00
Zn1596 Zn    0.19244   0.47423   0.78278   0.00000  Uiso   1.00
Zn1597 Zn    0.13459   0.45711   0.72258   0.00000  Uiso   1.00
Zn1598 Zn    0.21166   0.52997   0.71188   0.00000  Uiso   1.00
Zn1599 Zn    0.12798   0.53868   0.78277   0.00000  Uiso   1.00
C1600  C     0.38595   0.49365   0.75874   0.00000  Uiso   1.00
C1601  C     0.52779   0.45071   0.95715   0.00000  Uiso   1.00
C1602  C     0.55306   0.43713   0.97788   0.00000  Uiso   1.00
C1603  C     0.61426   0.50654   0.74143   0.00000  Uiso   1.00
C1604  C     0.54473   0.44681   0.51894   0.00000  Uiso   1.00
C1605  C     0.50939   0.46924   0.54028   0.00000  Uiso   1.00
C1606  C     0.57075   0.43333   0.53902   0.00000  Uiso   1.00
C1607  C     0.56309   0.44339   0.58016   0.00000  Uiso   1.00
C1608  C     0.50555   0.48403   0.58083   0.00000  Uiso   1.00
C1609  C     0.65986   0.50686   0.73786   0.00000  Uiso   1.00
C1610  C     0.33997   0.49096   0.76477   0.00000  Uiso   1.00
C1611  C     0.42000   0.53009   0.92062   0.00000  Uiso   1.00
C1612  C     0.51141   0.65531   0.73886   0.00000  Uiso   1.00
C1613  C     0.48309   0.34611   0.76481   0.00000  Uiso   1.00
C1614  C     0.48926   0.38970   0.75915   0.00000  Uiso   1.00
C1615  C     0.50975   0.61103   0.74174   0.00000  Uiso   1.00
C1616  C     0.52131   0.47863   0.64394   0.00000  Uiso   1.00
C1617  C     0.47831   0.52077   0.85656   0.00000  Uiso   1.00
C1618  C     0.46252   0.52194   0.90029   0.00000  Uiso   1.00
C1619  C     0.53046   0.46878   0.60090   0.00000  Uiso   1.00
C1620  C     0.40180   0.51936   0.95936   0.00000  Uiso   1.00
C1621  C     0.37118   0.54654   0.56285   0.00000  Uiso   1.00
C1622  C     0.48832   0.50838   0.92071   0.00000  Uiso   1.00
C1623  C     0.66234   0.45787   0.82221   0.00000  Uiso   1.00
C1624  C     0.41980   0.35612   0.81746   0.00000  Uiso   1.00
C1625  C     0.42972   0.38362   0.85348   0.00000  Uiso   1.00
C1626  C     0.39604   0.41410   0.87289   0.00000  Uiso   1.00
C1627  C     0.49948   0.55382   0.59093   0.00000  Uiso   1.00
C1628  C     0.62692   0.44774   0.59438   0.00000  Uiso   1.00
C1629  C     0.33385   0.48843   0.96682   0.00000  Uiso   1.00
C1630  C     0.40157   0.58973   0.90491   0.00000  Uiso   1.00
C1631  C     0.37122   0.60961   0.94291   0.00000  Uiso   1.00
C1632  C     0.37299   0.65680   0.94320   0.00000  Uiso   1.00
C1633  C     0.46982   0.49503   0.95891   0.00000  Uiso   1.00
C1634  C     0.55068   0.54970   0.91787   0.00000  Uiso   1.00
C1635  C     0.40899   0.42896   0.57685   0.00000  Uiso   1.00
C1636  C     0.39708   0.41726   0.61925   0.00000  Uiso   1.00
C1637  C     0.38346   0.37056   0.62047   0.00000  Uiso   1.00
C1638  C     0.51936   0.39571   0.91055   0.00000  Uiso   1.00
C1639  C     0.54064   0.37820   0.86781   0.00000  Uiso   1.00
C1640  C     0.52628   0.66517   0.85950   0.00000  Uiso   1.00
C1641  C     0.42723   0.50426   0.97969   0.00000  Uiso   1.00
C1642  C     0.49345   0.47522   0.97802   0.00000  Uiso   1.00
C1643  C     0.48011   0.47724   0.51998   0.00000  Uiso   1.00
C1644  C     0.43668   0.48330   0.53981   0.00000  Uiso   1.00
C1645  C     0.41106   0.49828   0.52033   0.00000  Uiso   1.00
H1646  H     0.59638   0.41414   0.52297   0.00000  Uiso   1.00
H1647  H     0.63629   0.44498   0.84662   0.00000  Uiso   1.00
H1648  H     0.39029   0.33504   0.82857   0.00000  Uiso   1.00
H1649  H     0.41157   0.37487   0.79725   0.00000  Uiso   1.00
H1650  H     0.43083   0.36330   0.87564   0.00000  Uiso   1.00
H1651  H     0.46143   0.40185   0.84461   0.00000  Uiso   1.00
H1652  H     0.39745   0.43728   0.85234   0.00000  Uiso   1.00
H1653  H     0.40272   0.43112   0.90041   0.00000  Uiso   1.00
H1654  H     0.36337   0.39719   0.88077   0.00000  Uiso   1.00
H1655  H     0.50472   0.55645   0.55884   0.00000  Uiso   1.00
H1656  H     0.53049   0.56037   0.59886   0.00000  Uiso   1.00
H1657  H     0.34961   0.51993   0.71257   0.00000  Uiso   1.00
H1658  H     0.47853   0.57820   0.60812   0.00000  Uiso   1.00
H1659  H     0.62570   0.48206   0.60271   0.00000  Uiso   1.00
H1660  H     0.64620   0.44095   0.56306   0.00000  Uiso   1.00
H1661  H     0.64332   0.43654   0.61370   0.00000  Uiso   1.00
H1662  H     0.34177   0.46023   0.97671   0.00000  Uiso   1.00
H1663  H     0.33740   0.48354   0.93427   0.00000  Uiso   1.00
H1664  H     0.63296   0.49249   0.98201   0.00000  Uiso   1.00
H1665  H     0.39469   0.59970   0.87883   0.00000  Uiso   1.00
H1666  H     0.43560   0.60181   0.90335   0.00000  Uiso   1.00
H1667  H     0.33774   0.59552   0.94528   0.00000  Uiso   1.00
H1668  H     0.53606   0.33518   0.71457   0.00000  Uiso   1.00
H1669  H     0.38049   0.60356   0.96925   0.00000  Uiso   1.00
H1670  H     0.40610   0.33827   0.94135   0.00000  Uiso   1.00
H1671  H     0.35104   0.33677   0.97126   0.00000  Uiso   1.00
H1672  H     0.36262   0.66403   0.91786   0.00000  Uiso   1.00
H1673  H     0.54540   0.55261   0.95064   0.00000  Uiso   1.00
H1674  H     0.53803   0.57616   0.90951   0.00000  Uiso   1.00
H1675  H     0.58586   0.55185   0.90392   0.00000  Uiso   1.00
H1676  H     0.43729   0.41231   0.55908   0.00000  Uiso   1.00
H1677  H     0.38180   0.41831   0.56364   0.00000  Uiso   1.00
H1678  H     0.42525   0.42578   0.63140   0.00000  Uiso   1.00
H1679  H     0.57953   0.41907   0.96152   0.00000  Uiso   1.00
H1680  H     0.37045   0.43512   0.63843   0.00000  Uiso   1.00
H1681  H     0.35469   0.36153   0.60927   0.00000  Uiso   1.00
H1682  H     0.37540   0.36311   0.65159   0.00000  Uiso   1.00
H1683  H     0.40999   0.35215   0.60204   0.00000  Uiso   1.00
H1684  H     0.48404   0.39400   0.91527   0.00000  Uiso   1.00
H1685  H     0.52589   0.37574   0.93083   0.00000  Uiso   1.00
H1686  H     0.53275   0.39603   0.84681   0.00000  Uiso   1.00
H1687  H     0.57608   0.38209   0.86259   0.00000  Uiso   1.00
H1688  H     0.53637   0.64662   0.87863   0.00000  Uiso   1.00
H1689  H     0.54126   0.65403   0.82790   0.00000  Uiso   1.00
H1690  H     0.38629   0.57100   0.54269   0.00000  Uiso   1.00
H1691  H     0.49091   0.65991   0.86523   0.00000  Uiso   1.00
H1692  H     0.38835   0.54779   0.58600   0.00000  Uiso   1.00
H1693  H     0.33781   0.55385   0.57819   0.00000  Uiso   1.00
H1694  H     0.35034   0.48080   0.83617   0.00000  Uiso   1.00
H1695  H     0.34646   0.43127   0.80426   0.00000  Uiso   1.00
O1696  O     0.50000   0.50000   0.75000   0.00000  Uiso   1.00
O1697  O     0.49027   0.45726   0.66625   0.00000  Uiso   1.00
O1698  O     0.46020   0.53979   0.83749   0.00000  Uiso   1.00
O1699  O     0.54421   0.50826   0.65877   0.00000  Uiso   1.00
O1700  O     0.50532   0.49468   0.83749   0.00000  Uiso   1.00
O1701  O     0.36967   0.50637   0.54148   0.00000  Uiso   1.00
O1702  O     0.64375   0.47767   0.79923   0.00000  Uiso   1.00
O1703  O     0.45345   0.66383   0.79816   0.00000  Uiso   1.00
O1704  O     0.47875   0.51439   0.60108   0.00000  Uiso   1.00
O1705  O     0.58551   0.42634   0.60070   0.00000  Uiso   1.00
O1706  O     0.35898   0.52471   0.97739   0.00000  Uiso   1.00
O1707  O     0.51182   0.41434   0.77821   0.00000  Uiso   1.00
O1708  O     0.39441   0.54547   0.90191   0.00000  Uiso   1.00
O1709  O     0.53229   0.51085   0.90371   0.00000  Uiso   1.00
O1710  O     0.41770   0.47286   0.57800   0.00000  Uiso   1.00
O1711  O     0.53581   0.43795   0.91680   0.00000  Uiso   1.00
O1712  O     0.47914   0.59469   0.76767   0.00000  Uiso   1.00
O1713  O     0.40785   0.46584   0.73607   0.00000  Uiso   1.00
O1714  O     0.60119   0.52512   0.71806   0.00000  Uiso   1.00
O1715  O     0.40323   0.52293   0.77820   0.00000  Uiso   1.00
O1716  O     0.58773   0.48610   0.76768   0.00000  Uiso   1.00
O1717  O     0.47133   0.40236   0.73607   0.00000  Uiso   1.00
O1718  O     0.53771   0.58860   0.71806   0.00000  Uiso   1.00
Zn1719 Zn    0.52577   0.47423   0.78278   0.00000  Uiso   1.00
Zn1720 Zn    0.46792   0.45711   0.72258   0.00000  Uiso   1.00
Zn1721 Zn    0.54500   0.52997   0.71188   0.00000  Uiso   1.00
Zn1722 Zn    0.46131   0.53868   0.78277   0.00000  Uiso   1.00
C1723  C     0.71929   0.49365   0.75874   0.00000  Uiso   1.00
C1724  C     0.86112   0.45071   0.95715   0.00000  Uiso   1.00
C1725  C     0.88639   0.43713   0.97788   0.00000  Uiso   1.00
C1726  C     0.94759   0.50654   0.74143   0.00000  Uiso   1.00
C1727  C     0.87806   0.44681   0.51894   0.00000  Uiso   1.00
C1728  C     0.84272   0.46924   0.54028   0.00000  Uiso   1.00
C1729  C     0.90409   0.43333   0.53902   0.00000  Uiso   1.00
C1730  C     0.89642   0.44339   0.58016   0.00000  Uiso   1.00
C1731  C     0.83889   0.48403   0.58083   0.00000  Uiso   1.00
C1732  C     0.99319   0.50686   0.73786   0.00000  Uiso   1.00
C1733  C     0.67330   0.49096   0.76477   0.00000  Uiso   1.00
C1734  C     0.75334   0.53009   0.92062   0.00000  Uiso   1.00
C1735  C     0.84474   0.65531   0.73886   0.00000  Uiso   1.00
C1736  C     0.81643   0.34611   0.76481   0.00000  Uiso   1.00
C1737  C     0.82259   0.38970   0.75915   0.00000  Uiso   1.00
C1738  C     0.84308   0.61103   0.74174   0.00000  Uiso   1.00
C1739  C     0.85465   0.47863   0.64394   0.00000  Uiso   1.00
C1740  C     0.81165   0.52077   0.85656   0.00000  Uiso   1.00
C1741  C     0.79585   0.52194   0.90029   0.00000  Uiso   1.00
C1742  C     0.86379   0.46878   0.60090   0.00000  Uiso   1.00
C1743  C     0.73513   0.51936   0.95936   0.00000  Uiso   1.00
C1744  C     0.70451   0.54654   0.56285   0.00000  Uiso   1.00
C1745  C     0.82165   0.50838   0.92071   0.00000  Uiso   1.00
C1746  C     0.99568   0.45787   0.82221   0.00000  Uiso   1.00
C1747  C     0.75313   0.35612   0.81746   0.00000  Uiso   1.00
C1748  C     0.76306   0.38362   0.85348   0.00000  Uiso   1.00
C1749  C     0.72937   0.41410   0.87289   0.00000  Uiso   1.00
C1750  C     0.83281   0.55382   0.59093   0.00000  Uiso   1.00
C1751  C     0.96025   0.44774   0.59438   0.00000  Uiso   1.00
C1752  C     0.66718   0.48843   0.96682   0.00000  Uiso   1.00
C1753  C     0.73490   0.58973   0.90491   0.00000  Uiso   1.00
C1754  C     0.70455   0.60961   0.94291   0.00000  Uiso   1.00
C1755  C     0.70632   0.65680   0.94320   0.00000  Uiso   1.00
C1756  C     0.80316   0.49503   0.95891   0.00000  Uiso   1.00
C1757  C     0.88401   0.54970   0.91787   0.00000  Uiso   1.00
C1758  C     0.74232   0.42896   0.57685   0.00000  Uiso   1.00
C1759  C     0.73042   0.41726   0.61925   0.00000  Uiso   1.00
C1760  C     0.71679   0.37056   0.62047   0.00000  Uiso   1.00
C1761  C     0.85269   0.39571   0.91055   0.00000  Uiso   1.00
C1762  C     0.87397   0.37820   0.86781   0.00000  Uiso   1.00
C1763  C     0.85961   0.66517   0.85950   0.00000  Uiso   1.00
C1764  C     0.76056   0.50426   0.97969   0.00000  Uiso   1.00
C1765  C     0.82678   0.47522   0.97802   0.00000  Uiso   1.00
C1766  C     0.81344   0.47724   0.51998   0.00000  Uiso   1.00
C1767  C     0.77001   0.48330   0.53981   0.00000  Uiso   1.00
C1768  C     0.74439   0.49828   0.52033   0.00000  Uiso   1.00
H1769  H     0.92972   0.41414   0.52297   0.00000  Uiso   1.00
H1770  H     0.96962   0.44498   0.84662   0.00000  Uiso   1.00
H1771  H     0.72363   0.33504   0.82857   0.00000  Uiso   1.00
H1772  H     0.74490   0.37487   0.79725   0.00000  Uiso   1.00
H1773  H     0.76416   0.36330   0.87564   0.00000  Uiso   1.00
H1774  H     0.79477   0.40185   0.84461   0.00000  Uiso   1.00
H1775  H     0.73078   0.43728   0.85234   0.00000  Uiso   1.00
H1776  H     0.73605   0.43112   0.90041   0.00000  Uiso   1.00
H1777  H     0.69670   0.39719   0.88077   0.00000  Uiso   1.00
H1778  H     0.83806   0.55645   0.55884   0.00000  Uiso   1.00
H1779  H     0.86382   0.56037   0.59886   0.00000  Uiso   1.00
H1780  H     0.68294   0.51993   0.71257   0.00000  Uiso   1.00
H1781  H     0.81186   0.57820   0.60812   0.00000  Uiso   1.00
H1782  H     0.95904   0.48206   0.60271   0.00000  Uiso   1.00
H1783  H     0.97953   0.44095   0.56306   0.00000  Uiso   1.00
H1784  H     0.97665   0.43654   0.61370   0.00000  Uiso   1.00
H1785  H     0.67510   0.46023   0.97671   0.00000  Uiso   1.00
H1786  H     0.67074   0.48354   0.93427   0.00000  Uiso   1.00
H1787  H     0.96630   0.49249   0.98201   0.00000  Uiso   1.00
H1788  H     0.72802   0.59970   0.87883   0.00000  Uiso   1.00
H1789  H     0.76894   0.60181   0.90335   0.00000  Uiso   1.00
H1790  H     0.67108   0.59552   0.94528   0.00000  Uiso   1.00
H1791  H     0.86939   0.33518   0.71457   0.00000  Uiso   1.00
H1792  H     0.71382   0.60356   0.96925   0.00000  Uiso   1.00
H1793  H     0.73943   0.33827   0.94135   0.00000  Uiso   1.00
H1794  H     0.68437   0.33677   0.97126   0.00000  Uiso   1.00
H1795  H     0.69595   0.66403   0.91786   0.00000  Uiso   1.00
H1796  H     0.87873   0.55261   0.95064   0.00000  Uiso   1.00
H1797  H     0.87137   0.57616   0.90951   0.00000  Uiso   1.00
H1798  H     0.91919   0.55185   0.90392   0.00000  Uiso   1.00
H1799  H     0.77062   0.41231   0.55908   0.00000  Uiso   1.00
H1800  H     0.71513   0.41831   0.56364   0.00000  Uiso   1.00
H1801  H     0.75858   0.42578   0.63140   0.00000  Uiso   1.00
H1802  H     0.91286   0.41907   0.96152   0.00000  Uiso   1.00
H1803  H     0.70379   0.43512   0.63843   0.00000  Uiso   1.00
H1804  H     0.68802   0.36153   0.60927   0.00000  Uiso   1.00
H1805  H     0.70873   0.36311   0.65159   0.00000  Uiso   1.00
H1806  H     0.74332   0.35215   0.60204   0.00000  Uiso   1.00
H1807  H     0.81737   0.39400   0.91527   0.00000  Uiso   1.00
H1808  H     0.85922   0.37574   0.93083   0.00000  Uiso   1.00
H1809  H     0.86609   0.39603   0.84681   0.00000  Uiso   1.00
H1810  H     0.90941   0.38209   0.86259   0.00000  Uiso   1.00
H1811  H     0.86970   0.64662   0.87863   0.00000  Uiso   1.00
H1812  H     0.87459   0.65403   0.82790   0.00000  Uiso   1.00
H1813  H     0.71962   0.57100   0.54269   0.00000  Uiso   1.00
H1814  H     0.82424   0.65991   0.86523   0.00000  Uiso   1.00
H1815  H     0.72168   0.54779   0.58600   0.00000  Uiso   1.00
H1816  H     0.67115   0.55385   0.57819   0.00000  Uiso   1.00
H1817  H     0.68367   0.48080   0.83617   0.00000  Uiso   1.00
H1818  H     0.67980   0.43127   0.80426   0.00000  Uiso   1.00
O1819  O     0.83333   0.50000   0.75000   0.00000  Uiso   1.00
O1820  O     0.82360   0.45726   0.66625   0.00000  Uiso   1.00
O1821  O     0.79354   0.53979   0.83749   0.00000  Uiso   1.00
O1822  O     0.87755   0.50826   0.65877   0.00000  Uiso   1.00
O1823  O     0.83865   0.49468   0.83749   0.00000  Uiso   1.00
O1824  O     0.70301   0.50637   0.54148   0.00000  Uiso   1.00
O1825  O     0.97708   0.47767   0.79923   0.00000  Uiso   1.00
O1826  O     0.78678   0.66383   0.79816   0.00000  Uiso   1.00
O1827  O     0.81208   0.51439   0.60108   0.00000  Uiso   1.00
O1828  O     0.91884   0.42634   0.60070   0.00000  Uiso   1.00
O1829  O     0.69231   0.52471   0.97739   0.00000  Uiso   1.00
O1830  O     0.84515   0.41434   0.77821   0.00000  Uiso   1.00
O1831  O     0.72774   0.54547   0.90191   0.00000  Uiso   1.00
O1832  O     0.86562   0.51085   0.90371   0.00000  Uiso   1.00
O1833  O     0.75104   0.47286   0.57800   0.00000  Uiso   1.00
O1834  O     0.86915   0.43795   0.91680   0.00000  Uiso   1.00
O1835  O     0.81247   0.59469   0.76767   0.00000  Uiso   1.00
O1836  O     0.74119   0.46584   0.73607   0.00000  Uiso   1.00
O1837  O     0.93452   0.52512   0.71806   0.00000  Uiso   1.00
O1838  O     0.73656   0.52293   0.77820   0.00000  Uiso   1.00
O1839  O     0.92106   0.48610   0.76768   0.00000  Uiso   1.00
O1840  O     0.80467   0.40236   0.73607   0.00000  Uiso   1.00
O1841  O     0.87104   0.58860   0.71806   0.00000  Uiso   1.00
Zn1842 Zn    0.85910   0.47423   0.78278   0.00000  Uiso   1.00
Zn1843 Zn    0.80125   0.45711   0.72258   0.00000  Uiso   1.00
Zn1844 Zn    0.87833   0.52997   0.71188   0.00000  Uiso   1.00
Zn1845 Zn    0.79465   0.53868   0.78277   0.00000  Uiso   1.00
C1846  C     0.05262   0.82698   0.75874   0.00000  Uiso   1.00
C1847  C     0.19446   0.78404   0.95715   0.00000  Uiso   1.00
C1848  C     0.21972   0.77046   0.97788   0.00000  Uiso   1.00
C1849  C     0.28092   0.83987   0.74143   0.00000  Uiso   1.00
C1850  C     0.21140   0.78014   0.51894   0.00000  Uiso   1.00
C1851  C     0.17605   0.80257   0.54028   0.00000  Uiso   1.00
C1852  C     0.23742   0.76666   0.53902   0.00000  Uiso   1.00
C1853  C     0.22975   0.77672   0.58016   0.00000  Uiso   1.00
C1854  C     0.17222   0.81736   0.58083   0.00000  Uiso   1.00
C1855  C     0.32653   0.84019   0.73786   0.00000  Uiso   1.00
C1856  C     0.00663   0.82429   0.76477   0.00000  Uiso   1.00
C1857  C     0.08667   0.86343   0.92062   0.00000  Uiso   1.00
C1858  C     0.17807   0.98865   0.73886   0.00000  Uiso   1.00
C1859  C     0.14976   0.67944   0.76481   0.00000  Uiso   1.00
C1860  C     0.15593   0.72303   0.75915   0.00000  Uiso   1.00
C1861  C     0.17642   0.94436   0.74174   0.00000  Uiso   1.00
C1862  C     0.18798   0.81196   0.64394   0.00000  Uiso   1.00
C1863  C     0.14498   0.85410   0.85656   0.00000  Uiso   1.00
C1864  C     0.12919   0.85528   0.90029   0.00000  Uiso   1.00
C1865  C     0.19712   0.80211   0.60090   0.00000  Uiso   1.00
C1866  C     0.06847   0.85269   0.95936   0.00000  Uiso   1.00
C1867  C     0.03784   0.87987   0.56285   0.00000  Uiso   1.00
C1868  C     0.15498   0.84171   0.92071   0.00000  Uiso   1.00
C1869  C     0.32901   0.79120   0.82221   0.00000  Uiso   1.00
C1870  C     0.08646   0.68945   0.81746   0.00000  Uiso   1.00
C1871  C     0.09639   0.71695   0.85348   0.00000  Uiso   1.00
C1872  C     0.06270   0.74743   0.87289   0.00000  Uiso   1.00
C1873  C     0.16614   0.88716   0.59093   0.00000  Uiso   1.00
C1874  C     0.29358   0.78107   0.59438   0.00000  Uiso   1.00
C1875  C     0.00051   0.82176   0.96682   0.00000  Uiso   1.00
C1876  C     0.06823   0.92306   0.90491   0.00000  Uiso   1.00
C1877  C     0.03788   0.94294   0.94291   0.00000  Uiso   1.00
C1878  C     0.03966   0.99013   0.94320   0.00000  Uiso   1.00
C1879  C     0.13649   0.82837   0.95891   0.00000  Uiso   1.00
C1880  C     0.21735   0.88303   0.91787   0.00000  Uiso   1.00
C1881  C     0.07565   0.76229   0.57685   0.00000  Uiso   1.00
C1882  C     0.06375   0.75060   0.61925   0.00000  Uiso   1.00
C1883  C     0.05013   0.70390   0.62047   0.00000  Uiso   1.00
C1884  C     0.18602   0.72904   0.91055   0.00000  Uiso   1.00
C1885  C     0.20731   0.71153   0.86781   0.00000  Uiso   1.00
C1886  C     0.19295   0.99851   0.85950   0.00000  Uiso   1.00
C1887  C     0.09389   0.83759   0.97969   0.00000  Uiso   1.00
C1888  C     0.16011   0.80856   0.97802   0.00000  Uiso   1.00
C1889  C     0.14677   0.81057   0.51998   0.00000  Uiso   1.00
C1890  C     0.10334   0.81663   0.53981   0.00000  Uiso   1.00
C1891  C     0.07773   0.83161   0.52033   0.00000  Uiso   1.00
H1892  H     0.26305   0.74748   0.52297   0.00000  Uiso   1.00
H1893  H     0.30295   0.77832   0.84662   0.00000  Uiso   1.00
H1894  H     0.05696   0.66837   0.82857   0.00000  Uiso   1.00
H1895  H     0.07823   0.70821   0.79725   0.00000  Uiso   1.00
H1896  H     0.09749   0.69664   0.87564   0.00000  Uiso   1.00
H1897  H     0.12810   0.73519   0.84461   0.00000  Uiso   1.00
H1898  H     0.06411   0.77061   0.85234   0.00000  Uiso   1.00
H1899  H     0.06939   0.76445   0.90041   0.00000  Uiso   1.00
H1900  H     0.03003   0.73052   0.88077   0.00000  Uiso   1.00
H1901  H     0.17139   0.88979   0.55884   0.00000  Uiso   1.00
H1902  H     0.19716   0.89371   0.59886   0.00000  Uiso   1.00
H1903  H     0.01628   0.85326   0.71257   0.00000  Uiso   1.00
H1904  H     0.14520   0.91153   0.60812   0.00000  Uiso   1.00
H1905  H     0.29237   0.81540   0.60271   0.00000  Uiso   1.00
H1906  H     0.31287   0.77429   0.56306   0.00000  Uiso   1.00
H1907  H     0.30998   0.76987   0.61370   0.00000  Uiso   1.00
H1908  H     0.00843   0.79357   0.97671   0.00000  Uiso   1.00
H1909  H     0.00407   0.81688   0.93427   0.00000  Uiso   1.00
H1910  H     0.29963   0.82582   0.98201   0.00000  Uiso   1.00
H1911  H     0.06135   0.93303   0.87883   0.00000  Uiso   1.00
H1912  H     0.10227   0.93515   0.90335   0.00000  Uiso   1.00
H1913  H     0.00441   0.92886   0.94528   0.00000  Uiso   1.00
H1914  H     0.20272   0.66851   0.71457   0.00000  Uiso   1.00
H1915  H     0.04716   0.93689   0.96925   0.00000  Uiso   1.00
H1916  H     0.07277   0.67160   0.94135   0.00000  Uiso   1.00
H1917  H     0.01771   0.67011   0.97126   0.00000  Uiso   1.00
H1918  H     0.02928   0.99736   0.91786   0.00000  Uiso   1.00
H1919  H     0.21206   0.88594   0.95064   0.00000  Uiso   1.00
H1920  H     0.20470   0.90949   0.90951   0.00000  Uiso   1.00
H1921  H     0.25253   0.88518   0.90392   0.00000  Uiso   1.00
H1922  H     0.10396   0.74564   0.55908   0.00000  Uiso   1.00
H1923  H     0.04846   0.75165   0.56364   0.00000  Uiso   1.00
H1924  H     0.09192   0.75911   0.63140   0.00000  Uiso   1.00
H1925  H     0.24619   0.75240   0.96152   0.00000  Uiso   1.00
H1926  H     0.03712   0.76845   0.63843   0.00000  Uiso   1.00
H1927  H     0.02136   0.69487   0.60927   0.00000  Uiso   1.00
H1928  H     0.04206   0.69644   0.65159   0.00000  Uiso   1.00
H1929  H     0.07666   0.68548   0.60204   0.00000  Uiso   1.00
H1930  H     0.15070   0.72734   0.91527   0.00000  Uiso   1.00
H1931  H     0.19256   0.70907   0.93083   0.00000  Uiso   1.00
H1932  H     0.19942   0.72937   0.84681   0.00000  Uiso   1.00
H1933  H     0.24275   0.71542   0.86259   0.00000  Uiso   1.00
H1934  H     0.20304   0.97995   0.87863   0.00000  Uiso   1.00
H1935  H     0.20792   0.98736   0.82790   0.00000  Uiso   1.00
H1936  H     0.05295   0.90434   0.54269   0.00000  Uiso   1.00
H1937  H     0.15757   0.99324   0.86523   0.00000  Uiso   1.00
H1938  H     0.05502   0.88112   0.58600   0.00000  Uiso   1.00
H1939  H     0.00448   0.88718   0.57819   0.00000  Uiso   1.00
H1940  H     0.01700   0.81414   0.83617   0.00000  Uiso   1.00
H1941  H     0.01313   0.76461   0.80426   0.00000  Uiso   1.00
O1942  O     0.16667   0.83333   0.75000   0.00000  Uiso   1.00
O1943  O     0.15693   0.79060   0.66625   0.00000  Uiso   1.00
O1944  O     0.12687   0.87313   0.83749   0.00000  Uiso   1.00
O1945  O     0.21088   0.84159   0.65877   0.00000  Uiso   1.00
O1946  O     0.17198   0.82802   0.83749   0.00000  Uiso   1.00
O1947  O     0.03634   0.83970   0.54148   0.00000  Uiso   1.00
O1948  O     0.31041   0.81101   0.79923   0.00000  Uiso   1.00
O1949  O     0.12012   0.99717   0.79816   0.00000  Uiso   1.00
O1950  O     0.14542   0.84773   0.60108   0.00000  Uiso   1.00
O1951  O     0.25218   0.75967   0.60070   0.00000  Uiso   1.00
O1952  O     0.02564   0.85804   0.97739   0.00000  Uiso   1.00
O1953  O     0.17849   0.74768   0.77821   0.00000  Uiso   1.00
O1954  O     0.06107   0.87881   0.90191   0.00000  Uiso   1.00
O1955  O     0.19896   0.84418   0.90371   0.00000  Uiso   1.00
O1956  O     0.08437   0.80619   0.57800   0.00000  Uiso   1.00
O1957  O     0.20248   0.77129   0.91680   0.00000  Uiso   1.00
O1958  O     0.14581   0.92803   0.76767   0.00000  Uiso   1.00
O1959  O     0.07452   0.79917   0.73607   0.00000  Uiso   1.00
O1960  O     0.26785   0.85845   0.71806   0.00000  Uiso   1.00
O1961  O     0.06990   0.85627   0.77820   0.00000  Uiso   1.00
O1962  O     0.25440   0.81944   0.76768   0.00000  Uiso   1.00
O1963  O     0.13800   0.73570   0.73607   0.00000  Uiso   1.00
O1964  O     0.20437   0.92193   0.71806   0.00000  Uiso   1.00
Zn1965 Zn    0.19244   0.80756   0.78278   0.00000  Uiso   1.00
Zn1966 Zn    0.13459   0.79044   0.72258   0.00000  Uiso   1.00
Zn1967 Zn    0.21166   0.86331   0.71188   0.00000  Uiso   1.00
Zn1968 Zn    0.12798   0.87202   0.78277   0.00000  Uiso   1.00
C1969  C     0.38595   0.82698   0.75874   0.00000  Uiso   1.00
C1970  C     0.52779   0.78404   0.95715   0.00000  Uiso   1.00
C1971  C     0.55306   0.77046   0.97788   0.00000  Uiso   1.00
C1972  C     0.61426   0.83987   0.74143   0.00000  Uiso   1.00
C1973  C     0.54473   0.78014   0.51894   0.00000  Uiso   1.00
C1974  C     0.50939   0.80257   0.54028   0.00000  Uiso   1.00
C1975  C     0.57075   0.76666   0.53902   0.00000  Uiso   1.00
C1976  C     0.56309   0.77672   0.58016   0.00000  Uiso   1.00
C1977  C     0.50555   0.81736   0.58083   0.00000  Uiso   1.00
C1978  C     0.65986   0.84019   0.73786   0.00000  Uiso   1.00
C1979  C     0.33997   0.82429   0.76477   0.00000  Uiso   1.00
C1980  C     0.42000   0.86343   0.92062   0.00000  Uiso   1.00
C1981  C     0.51141   0.98865   0.73886   0.00000  Uiso   1.00
C1982  C     0.48309   0.67944   0.76481   0.00000  Uiso   1.00
C1983  C     0.48926   0.72303   0.75915   0.00000  Uiso   1.00
C1984  C     0.50975   0.94436   0.74174   0.00000  Uiso   1.00
C1985  C     0.52131   0.81196   0.64394   0.00000  Uiso   1.00
C1986  C     0.47831   0.85410   0.85656   0.00000  Uiso   1.00
C1987  C     0.46252   0.85528   0.90029   0.00000  Uiso   1.00
C1988  C     0.53046   0.80211   0.60090   0.00000  Uiso   1.00
C1989  C     0.40180   0.85269   0.95936   0.00000  Uiso   1.00
C1990  C     0.37118   0.87987   0.56285   0.00000  Uiso   1.00
C1991  C     0.48832   0.84171   0.92071   0.00000  Uiso   1.00
C1992  C     0.66234   0.79120   0.82221   0.00000  Uiso   1.00
C1993  C     0.41980   0.68945   0.81746   0.00000  Uiso   1.00
C1994  C     0.42972   0.71695   0.85348   0.00000  Uiso   1.00
C1995  C     0.39604   0.74743   0.87289   0.00000  Uiso   1.00
C1996  C     0.49948   0.88716   0.59093   0.00000  Uiso   1.00
C1997  C     0.62692   0.78107   0.59438   0.00000  Uiso   1.00
C1998  C     0.33385   0.82176   0.96682   0.00000  Uiso   1.00
C1999  C     0.40157   0.92306   0.90491   0.00000  Uiso   1.00
C2000  C     0.37122   0.94294   0.94291   0.00000  Uiso   1.00
C2001  C     0.37299   0.99013   0.94320   0.00000  Uiso   1.00
C2002  C     0.46982   0.82837   0.95891   0.00000  Uiso   1.00
C2003  C     0.55068   0.88303   0.91787   0.00000  Uiso   1.00
C2004  C     0.40899   0.76229   0.57685   0.00000  Uiso   1.00
C2005  C     0.39708   0.75060   0.61925   0.00000  Uiso   1.00
C2006  C     0.38346   0.70390   0.62047   0.00000  Uiso   1.00
C2007  C     0.51936   0.72904   0.91055   0.00000  Uiso   1.00
C2008  C     0.54064   0.71153   0.86781   0.00000  Uiso   1.00
C2009  C     0.52628   0.99851   0.85950   0.00000  Uiso   1.00
C2010  C     0.42723   0.83759   0.97969   0.00000  Uiso   1.00
C2011  C     0.49345   0.80856   0.97802   0.00000  Uiso   1.00
C2012  C     0.48011   0.81057   0.51998   0.00000  Uiso   1.00
C2013  C     0.43668   0.81663   0.53981   0.00000  Uiso   1.00
C2014  C     0.41106   0.83161   0.52033   0.00000  Uiso   1.00
H2015  H     0.59638   0.74748   0.52297   0.00000  Uiso   1.00
H2016  H     0.63629   0.77832   0.84662   0.00000  Uiso   1.00
H2017  H     0.39029   0.66837   0.82857   0.00000  Uiso   1.00
H2018  H     0.41157   0.70821   0.79725   0.00000  Uiso   1.00
H2019  H     0.43083   0.69664   0.87564   0.00000  Uiso   1.00
H2020  H     0.46143   0.73519   0.84461   0.00000  Uiso   1.00
H2021  H     0.39745   0.77061   0.85234   0.00000  Uiso   1.00
H2022  H     0.40272   0.76445   0.90041   0.00000  Uiso   1.00
H2023  H     0.36337   0.73052   0.88077   0.00000  Uiso   1.00
H2024  H     0.50472   0.88979   0.55884   0.00000  Uiso   1.00
H2025  H     0.53049   0.89371   0.59886   0.00000  Uiso   1.00
H2026  H     0.34961   0.85326   0.71257   0.00000  Uiso   1.00
H2027  H     0.47853   0.91153   0.60812   0.00000  Uiso   1.00
H2028  H     0.62570   0.81540   0.60271   0.00000  Uiso   1.00
H2029  H     0.64620   0.77429   0.56306   0.00000  Uiso   1.00
H2030  H     0.64332   0.76987   0.61370   0.00000  Uiso   1.00
H2031  H     0.34177   0.79357   0.97671   0.00000  Uiso   1.00
H2032  H     0.33740   0.81688   0.93427   0.00000  Uiso   1.00
H2033  H     0.63296   0.82582   0.98201   0.00000  Uiso   1.00
H2034  H     0.39469   0.93303   0.87883   0.00000  Uiso   1.00
H2035  H     0.43560   0.93515   0.90335   0.00000  Uiso   1.00
H2036  H     0.33774   0.92886   0.94528   0.00000  Uiso   1.00
H2037  H     0.53606   0.66851   0.71457   0.00000  Uiso   1.00
H2038  H     0.38049   0.93689   0.96925   0.00000  Uiso   1.00
H2039  H     0.40610   0.67160   0.94135   0.00000  Uiso   1.00
H2040  H     0.35104   0.67011   0.97126   0.00000  Uiso   1.00
H2041  H     0.36262   0.99736   0.91786   0.00000  Uiso   1.00
H2042  H     0.54540   0.88594   0.95064   0.00000  Uiso   1.00
H2043  H     0.53803   0.90949   0.90951   0.00000  Uiso   1.00
H2044  H     0.58586   0.88518   0.90392   0.00000  Uiso   1.00
H2045  H     0.43729   0.74564   0.55908   0.00000  Uiso   1.00
H2046  H     0.38180   0.75165   0.56364   0.00000  Uiso   1.00
H2047  H     0.42525   0.75911   0.63140   0.00000  Uiso   1.00
H2048  H     0.57953   0.75240   0.96152   0.00000  Uiso   1.00
H2049  H     0.37045   0.76845   0.63843   0.00000  Uiso   1.00
H2050  H     0.35469   0.69487   0.60927   0.00000  Uiso   1.00
H2051  H     0.37540   0.69644   0.65159   0.00000  Uiso   1.00
H2052  H     0.40999   0.68548   0.60204   0.00000  Uiso   1.00
H2053  H     0.48404   0.72734   0.91527   0.00000  Uiso   1.00
H2054  H     0.52589   0.70907   0.93083   0.00000  Uiso   1.00
H2055  H     0.53275   0.72937   0.84681   0.00000  Uiso   1.00
H2056  H     0.57608   0.71542   0.86259   0.00000  Uiso   1.00
H2057  H     0.53637   0.97995   0.87863   0.00000  Uiso   1.00
H2058  H     0.54126   0.98736   0.82790   0.00000  Uiso   1.00
H2059  H     0.38629   0.90434   0.54269   0.00000  Uiso   1.00
H2060  H     0.49091   0.99324   0.86523   0.00000  Uiso   1.00
H2061  H     0.38835   0.88112   0.58600   0.00000  Uiso   1.00
H2062  H     0.33781   0.88718   0.57819   0.00000  Uiso   1.00
H2063  H     0.35034   0.81414   0.83617   0.00000  Uiso   1.00
H2064  H     0.34646   0.76461   0.80426   0.00000  Uiso   1.00
O2065  O     0.50000   0.83333   0.75000   0.00000  Uiso   1.00
O2066  O     0.49027   0.79060   0.66625   0.00000  Uiso   1.00
O2067  O     0.46020   0.87313   0.83749   0.00000  Uiso   1.00
O2068  O     0.54421   0.84159   0.65877   0.00000  Uiso   1.00
O2069  O     0.50532   0.82802   0.83749   0.00000  Uiso   1.00
O2070  O     0.36967   0.83970   0.54148   0.00000  Uiso   1.00
O2071  O     0.64375   0.81101   0.79923   0.00000  Uiso   1.00
O2072  O     0.45345   0.99717   0.79816   0.00000  Uiso   1.00
O2073  O     0.47875   0.84773   0.60108   0.00000  Uiso   1.00
O2074  O     0.58551   0.75967   0.60070   0.00000  Uiso   1.00
O2075  O     0.35898   0.85804   0.97739   0.00000  Uiso   1.00
O2076  O     0.51182   0.74768   0.77821   0.00000  Uiso   1.00
O2077  O     0.39441   0.87881   0.90191   0.00000  Uiso   1.00
O2078  O     0.53229   0.84418   0.90371   0.00000  Uiso   1.00
O2079  O     0.41770   0.80619   0.57800   0.00000  Uiso   1.00
O2080  O     0.53581   0.77129   0.91680   0.00000  Uiso   1.00
O2081  O     0.47914   0.92803   0.76767   0.00000  Uiso   1.00
O2082  O     0.40785   0.79917   0.73607   0.00000  Uiso   1.00
O2083  O     0.60119   0.85845   0.71806   0.00000  Uiso   1.00
O2084  O     0.40323   0.85627   0.77820   0.00000  Uiso   1.00
O2085  O     0.58773   0.81944   0.76768   0.00000  Uiso   1.00
O2086  O     0.47133   0.73570   0.73607   0.00000  Uiso   1.00
O2087  O     0.53771   0.92193   0.71806   0.00000  Uiso   1.00
Zn2088 Zn    0.52577   0.80756   0.78278   0.00000  Uiso   1.00
Zn2089 Zn    0.46792   0.79044   0.72258   0.00000  Uiso   1.00
Zn2090 Zn    0.54500   0.86331   0.71188   0.00000  Uiso   1.00
Zn2091 Zn    0.46131   0.87202   0.78277   0.00000  Uiso   1.00
C2092  C     0.71929   0.82698   0.75874   0.00000  Uiso   1.00
C2093  C     0.86112   0.78404   0.95715   0.00000  Uiso   1.00
C2094  C     0.88639   0.77046   0.97788   0.00000  Uiso   1.00
C2095  C     0.94759   0.83987   0.74143   0.00000  Uiso   1.00
C2096  C     0.87806   0.78014   0.51894   0.00000  Uiso   1.00
C2097  C     0.84272   0.80257   0.54028   0.00000  Uiso   1.00
C2098  C     0.90409   0.76666   0.53902   0.00000  Uiso   1.00
C2099  C     0.89642   0.77672   0.58016   0.00000  Uiso   1.00
C2100  C     0.83889   0.81736   0.58083   0.00000  Uiso   1.00
C2101  C     0.99319   0.84019   0.73786   0.00000  Uiso   1.00
C2102  C     0.67330   0.82429   0.76477   0.00000  Uiso   1.00
C2103  C     0.75334   0.86343   0.92062   0.00000  Uiso   1.00
C2104  C     0.84474   0.98865   0.73886   0.00000  Uiso   1.00
C2105  C     0.81643   0.67944   0.76481   0.00000  Uiso   1.00
C2106  C     0.82259   0.72303   0.75915   0.00000  Uiso   1.00
C2107  C     0.84308   0.94436   0.74174   0.00000  Uiso   1.00
C2108  C     0.85465   0.81196   0.64394   0.00000  Uiso   1.00
C2109  C     0.81165   0.85410   0.85656   0.00000  Uiso   1.00
C2110  C     0.79585   0.85528   0.90029   0.00000  Uiso   1.00
C2111  C     0.86379   0.80211   0.60090   0.00000  Uiso   1.00
C2112  C     0.73513   0.85269   0.95936   0.00000  Uiso   1.00
C2113  C     0.70451   0.87987   0.56285   0.00000  Uiso   1.00
C2114  C     0.82165   0.84171   0.92071   0.00000  Uiso   1.00
C2115  C     0.99568   0.79120   0.82221   0.00000  Uiso   1.00
C2116  C     0.75313   0.68945   0.81746   0.00000  Uiso   1.00
C2117  C     0.76306   0.71695   0.85348   0.00000  Uiso   1.00
C2118  C     0.72937   0.74743   0.87289   0.00000  Uiso   1.00
C2119  C     0.83281   0.88716   0.59093   0.00000  Uiso   1.00
C2120  C     0.96025   0.78107   0.59438   0.00000  Uiso   1.00
C2121  C     0.66718   0.82176   0.96682   0.00000  Uiso   1.00
C2122  C     0.73490   0.92306   0.90491   0.00000  Uiso   1.00
C2123  C     0.70455   0.94294   0.94291   0.00000  Uiso   1.00
C2124  C     0.70632   0.99013   0.94320   0.00000  Uiso   1.00
C2125  C     0.80316   0.82837   0.95891   0.00000  Uiso   1.00
C2126  C     0.88401   0.88303   0.91787   0.00000  Uiso   1.00
C2127  C     0.74232   0.76229   0.57685   0.00000  Uiso   1.00
C2128  C     0.73042   0.75060   0.61925   0.00000  Uiso   1.00
C2129  C     0.71679   0.70390   0.62047   0.00000  Uiso   1.00
C2130  C     0.85269   0.72904   0.91055   0.00000  Uiso   1.00
C2131  C     0.87397   0.71153   0.86781   0.00000  Uiso   1.00
C2132  C     0.85961   0.99851   0.85950   0.00000  Uiso   1.00
C2133  C     0.76056   0.83759   0.97969   0.00000  Uiso   1.00
C2134  C     0.82678   0.80856   0.97802   0.00000  Uiso   1.00
C2135  C     0.81344   0.81057   0.51998   0.00000  Uiso   1.00
C2136  C     0.77001   0.81663   0.53981   0.00000  Uiso   1.00
C2137  C     0.74439   0.83161   0.52033   0.00000  Uiso   1.00
H2138  H     0.92972   0.74748   0.52297   0.00000  Uiso   1.00
H2139  H     0.96962   0.77832   0.84662   0.00000  Uiso   1.00
H2140  H     0.72363   0.66837   0.82857   0.00000  Uiso   1.00
H2141  H     0.74490   0.70821   0.79725   0.00000  Uiso   1.00
H2142  H     0.76416   0.69664   0.87564   0.00000  Uiso   1.00
H2143  H     0.79477   0.73519   0.84461   0.00000  Uiso   1.00
H2144  H     0.73078   0.77061   0.85234   0.00000  Uiso   1.00
H2145  H     0.73605   0.76445   0.90041   0.00000  Uiso   1.00
H2146  H     0.69670   0.73052   0.88077   0.00000  Uiso   1.00
H2147  H     0.83806   0.88979   0.55884   0.00000  Uiso   1.00
H2148  H     0.86382   0.89371   0.59886   0.00000  Uiso   1.00
H2149  H     0.68294   0.85326   0.71257   0.00000  Uiso   1.00
H2150  H     0.81186   0.91153   0.60812   0.00000  Uiso   1.00
H2151  H     0.95904   0.81540   0.60271   0.00000  Uiso   1.00
H2152  H     0.97953   0.77429   0.56306   0.00000  Uiso   1.00
H2153  H     0.97665   0.76987   0.61370   0.00000  Uiso   1.00
H2154  H     0.67510   0.79357   0.97671   0.00000  Uiso   1.00
H2155  H     0.67074   0.81688   0.93427   0.00000  Uiso   1.00
H2156  H     0.96630   0.82582   0.98201   0.00000  Uiso   1.00
H2157  H     0.72802   0.93303   0.87883   0.00000  Uiso   1.00
H2158  H     0.76894   0.93515   0.90335   0.00000  Uiso   1.00
H2159  H     0.67108   0.92886   0.94528   0.00000  Uiso   1.00
H2160  H     0.86939   0.66851   0.71457   0.00000  Uiso   1.00
H2161  H     0.71382   0.93689   0.96925   0.00000  Uiso   1.00
H2162  H     0.73943   0.67160   0.94135   0.00000  Uiso   1.00
H2163  H     0.68437   0.67011   0.97126   0.00000  Uiso   1.00
H2164  H     0.69595   0.99736   0.91786   0.00000  Uiso   1.00
H2165  H     0.87873   0.88594   0.95064   0.00000  Uiso   1.00
H2166  H     0.87137   0.90949   0.90951   0.00000  Uiso   1.00
H2167  H     0.91919   0.88518   0.90392   0.00000  Uiso   1.00
H2168  H     0.77062   0.74564   0.55908   0.00000  Uiso   1.00
H2169  H     0.71513   0.75165   0.56364   0.00000  Uiso   1.00
H2170  H     0.75858   0.75911   0.63140   0.00000  Uiso   1.00
H2171  H     0.91286   0.75240   0.96152   0.00000  Uiso   1.00
H2172  H     0.70379   0.76845   0.63843   0.00000  Uiso   1.00
H2173  H     0.68802   0.69487   0.60927   0.00000  Uiso   1.00
H2174  H     0.70873   0.69644   0.65159   0.00000  Uiso   1.00
H2175  H     0.74332   0.68548   0.60204   0.00000  Uiso   1.00
H2176  H     0.81737   0.72734   0.91527   0.00000  Uiso   1.00
H2177  H     0.85922   0.70907   0.93083   0.00000  Uiso   1.00
H2178  H     0.86609   0.72937   0.84681   0.00000  Uiso   1.00
H2179  H     0.90941   0.71542   0.86259   0.00000  Uiso   1.00
H2180  H     0.86970   0.97995   0.87863   0.00000  Uiso   1.00
H2181  H     0.87459   0.98736   0.82790   0.00000  Uiso   1.00
H2182  H     0.71962   0.90434   0.54269   0.00000  Uiso   1.00
H2183  H     0.82424   0.99324   0.86523   0.00000  Uiso   1.00
H2184  H     0.72168   0.88112   0.58600   0.00000  Uiso   1.00
H2185  H     0.67115   0.88718   0.57819   0.00000  Uiso   1.00
H2186  H     0.68367   0.81414   0.83617   0.00000  Uiso   1.00
H2187  H     0.67980   0.76461   0.80426   0.00000  Uiso   1.00
O2188  O     0.83333   0.83333   0.75000   0.00000  Uiso   1.00
O2189  O     0.82360   0.79060   0.66625   0.00000  Uiso   1.00
O2190  O     0.79354   0.87313   0.83749   0.00000  Uiso   1.00
O2191  O     0.87755   0.84159   0.65877   0.00000  Uiso   1.00
O2192  O     0.83865   0.82802   0.83749   0.00000  Uiso   1.00
O2193  O     0.70301   0.83970   0.54148   0.00000  Uiso   1.00
O2194  O     0.97708   0.81101   0.79923   0.00000  Uiso   1.00
O2195  O     0.78678   0.99717   0.79816   0.00000  Uiso   1.00
O2196  O     0.81208   0.84773   0.60108   0.00000  Uiso   1.00
O2197  O     0.91884   0.75967   0.60070   0.00000  Uiso   1.00
O2198  O     0.69231   0.85804   0.97739   0.00000  Uiso   1.00
O2199  O     0.84515   0.74768   0.77821   0.00000  Uiso   1.00
O2200  O     0.72774   0.87881   0.90191   0.00000  Uiso   1.00
O2201  O     0.86562   0.84418   0.90371   0.00000  Uiso   1.00
O2202  O     0.75104   0.80619   0.57800   0.00000  Uiso   1.00
O2203  O     0.86915   0.77129   0.91680   0.00000  Uiso   1.00
O2204  O     0.81247   0.92803   0.76767   0.00000  Uiso   1.00
O2205  O     0.74119   0.79917   0.73607   0.00000  Uiso   1.00
O2206  O     0.93452   0.85845   0.71806   0.00000  Uiso   1.00
O2207  O     0.73656   0.85627   0.77820   0.00000  Uiso   1.00
O2208  O     0.92106   0.81944   0.76768   0.00000  Uiso   1.00
O2209  O     0.80467   0.73570   0.73607   0.00000  Uiso   1.00
O2210  O     0.87104   0.92193   0.71806   0.00000  Uiso   1.00
Zn2211 Zn    0.85910   0.80756   0.78278   0.00000  Uiso   1.00
Zn2212 Zn    0.80125   0.79044   0.72258   0.00000  Uiso   1.00
Zn2213 Zn    0.87833   0.86331   0.71188   0.00000  Uiso   1.00
Zn2214 Zn    0.79465   0.87202   0.78277   0.00000  Uiso   1.00
loop_
_geom_bond_atom_site_label_1
_geom_bond_atom_site_label_2
_geom_bond_distance
_geom_bond_site_symmetry_2
_ccdc_geom_bond_type
C1     C11     1.448   .     S
C1     O116    1.259   .     A
C1     O114    1.266   .     A
C2     O112    1.385   .     S
C2     C43     1.425   .     A
C2     C3      1.400   .     A
C3     H80     1.085   .     S
C3     C1112   1.394   .     S
C4     O115    1.286   .     A
C4     C10     1.458   .     S
C4     O117    1.270   .     A
C5     C6      1.414   .     A
C5     C7      1.401   .     A
C5     C1110   1.394   1_554 S
C6     C9      1.419   .     A
C6     C44     1.421   .     A
C7     C8      1.400   .     A
C7     H47     1.084   .     S
C8     C20     1.402   .     A
C8     O106    1.382   .     S
C9     O105    1.385   .     S
C9     C20     1.400   .     A
C10    C134    1.347   .     S
C10    H181    1.088   .     S
C11    C256    1.347   1_455 S
C11    O349    1.402   1_455 S
C12    O109    1.385   .     S
C12    C21     1.403   .     A
C12    C19     1.409   .     A
C13    C16     1.450   .     S
C13    C383    1.344   .     S
C13    H438    1.089   .     S
C14    C15     1.438   .     S
C14    C751    1.344   1_545 S
C14    O842    1.403   1_545 S
C15    O108    1.268   .     A
C15    O118    1.273   .     A
C16    O113    1.262   .     A
C16    O119    1.275   .     A
C17    C20     1.460   .     S
C17    O98     1.281   .     A
C17    O100    1.283   .     A
C18    C19     1.479   .     S
C18    O101    1.282   .     A
C18    O99     1.281   .     A
C19    C23     1.405   .     A
C21    O107    1.383   .     S
C21    C42     1.417   .     A
C22    H91     1.114   .     S
C22    H94     1.109   .     S
C22    H93     1.113   .     S
C22    O102    1.411   .     S
C23    C34     1.417   .     A
C23    O110    1.385   .     S
C24    H48     1.109   .     S
C24    O103    1.411   .     S
C24    H218    1.111   .     S
C24    H219    1.113   .     S
C25    H50     1.113   .     S
C25    C26     1.534   .     S
C25    H49     1.111   .     S
C25    O842    1.420   1_545 S
C26    C27     1.524   .     S
C26    H52     1.106   .     S
C26    H51     1.108   .     S
C27    H54     1.111   .     S
C27    H55     1.111   .     S
C27    H53     1.109   .     S
C28    H56     1.113   .     S
C28    H57     1.114   .     S
C28    H59     1.109   .     S
C28    O105    1.410   .     S
C29    H61     1.112   .     S
C29    H60     1.114   .     S
C29    O106    1.407   .     S
C29    H62     1.107   .     S
C30    H64     1.113   .     S
C30    O107    1.411   .     S
C30    H63     1.114   .     S
C30    H311    1.108   1_455 S
C31    H66     1.111   .     S
C31    H67     1.117   .     S
C31    C32     1.535   .     S
C31    O109    1.419   .     S
C32    H68     1.112   .     S
C32    H70     1.110   .     S
C32    C33     1.525   .     S
C33    H73     1.110   .     S
C33    H440    1.111   .     S
C33    H441    1.110   .     S
C34    C42     1.423   .     A
C34    C43     1.426   .     A
C35    H74     1.113   .     S
C35    H76     1.109   .     S
C35    H75     1.113   .     S
C35    O110    1.410   .     S
C36    C37     1.528   .     S
C36    H77     1.115   .     S
C36    O111    1.413   .     S
C36    H78     1.112   .     S
C37    C38     1.526   .     S
C37    H81     1.111   .     S
C37    H79     1.111   .     S
C38    H83     1.110   .     S
C38    H82     1.111   .     S
C38    H84     1.111   .     S
C39    C40     1.530   .     S
C39    H85     1.113   .     S
C39    O112    1.415   .     S
C39    H86     1.116   .     S
C40    H87     1.110   .     S
C40    H88     1.112   .     S
C40    C779    1.528   1_545 S
C41    H89     1.111   .     S
C41    H90     1.110   .     S
C41    H92     1.108   .     S
C41    C409    1.528   .     S
C42    C1153   1.414   .     S
C43    C1151   1.415   .     S
C44    C45     1.416   .     A
C44    C1150   1.415   1_554 S
C45    C46     1.399   .     A
C45    O111    1.385   .     S
C46    O102    1.383   .     S
C46    C1149   1.414   1_554 S
H58    C256    1.088   1_455 S
H65    C153    1.108   .     S
H69    C751    1.089   1_545 S
H71    C771    1.111   1_545 S
H72    C771    1.110   1_545 S
H95    C270    1.111   1_455 S
H96    C270    1.113   1_455 S
O97    Zn121   1.943   .     S
O97    Zn122   1.944   .     S
O97    Zn120   1.949   .     S
O97    Zn123   1.918   .     S
O98    Zn121   1.914   .     S
O99    Zn123   1.921   .     S
O100   Zn122   1.913   .     S
O101   Zn120   1.905   .     S
O103   C134    1.402   .     S
O104   C383    1.403   .     S
O104   C394    1.420   .     S
O108   Zn120   1.931   .     S
O113   Zn123   1.938   .     S
O114   Zn121   1.932   .     S
O115   Zn122   1.941   .     S
O116   Zn123   1.945   .     S
O117   Zn120   1.939   .     S
O118   Zn121   1.934   .     S
O119   Zn122   1.925   .     S
C124   C134    1.448   .     S
C124   O239    1.259   .     A
C124   O237    1.266   .     A
C125   O235    1.385   .     S
C125   C166    1.425   .     A
C125   C126    1.400   .     A
C126   H203    1.085   .     S
C126   C1235   1.394   .     S
C127   O238    1.286   .     A
C127   C133    1.458   .     S
C127   O240    1.270   .     A
C128   C129    1.414   .     A
C128   C130    1.401   .     A
C128   C1233   1.394   1_554 S
C129   C132    1.419   .     A
C129   C167    1.421   .     A
C130   C131    1.400   .     A
C130   H170    1.084   .     S
C131   C143    1.402   .     A
C131   O229    1.382   .     S
C132   O228    1.385   .     S
C132   C143    1.400   .     A
C133   C257    1.347   .     S
C133   H304    1.088   .     S
C135   O232    1.385   .     S
C135   C144    1.403   .     A
C135   C142    1.409   .     A
C136   C139    1.450   .     S
C136   C506    1.344   .     S
C136   H561    1.089   .     S
C137   C138    1.438   .     S
C137   C874    1.344   1_545 S
C137   O965    1.403   1_545 S
C138   O231    1.268   .     A
C138   O241    1.273   .     A
C139   O236    1.262   .     A
C139   O242    1.275   .     A
C140   C143    1.460   .     S
C140   O221    1.281   .     A
C140   O223    1.283   .     A
C141   C142    1.479   .     S
C141   O224    1.282   .     A
C141   O222    1.281   .     A
C142   C146    1.405   .     A
C144   O230    1.383   .     S
C144   C165    1.417   .     A
C145   H214    1.114   .     S
C145   H217    1.109   .     S
C145   H216    1.113   .     S
C145   O225    1.411   .     S
C146   C157    1.417   .     A
C146   O233    1.385   .     S
C147   H171    1.109   .     S
C147   O226    1.411   .     S
C147   H341    1.111   .     S
C147   H342    1.113   .     S
C148   H173    1.113   .     S
C148   C149    1.534   .     S
C148   H172    1.111   .     S
C148   O965    1.420   1_545 S
C149   C150    1.524   .     S
C149   H175    1.106   .     S
C149   H174    1.108   .     S
C150   H177    1.111   .     S
C150   H178    1.111   .     S
C150   H176    1.109   .     S
C151   H179    1.113   .     S
C151   H180    1.114   .     S
C151   H182    1.109   .     S
C151   O228    1.410   .     S
C152   H184    1.112   .     S
C152   H183    1.114   .     S
C152   O229    1.407   .     S
C152   H185    1.107   .     S
C153   H187    1.113   .     S
C153   O230    1.411   .     S
C153   H186    1.114   .     S
C154   H189    1.111   .     S
C154   H190    1.117   .     S
C154   C155    1.535   .     S
C154   O232    1.419   .     S
C155   H191    1.112   .     S
C155   H193    1.110   .     S
C155   C156    1.525   .     S
C156   H196    1.110   .     S
C156   H563    1.111   .     S
C156   H564    1.110   .     S
C157   C165    1.423   .     A
C157   C166    1.426   .     A
C158   H197    1.113   .     S
C158   H199    1.109   .     S
C158   H198    1.113   .     S
C158   O233    1.410   .     S
C159   C160    1.528   .     S
C159   H200    1.115   .     S
C159   O234    1.413   .     S
C159   H201    1.112   .     S
C160   C161    1.526   .     S
C160   H204    1.111   .     S
C160   H202    1.111   .     S
C161   H206    1.110   .     S
C161   H205    1.111   .     S
C161   H207    1.111   .     S
C162   C163    1.530   .     S
C162   H208    1.113   .     S
C162   O235    1.415   .     S
C162   H209    1.116   .     S
C163   H210    1.110   .     S
C163   H211    1.112   .     S
C163   C902    1.528   1_545 S
C164   H212    1.111   .     S
C164   H213    1.110   .     S
C164   H215    1.108   .     S
C164   C532    1.528   .     S
C165   C1276   1.414   .     S
C166   C1274   1.415   .     S
C167   C168    1.416   .     A
C167   C1273   1.415   1_554 S
C168   C169    1.399   .     A
C168   O234    1.385   .     S
C169   O225    1.383   .     S
C169   C1272   1.414   1_554 S
H188   C276    1.108   .     S
H192   C874    1.089   1_545 S
H194   C894    1.111   1_545 S
H195   C894    1.110   1_545 S
O220   Zn244   1.943   .     S
O220   Zn245   1.944   .     S
O220   Zn243   1.949   .     S
O220   Zn246   1.918   .     S
O221   Zn244   1.914   .     S
O222   Zn246   1.921   .     S
O223   Zn245   1.913   .     S
O224   Zn243   1.905   .     S
O226   C257    1.402   .     S
O227   C506    1.403   .     S
O227   C517    1.420   .     S
O231   Zn243   1.931   .     S
O236   Zn246   1.938   .     S
O237   Zn244   1.932   .     S
O238   Zn245   1.941   .     S
O239   Zn246   1.945   .     S
O240   Zn243   1.939   .     S
O241   Zn244   1.934   .     S
O242   Zn245   1.925   .     S
C247   C257    1.448   .     S
C247   O362    1.259   .     A
C247   O360    1.266   .     A
C248   O358    1.385   .     S
C248   C289    1.425   .     A
C248   C249    1.400   .     A
C249   H326    1.085   .     S
C249   C1358   1.394   .     S
C250   O361    1.286   .     A
C250   C256    1.458   .     S
C250   O363    1.270   .     A
C251   C252    1.414   .     A
C251   C253    1.401   .     A
C251   C1356   1.394   1_554 S
C252   C255    1.419   .     A
C252   C290    1.421   .     A
C253   C254    1.400   .     A
C253   H293    1.084   .     S
C254   C266    1.402   .     A
C254   O352    1.382   .     S
C255   O351    1.385   .     S
C255   C266    1.400   .     A
C256   C11     1.347   1_655 S
C256   H58     1.088   1_655 S
C258   O355    1.385   .     S
C258   C267    1.403   .     A
C258   C265    1.409   .     A
C259   C262    1.450   .     S
C259   C629    1.344   .     S
C259   H684    1.089   .     S
C260   C261    1.438   .     S
C260   C997    1.344   1_545 S
C260   O1088   1.403   1_545 S
C261   O354    1.268   .     A
C261   O364    1.273   .     A
C262   O359    1.262   .     A
C262   O365    1.275   .     A
C263   C266    1.460   .     S
C263   O344    1.281   .     A
C263   O346    1.283   .     A
C264   C265    1.479   .     S
C264   O347    1.282   .     A
C264   O345    1.281   .     A
C265   C269    1.405   .     A
C267   O353    1.383   .     S
C267   C288    1.417   .     A
C268   H337    1.114   .     S
C268   H340    1.109   .     S
C268   H339    1.113   .     S
C268   O348    1.411   .     S
C269   C280    1.417   .     A
C269   O356    1.385   .     S
C270   H294    1.109   .     S
C270   O349    1.411   .     S
C270   H95     1.111   1_655 S
C270   H96     1.113   1_655 S
C271   H296    1.113   .     S
C271   C272    1.534   .     S
C271   H295    1.111   .     S
C271   O1088   1.420   1_545 S
C272   C273    1.524   .     S
C272   H298    1.106   .     S
C272   H297    1.108   .     S
C273   H300    1.111   .     S
C273   H301    1.111   .     S
C273   H299    1.109   .     S
C274   H302    1.113   .     S
C274   H303    1.114   .     S
C274   H305    1.109   .     S
C274   O351    1.410   .     S
C275   H307    1.112   .     S
C275   H306    1.114   .     S
C275   O352    1.407   .     S
C275   H308    1.107   .     S
C276   H310    1.113   .     S
C276   O353    1.411   .     S
C276   H309    1.114   .     S
C277   H312    1.111   .     S
C277   H313    1.117   .     S
C277   C278    1.535   .     S
C277   O355    1.419   .     S
C278   H314    1.112   .     S
C278   H316    1.110   .     S
C278   C279    1.525   .     S
C279   H319    1.110   .     S
C279   H686    1.111   .     S
C279   H687    1.110   .     S
C280   C288    1.423   .     A
C280   C289    1.426   .     A
C281   H320    1.113   .     S
C281   H322    1.109   .     S
C281   H321    1.113   .     S
C281   O356    1.410   .     S
C282   C283    1.528   .     S
C282   H323    1.115   .     S
C282   O357    1.413   .     S
C282   H324    1.112   .     S
C283   C284    1.526   .     S
C283   H327    1.111   .     S
C283   H325    1.111   .     S
C284   H329    1.110   .     S
C284   H328    1.111   .     S
C284   H330    1.111   .     S
C285   C286    1.530   .     S
C285   H331    1.113   .     S
C285   O358    1.415   .     S
C285   H332    1.116   .     S
C286   H333    1.110   .     S
C286   H334    1.112   .     S
C286   C1025   1.528   1_545 S
C287   H335    1.111   .     S
C287   H336    1.110   .     S
C287   H338    1.108   .     S
C287   C655    1.528   .     S
C288   C1399   1.414   .     S
C289   C1397   1.415   .     S
C290   C291    1.416   .     A
C290   C1396   1.415   1_554 S
C291   C292    1.399   .     A
C291   O357    1.385   .     S
C292   O348    1.383   .     S
C292   C1395   1.414   1_554 S
H311   C30     1.108   1_655 S
H315   C997    1.089   1_545 S
H317   C1017   1.111   1_545 S
H318   C1017   1.110   1_545 S
O343   Zn367   1.943   .     S
O343   Zn368   1.944   .     S
O343   Zn366   1.949   .     S
O343   Zn369   1.918   .     S
O344   Zn367   1.914   .     S
O345   Zn369   1.921   .     S
O346   Zn368   1.913   .     S
O347   Zn366   1.905   .     S
O349   C11     1.402   1_655 S
O350   C629    1.403   .     S
O350   C640    1.420   .     S
O354   Zn366   1.931   .     S
O359   Zn369   1.938   .     S
O360   Zn367   1.932   .     S
O361   Zn368   1.941   .     S
O362   Zn369   1.945   .     S
O363   Zn366   1.939   .     S
O364   Zn367   1.934   .     S
O365   Zn368   1.925   .     S
C370   C380    1.448   .     S
C370   O485    1.259   .     A
C370   O483    1.266   .     A
C371   O481    1.385   .     S
C371   C412    1.425   .     A
C371   C372    1.400   .     A
C372   H449    1.085   .     S
C372   C1481   1.394   .     S
C373   O484    1.286   .     A
C373   C379    1.458   .     S
C373   O486    1.270   .     A
C374   C375    1.414   .     A
C374   C376    1.401   .     A
C374   C1479   1.394   1_554 S
C375   C378    1.419   .     A
C375   C413    1.421   .     A
C376   C377    1.400   .     A
C376   H416    1.084   .     S
C377   C389    1.402   .     A
C377   O475    1.382   .     S
C378   O474    1.385   .     S
C378   C389    1.400   .     A
C379   C503    1.347   .     S
C379   H550    1.088   .     S
C380   C625    1.347   1_455 S
C380   O718    1.402   1_455 S
C381   O478    1.385   .     S
C381   C390    1.403   .     A
C381   C388    1.409   .     A
C382   C385    1.450   .     S
C382   C752    1.344   .     S
C382   H807    1.089   .     S
C383   C384    1.438   .     S
C384   O477    1.268   .     A
C384   O487    1.273   .     A
C385   O482    1.262   .     A
C385   O488    1.275   .     A
C386   C389    1.460   .     S
C386   O467    1.281   .     A
C386   O469    1.283   .     A
C387   C388    1.479   .     S
C387   O470    1.282   .     A
C387   O468    1.281   .     A
C388   C392    1.405   .     A
C390   O476    1.383   .     S
C390   C411    1.417   .     A
C391   H460    1.114   .     S
C391   H463    1.109   .     S
C391   H462    1.113   .     S
C391   O471    1.411   .     S
C392   C403    1.417   .     A
C392   O479    1.385   .     S
C393   H417    1.109   .     S
C393   O472    1.411   .     S
C393   H587    1.111   .     S
C393   H588    1.113   .     S
C394   H419    1.113   .     S
C394   C395    1.534   .     S
C394   H418    1.111   .     S
C395   C396    1.524   .     S
C395   H421    1.106   .     S
C395   H420    1.108   .     S
C396   H423    1.111   .     S
C396   H424    1.111   .     S
C396   H422    1.109   .     S
C397   H425    1.113   .     S
C397   H426    1.114   .     S
C397   H428    1.109   .     S
C397   O474    1.410   .     S
C398   H430    1.112   .     S
C398   H429    1.114   .     S
C398   O475    1.407   .     S
C398   H431    1.107   .     S
C399   H433    1.113   .     S
C399   O476    1.411   .     S
C399   H432    1.114   .     S
C399   H680    1.108   1_455 S
C400   H435    1.111   .     S
C400   H436    1.117   .     S
C400   C401    1.535   .     S
C400   O478    1.419   .     S
C401   H437    1.112   .     S
C401   H439    1.110   .     S
C401   C402    1.525   .     S
C402   H442    1.110   .     S
C402   H809    1.111   .     S
C402   H810    1.110   .     S
C403   C411    1.423   .     A
C403   C412    1.426   .     A
C404   H443    1.113   .     S
C404   H445    1.109   .     S
C404   H444    1.113   .     S
C404   O479    1.410   .     S
C405   C406    1.528   .     S
C405   H446    1.115   .     S
C405   O480    1.413   .     S
C405   H447    1.112   .     S
C406   C407    1.526   .     S
C406   H450    1.111   .     S
C406   H448    1.111   .     S
C407   H452    1.110   .     S
C407   H451    1.111   .     S
C407   H453    1.111   .     S
C408   C409    1.530   .     S
C408   H454    1.113   .     S
C408   O481    1.415   .     S
C408   H455    1.116   .     S
C409   H456    1.110   .     S
C409   H457    1.112   .     S
C410   H458    1.111   .     S
C410   H459    1.110   .     S
C410   H461    1.108   .     S
C410   C778    1.528   .     S
C411   C1522   1.414   .     S
C412   C1520   1.415   .     S
C413   C414    1.416   .     A
C413   C1519   1.415   1_554 S
C414   C415    1.399   .     A
C414   O480    1.385   .     S
C415   O471    1.383   .     S
C415   C1518   1.414   1_554 S
H427   C625    1.088   1_455 S
H434   C522    1.108   .     S
H464   C639    1.111   1_455 S
H465   C639    1.113   1_455 S
O466   Zn490   1.943   .     S
O466   Zn491   1.944   .     S
O466   Zn489   1.949   .     S
O466   Zn492   1.918   .     S
O467   Zn490   1.914   .     S
O468   Zn492   1.921   .     S
O469   Zn491   1.913   .     S
O470   Zn489   1.905   .     S
O472   C503    1.402   .     S
O473   C752    1.403   .     S
O473   C763    1.420   .     S
O477   Zn489   1.931   .     S
O482   Zn492   1.938   .     S
O483   Zn490   1.932   .     S
O484   Zn491   1.941   .     S
O485   Zn492   1.945   .     S
O486   Zn489   1.939   .     S
O487   Zn490   1.934   .     S
O488   Zn491   1.925   .     S
C493   C503    1.448   .     S
C493   O608    1.259   .     A
C493   O606    1.266   .     A
C494   O604    1.385   .     S
C494   C535    1.425   .     A
C494   C495    1.400   .     A
C495   H572    1.085   .     S
C495   C1604   1.394   .     S
C496   O607    1.286   .     A
C496   C502    1.458   .     S
C496   O609    1.270   .     A
C497   C498    1.414   .     A
C497   C499    1.401   .     A
C497   C1602   1.394   1_554 S
C498   C501    1.419   .     A
C498   C536    1.421   .     A
C499   C500    1.400   .     A
C499   H539    1.084   .     S
C500   C512    1.402   .     A
C500   O598    1.382   .     S
C501   O597    1.385   .     S
C501   C512    1.400   .     A
C502   C626    1.347   .     S
C502   H673    1.088   .     S
C504   O601    1.385   .     S
C504   C513    1.403   .     A
C504   C511    1.409   .     A
C505   C508    1.450   .     S
C505   C875    1.344   .     S
C505   H930    1.089   .     S
C506   C507    1.438   .     S
C507   O600    1.268   .     A
C507   O610    1.273   .     A
C508   O605    1.262   .     A
C508   O611    1.275   .     A
C509   C512    1.460   .     S
C509   O590    1.281   .     A
C509   O592    1.283   .     A
C510   C511    1.479   .     S
C510   O593    1.282   .     A
C510   O591    1.281   .     A
C511   C515    1.405   .     A
C513   O599    1.383   .     S
C513   C534    1.417   .     A
C514   H583    1.114   .     S
C514   H586    1.109   .     S
C514   H585    1.113   .     S
C514   O594    1.411   .     S
C515   C526    1.417   .     A
C515   O602    1.385   .     S
C516   H540    1.109   .     S
C516   O595    1.411   .     S
C516   H710    1.111   .     S
C516   H711    1.113   .     S
C517   H542    1.113   .     S
C517   C518    1.534   .     S
C517   H541    1.111   .     S
C518   C519    1.524   .     S
C518   H544    1.106   .     S
C518   H543    1.108   .     S
C519   H546    1.111   .     S
C519   H547    1.111   .     S
C519   H545    1.109   .     S
C520   H548    1.113   .     S
C520   H549    1.114   .     S
C520   H551    1.109   .     S
C520   O597    1.410   .     S
C521   H553    1.112   .     S
C521   H552    1.114   .     S
C521   O598    1.407   .     S
C521   H554    1.107   .     S
C522   H556    1.113   .     S
C522   O599    1.411   .     S
C522   H555    1.114   .     S
C523   H558    1.111   .     S
C523   H559    1.117   .     S
C523   C524    1.535   .     S
C523   O601    1.419   .     S
C524   H560    1.112   .     S
C524   H562    1.110   .     S
C524   C525    1.525   .     S
C525   H565    1.110   .     S
C525   H932    1.111   .     S
C525   H933    1.110   .     S
C526   C534    1.423   .     A
C526   C535    1.426   .     A
C527   H566    1.113   .     S
C527   H568    1.109   .     S
C527   H567    1.113   .     S
C527   O602    1.410   .     S
C528   C529    1.528   .     S
C528   H569    1.115   .     S
C528   O603    1.413   .     S
C528   H570    1.112   .     S
C529   C530    1.526   .     S
C529   H573    1.111   .     S
C529   H571    1.111   .     S
C530   H575    1.110   .     S
C530   H574    1.111   .     S
C530   H576    1.111   .     S
C531   C532    1.530   .     S
C531   H577    1.113   .     S
C531   O604    1.415   .     S
C531   H578    1.116   .     S
C532   H579    1.110   .     S
C532   H580    1.112   .     S
C533   H581    1.111   .     S
C533   H582    1.110   .     S
C533   H584    1.108   .     S
C533   C901    1.528   .     S
C534   C1645   1.414   .     S
C535   C1643   1.415   .     S
C536   C537    1.416   .     A
C536   C1642   1.415   1_554 S
C537   C538    1.399   .     A
C537   O603    1.385   .     S
C538   O594    1.383   .     S
C538   C1641   1.414   1_554 S
H557   C645    1.108   .     S
O589   Zn613   1.943   .     S
O589   Zn614   1.944   .     S
O589   Zn612   1.949   .     S
O589   Zn615   1.918   .     S
O590   Zn613   1.914   .     S
O591   Zn615   1.921   .     S
O592   Zn614   1.913   .     S
O593   Zn612   1.905   .     S
O595   C626    1.402   .     S
O596   C875    1.403   .     S
O596   C886    1.420   .     S
O600   Zn612   1.931   .     S
O605   Zn615   1.938   .     S
O606   Zn613   1.932   .     S
O607   Zn614   1.941   .     S
O608   Zn615   1.945   .     S
O609   Zn612   1.939   .     S
O610   Zn613   1.934   .     S
O611   Zn614   1.925   .     S
C616   C626    1.448   .     S
C616   O731    1.259   .     A
C616   O729    1.266   .     A
C617   O727    1.385   .     S
C617   C658    1.425   .     A
C617   C618    1.400   .     A
C618   H695    1.085   .     S
C618   C1727   1.394   .     S
C619   O730    1.286   .     A
C619   C625    1.458   .     S
C619   O732    1.270   .     A
C620   C621    1.414   .     A
C620   C622    1.401   .     A
C620   C1725   1.394   1_554 S
C621   C624    1.419   .     A
C621   C659    1.421   .     A
C622   C623    1.400   .     A
C622   H662    1.084   .     S
C623   C635    1.402   .     A
C623   O721    1.382   .     S
C624   O720    1.385   .     S
C624   C635    1.400   .     A
C625   C380    1.347   1_655 S
C625   H427    1.088   1_655 S
C627   O724    1.385   .     S
C627   C636    1.403   .     A
C627   C634    1.409   .     A
C628   C631    1.450   .     S
C628   C998    1.344   .     S
C628   H1053   1.089   .     S
C629   C630    1.438   .     S
C630   O723    1.268   .     A
C630   O733    1.273   .     A
C631   O728    1.262   .     A
C631   O734    1.275   .     A
C632   C635    1.460   .     S
C632   O713    1.281   .     A
C632   O715    1.283   .     A
C633   C634    1.479   .     S
C633   O716    1.282   .     A
C633   O714    1.281   .     A
C634   C638    1.405   .     A
C636   O722    1.383   .     S
C636   C657    1.417   .     A
C637   H706    1.114   .     S
C637   H709    1.109   .     S
C637   H708    1.113   .     S
C637   O717    1.411   .     S
C638   C649    1.417   .     A
C638   O725    1.385   .     S
C639   H663    1.109   .     S
C639   O718    1.411   .     S
C639   H464    1.111   1_655 S
C639   H465    1.113   1_655 S
C640   H665    1.113   .     S
C640   C641    1.534   .     S
C640   H664    1.111   .     S
C641   C642    1.524   .     S
C641   H667    1.106   .     S
C641   H666    1.108   .     S
C642   H669    1.111   .     S
C642   H670    1.111   .     S
C642   H668    1.109   .     S
C643   H671    1.113   .     S
C643   H672    1.114   .     S
C643   H674    1.109   .     S
C643   O720    1.410   .     S
C644   H676    1.112   .     S
C644   H675    1.114   .     S
C644   O721    1.407   .     S
C644   H677    1.107   .     S
C645   H679    1.113   .     S
C645   O722    1.411   .     S
C645   H678    1.114   .     S
C646   H681    1.111   .     S
C646   H682    1.117   .     S
C646   C647    1.535   .     S
C646   O724    1.419   .     S
C647   H683    1.112   .     S
C647   H685    1.110   .     S
C647   C648    1.525   .     S
C648   H688    1.110   .     S
C648   H1055   1.111   .     S
C648   H1056   1.110   .     S
C649   C657    1.423   .     A
C649   C658    1.426   .     A
C650   H689    1.113   .     S
C650   H691    1.109   .     S
C650   H690    1.113   .     S
C650   O725    1.410   .     S
C651   C652    1.528   .     S
C651   H692    1.115   .     S
C651   O726    1.413   .     S
C651   H693    1.112   .     S
C652   C653    1.526   .     S
C652   H696    1.111   .     S
C652   H694    1.111   .     S
C653   H698    1.110   .     S
C653   H697    1.111   .     S
C653   H699    1.111   .     S
C654   C655    1.530   .     S
C654   H700    1.113   .     S
C654   O727    1.415   .     S
C654   H701    1.116   .     S
C655   H702    1.110   .     S
C655   H703    1.112   .     S
C656   H704    1.111   .     S
C656   H705    1.110   .     S
C656   H707    1.108   .     S
C656   C1024   1.528   .     S
C657   C1768   1.414   .     S
C658   C1766   1.415   .     S
C659   C660    1.416   .     A
C659   C1765   1.415   1_554 S
C660   C661    1.399   .     A
C660   O726    1.385   .     S
C661   O717    1.383   .     S
C661   C1764   1.414   1_554 S
H680   C399    1.108   1_655 S
O712   Zn736   1.943   .     S
O712   Zn737   1.944   .     S
O712   Zn735   1.949   .     S
O712   Zn738   1.918   .     S
O713   Zn736   1.914   .     S
O714   Zn738   1.921   .     S
O715   Zn737   1.913   .     S
O716   Zn735   1.905   .     S
O718   C380    1.402   1_655 S
O719   C998    1.403   .     S
O719   C1009   1.420   .     S
O723   Zn735   1.931   .     S
O728   Zn738   1.938   .     S
O729   Zn736   1.932   .     S
O730   Zn737   1.941   .     S
O731   Zn738   1.945   .     S
O732   Zn735   1.939   .     S
O733   Zn736   1.934   .     S
O734   Zn737   1.925   .     S
C739   C749    1.448   .     S
C739   O854    1.259   .     A
C739   O852    1.266   .     A
C740   O850    1.385   .     S
C740   C781    1.425   .     A
C740   C741    1.400   .     A
C741   H818    1.085   .     S
C741   C1850   1.394   .     S
C742   O853    1.286   .     A
C742   C748    1.458   .     S
C742   O855    1.270   .     A
C743   C744    1.414   .     A
C743   C745    1.401   .     A
C743   C1848   1.394   1_554 S
C744   C747    1.419   .     A
C744   C782    1.421   .     A
C745   C746    1.400   .     A
C745   H785    1.084   .     S
C746   C758    1.402   .     A
C746   O844    1.382   .     S
C747   O843    1.385   .     S
C747   C758    1.400   .     A
C748   C872    1.347   .     S
C748   H919    1.088   .     S
C749   C994    1.347   1_455 S
C749   O1087   1.402   1_455 S
C750   O847    1.385   .     S
C750   C759    1.403   .     A
C750   C757    1.409   .     A
C751   C754    1.450   .     S
C751   C14     1.344   1_565 S
C751   H69     1.089   1_565 S
C752   C753    1.438   .     S
C753   O846    1.268   .     A
C753   O856    1.273   .     A
C754   O851    1.262   .     A
C754   O857    1.275   .     A
C755   C758    1.460   .     S
C755   O836    1.281   .     A
C755   O838    1.283   .     A
C756   C757    1.479   .     S
C756   O839    1.282   .     A
C756   O837    1.281   .     A
C757   C761    1.405   .     A
C759   O845    1.383   .     S
C759   C780    1.417   .     A
C760   H829    1.114   .     S
C760   H832    1.109   .     S
C760   H831    1.113   .     S
C760   O840    1.411   .     S
C761   C772    1.417   .     A
C761   O848    1.385   .     S
C762   H786    1.109   .     S
C762   O841    1.411   .     S
C762   H956    1.111   .     S
C762   H957    1.113   .     S
C763   H788    1.113   .     S
C763   C764    1.534   .     S
C763   H787    1.111   .     S
C764   C765    1.524   .     S
C764   H790    1.106   .     S
C764   H789    1.108   .     S
C765   H792    1.111   .     S
C765   H793    1.111   .     S
C765   H791    1.109   .     S
C766   H794    1.113   .     S
C766   H795    1.114   .     S
C766   H797    1.109   .     S
C766   O843    1.410   .     S
C767   H799    1.112   .     S
C767   H798    1.114   .     S
C767   O844    1.407   .     S
C767   H800    1.107   .     S
C768   H802    1.113   .     S
C768   O845    1.411   .     S
C768   H801    1.114   .     S
C768   H1049   1.108   1_455 S
C769   H804    1.111   .     S
C769   H805    1.117   .     S
C769   C770    1.535   .     S
C769   O847    1.419   .     S
C770   H806    1.112   .     S
C770   H808    1.110   .     S
C770   C771    1.525   .     S
C771   H811    1.110   .     S
C771   H71     1.111   1_565 S
C771   H72     1.110   1_565 S
C772   C780    1.423   .     A
C772   C781    1.426   .     A
C773   H812    1.113   .     S
C773   H814    1.109   .     S
C773   H813    1.113   .     S
C773   O848    1.410   .     S
C774   C775    1.528   .     S
C774   H815    1.115   .     S
C774   O849    1.413   .     S
C774   H816    1.112   .     S
C775   C776    1.526   .     S
C775   H819    1.111   .     S
C775   H817    1.111   .     S
C776   H821    1.110   .     S
C776   H820    1.111   .     S
C776   H822    1.111   .     S
C777   C778    1.530   .     S
C777   H823    1.113   .     S
C777   O850    1.415   .     S
C777   H824    1.116   .     S
C778   H825    1.110   .     S
C778   H826    1.112   .     S
C779   H827    1.111   .     S
C779   H828    1.110   .     S
C779   H830    1.108   .     S
C779   C40     1.528   1_565 S
C780   C1891   1.414   .     S
C781   C1889   1.415   .     S
C782   C783    1.416   .     A
C782   C1888   1.415   1_554 S
C783   C784    1.399   .     A
C783   O849    1.385   .     S
C784   O840    1.383   .     S
C784   C1887   1.414   1_554 S
H796   C994    1.088   1_455 S
H803   C891    1.108   .     S
H833   C1008   1.111   1_455 S
H834   C1008   1.113   1_455 S
O835   Zn859   1.943   .     S
O835   Zn860   1.944   .     S
O835   Zn858   1.949   .     S
O835   Zn861   1.918   .     S
O836   Zn859   1.914   .     S
O837   Zn861   1.921   .     S
O838   Zn860   1.913   .     S
O839   Zn858   1.905   .     S
O841   C872    1.402   .     S
O842   C14     1.403   1_565 S
O842   C25     1.420   1_565 S
O846   Zn858   1.931   .     S
O851   Zn861   1.938   .     S
O852   Zn859   1.932   .     S
O853   Zn860   1.941   .     S
O854   Zn861   1.945   .     S
O855   Zn858   1.939   .     S
O856   Zn859   1.934   .     S
O857   Zn860   1.925   .     S
C862   C872    1.448   .     S
C862   O977    1.259   .     A
C862   O975    1.266   .     A
C863   O973    1.385   .     S
C863   C904    1.425   .     A
C863   C864    1.400   .     A
C864   H941    1.085   .     S
C864   C1973   1.394   .     S
C865   O976    1.286   .     A
C865   C871    1.458   .     S
C865   O978    1.270   .     A
C866   C867    1.414   .     A
C866   C868    1.401   .     A
C866   C1971   1.394   1_554 S
C867   C870    1.419   .     A
C867   C905    1.421   .     A
C868   C869    1.400   .     A
C868   H908    1.084   .     S
C869   C881    1.402   .     A
C869   O967    1.382   .     S
C870   O966    1.385   .     S
C870   C881    1.400   .     A
C871   C995    1.347   .     S
C871   H1042   1.088   .     S
C873   O970    1.385   .     S
C873   C882    1.403   .     A
C873   C880    1.409   .     A
C874   C877    1.450   .     S
C874   C137    1.344   1_565 S
C874   H192    1.089   1_565 S
C875   C876    1.438   .     S
C876   O969    1.268   .     A
C876   O979    1.273   .     A
C877   O974    1.262   .     A
C877   O980    1.275   .     A
C878   C881    1.460   .     S
C878   O959    1.281   .     A
C878   O961    1.283   .     A
C879   C880    1.479   .     S
C879   O962    1.282   .     A
C879   O960    1.281   .     A
C880   C884    1.405   .     A
C882   O968    1.383   .     S
C882   C903    1.417   .     A
C883   H952    1.114   .     S
C883   H955    1.109   .     S
C883   H954    1.113   .     S
C883   O963    1.411   .     S
C884   C895    1.417   .     A
C884   O971    1.385   .     S
C885   H909    1.109   .     S
C885   O964    1.411   .     S
C885   H1079   1.111   .     S
C885   H1080   1.113   .     S
C886   H911    1.113   .     S
C886   C887    1.534   .     S
C886   H910    1.111   .     S
C887   C888    1.524   .     S
C887   H913    1.106   .     S
C887   H912    1.108   .     S
C888   H915    1.111   .     S
C888   H916    1.111   .     S
C888   H914    1.109   .     S
C889   H917    1.113   .     S
C889   H918    1.114   .     S
C889   H920    1.109   .     S
C889   O966    1.410   .     S
C890   H922    1.112   .     S
C890   H921    1.114   .     S
C890   O967    1.407   .     S
C890   H923    1.107   .     S
C891   H925    1.113   .     S
C891   O968    1.411   .     S
C891   H924    1.114   .     S
C892   H927    1.111   .     S
C892   H928    1.117   .     S
C892   C893    1.535   .     S
C892   O970    1.419   .     S
C893   H929    1.112   .     S
C893   H931    1.110   .     S
C893   C894    1.525   .     S
C894   H934    1.110   .     S
C894   H194    1.111   1_565 S
C894   H195    1.110   1_565 S
C895   C903    1.423   .     A
C895   C904    1.426   .     A
C896   H935    1.113   .     S
C896   H937    1.109   .     S
C896   H936    1.113   .     S
C896   O971    1.410   .     S
C897   C898    1.528   .     S
C897   H938    1.115   .     S
C897   O972    1.413   .     S
C897   H939    1.112   .     S
C898   C899    1.526   .     S
C898   H942    1.111   .     S
C898   H940    1.111   .     S
C899   H944    1.110   .     S
C899   H943    1.111   .     S
C899   H945    1.111   .     S
C900   C901    1.530   .     S
C900   H946    1.113   .     S
C900   O973    1.415   .     S
C900   H947    1.116   .     S
C901   H948    1.110   .     S
C901   H949    1.112   .     S
C902   H950    1.111   .     S
C902   H951    1.110   .     S
C902   H953    1.108   .     S
C902   C163    1.528   1_565 S
C903   C2014   1.414   .     S
C904   C2012   1.415   .     S
C905   C906    1.416   .     A
C905   C2011   1.415   1_554 S
C906   C907    1.399   .     A
C906   O972    1.385   .     S
C907   O963    1.383   .     S
C907   C2010   1.414   1_554 S
H926   C1014   1.108   .     S
O958   Zn982   1.943   .     S
O958   Zn983   1.944   .     S
O958   Zn981   1.949   .     S
O958   Zn984   1.918   .     S
O959   Zn982   1.914   .     S
O960   Zn984   1.921   .     S
O961   Zn983   1.913   .     S
O962   Zn981   1.905   .     S
O964   C995    1.402   .     S
O965   C137    1.403   1_565 S
O965   C148    1.420   1_565 S
O969   Zn981   1.931   .     S
O974   Zn984   1.938   .     S
O975   Zn982   1.932   .     S
O976   Zn983   1.941   .     S
O977   Zn984   1.945   .     S
O978   Zn981   1.939   .     S
O979   Zn982   1.934   .     S
O980   Zn983   1.925   .     S
C985   C995    1.448   .     S
C985   O1100   1.259   .     A
C985   O1098   1.266   .     A
C986   O1096   1.385   .     S
C986   C1027   1.425   .     A
C986   C987    1.400   .     A
C987   H1064   1.085   .     S
C987   C2096   1.394   .     S
C988   O1099   1.286   .     A
C988   C994    1.458   .     S
C988   O1101   1.270   .     A
C989   C990    1.414   .     A
C989   C991    1.401   .     A
C989   C2094   1.394   1_554 S
C990   C993    1.419   .     A
C990   C1028   1.421   .     A
C991   C992    1.400   .     A
C991   H1031   1.084   .     S
C992   C1004   1.402   .     A
C992   O1090   1.382   .     S
C993   O1089   1.385   .     S
C993   C1004   1.400   .     A
C994   C749    1.347   1_655 S
C994   H796    1.088   1_655 S
C996   O1093   1.385   .     S
C996   C1005   1.403   .     A
C996   C1003   1.409   .     A
C997   C1000   1.450   .     S
C997   C260    1.344   1_565 S
C997   H315    1.089   1_565 S
C998   C999    1.438   .     S
C999   O1092   1.268   .     A
C999   O1102   1.273   .     A
C1000  O1097   1.262   .     A
C1000  O1103   1.275   .     A
C1001  C1004   1.460   .     S
C1001  O1082   1.281   .     A
C1001  O1084   1.283   .     A
C1002  C1003   1.479   .     S
C1002  O1085   1.282   .     A
C1002  O1083   1.281   .     A
C1003  C1007   1.405   .     A
C1005  O1091   1.383   .     S
C1005  C1026   1.417   .     A
C1006  H1075   1.114   .     S
C1006  H1078   1.109   .     S
C1006  H1077   1.113   .     S
C1006  O1086   1.411   .     S
C1007  C1018   1.417   .     A
C1007  O1094   1.385   .     S
C1008  H1032   1.109   .     S
C1008  O1087   1.411   .     S
C1008  H833    1.111   1_655 S
C1008  H834    1.113   1_655 S
C1009  H1034   1.113   .     S
C1009  C1010   1.534   .     S
C1009  H1033   1.111   .     S
C1010  C1011   1.524   .     S
C1010  H1036   1.106   .     S
C1010  H1035   1.108   .     S
C1011  H1038   1.111   .     S
C1011  H1039   1.111   .     S
C1011  H1037   1.109   .     S
C1012  H1040   1.113   .     S
C1012  H1041   1.114   .     S
C1012  H1043   1.109   .     S
C1012  O1089   1.410   .     S
C1013  H1045   1.112   .     S
C1013  H1044   1.114   .     S
C1013  O1090   1.407   .     S
C1013  H1046   1.107   .     S
C1014  H1048   1.113   .     S
C1014  O1091   1.411   .     S
C1014  H1047   1.114   .     S
C1015  H1050   1.111   .     S
C1015  H1051   1.117   .     S
C1015  C1016   1.535   .     S
C1015  O1093   1.419   .     S
C1016  H1052   1.112   .     S
C1016  H1054   1.110   .     S
C1016  C1017   1.525   .     S
C1017  H1057   1.110   .     S
C1017  H317    1.111   1_565 S
C1017  H318    1.110   1_565 S
C1018  C1026   1.423   .     A
C1018  C1027   1.426   .     A
C1019  H1058   1.113   .     S
C1019  H1060   1.109   .     S
C1019  H1059   1.113   .     S
C1019  O1094   1.410   .     S
C1020  C1021   1.528   .     S
C1020  H1061   1.115   .     S
C1020  O1095   1.413   .     S
C1020  H1062   1.112   .     S
C1021  C1022   1.526   .     S
C1021  H1065   1.111   .     S
C1021  H1063   1.111   .     S
C1022  H1067   1.110   .     S
C1022  H1066   1.111   .     S
C1022  H1068   1.111   .     S
C1023  C1024   1.530   .     S
C1023  H1069   1.113   .     S
C1023  O1096   1.415   .     S
C1023  H1070   1.116   .     S
C1024  H1071   1.110   .     S
C1024  H1072   1.112   .     S
C1025  H1073   1.111   .     S
C1025  H1074   1.110   .     S
C1025  H1076   1.108   .     S
C1025  C286    1.528   1_565 S
C1026  C2137   1.414   .     S
C1027  C2135   1.415   .     S
C1028  C1029   1.416   .     A
C1028  C2134   1.415   1_554 S
C1029  C1030   1.399   .     A
C1029  O1095   1.385   .     S
C1030  O1086   1.383   .     S
C1030  C2133   1.414   1_554 S
H1049  C768    1.108   1_655 S
O1081  Zn1105  1.943   .     S
O1081  Zn1106  1.944   .     S
O1081  Zn1104  1.949   .     S
O1081  Zn1107  1.918   .     S
O1082  Zn1105  1.914   .     S
O1083  Zn1107  1.921   .     S
O1084  Zn1106  1.913   .     S
O1085  Zn1104  1.905   .     S
O1087  C749    1.402   1_655 S
O1088  C260    1.403   1_565 S
O1088  C271    1.420   1_565 S
O1092  Zn1104  1.931   .     S
O1097  Zn1107  1.938   .     S
O1098  Zn1105  1.932   .     S
O1099  Zn1106  1.941   .     S
O1100  Zn1107  1.945   .     S
O1101  Zn1104  1.939   .     S
O1102  Zn1105  1.934   .     S
O1103  Zn1106  1.925   .     S
C1108  C1118   1.448   .     S
C1108  O1223   1.259   .     A
C1108  O1221   1.266   .     A
C1109  O1219   1.385   .     S
C1109  C1150   1.425   .     A
C1109  C1110   1.400   .     A
C1110  H1187   1.085   .     S
C1110  C5      1.394   1_556 S
C1111  O1222   1.286   .     A
C1111  C1117   1.458   .     S
C1111  O1224   1.270   .     A
C1112  C1113   1.414   .     A
C1112  C1114   1.401   .     A
C1113  C1116   1.419   .     A
C1113  C1151   1.421   .     A
C1114  C1115   1.400   .     A
C1114  H1154   1.084   .     S
C1115  C1127   1.402   .     A
C1115  O1213   1.382   .     S
C1116  O1212   1.385   .     S
C1116  C1127   1.400   .     A
C1117  C1241   1.347   .     S
C1117  H1288   1.088   .     S
C1118  C1363   1.347   1_455 S
C1118  O1456   1.402   1_455 S
C1119  O1216   1.385   .     S
C1119  C1128   1.403   .     A
C1119  C1126   1.409   .     A
C1120  C1123   1.450   .     S
C1120  C1490   1.344   .     S
C1120  H1545   1.089   .     S
C1121  C1122   1.438   .     S
C1121  C1858   1.344   1_545 S
C1121  O1949   1.403   1_545 S
C1122  O1215   1.268   .     A
C1122  O1225   1.273   .     A
C1123  O1220   1.262   .     A
C1123  O1226   1.275   .     A
C1124  C1127   1.460   .     S
C1124  O1205   1.281   .     A
C1124  O1207   1.283   .     A
C1125  C1126   1.479   .     S
C1125  O1208   1.282   .     A
C1125  O1206   1.281   .     A
C1126  C1130   1.405   .     A
C1128  O1214   1.383   .     S
C1128  C1149   1.417   .     A
C1129  H1198   1.114   .     S
C1129  H1201   1.109   .     S
C1129  H1200   1.113   .     S
C1129  O1209   1.411   .     S
C1130  C1141   1.417   .     A
C1130  O1217   1.385   .     S
C1131  H1155   1.109   .     S
C1131  O1210   1.411   .     S
C1131  H1325   1.111   .     S
C1131  H1326   1.113   .     S
C1132  H1157   1.113   .     S
C1132  C1133   1.534   .     S
C1132  H1156   1.111   .     S
C1132  O1949   1.420   1_545 S
C1133  C1134   1.524   .     S
C1133  H1159   1.106   .     S
C1133  H1158   1.108   .     S
C1134  H1161   1.111   .     S
C1134  H1162   1.111   .     S
C1134  H1160   1.109   .     S
C1135  H1163   1.113   .     S
C1135  H1164   1.114   .     S
C1135  H1166   1.109   .     S
C1135  O1212   1.410   .     S
C1136  H1168   1.112   .     S
C1136  H1167   1.114   .     S
C1136  O1213   1.407   .     S
C1136  H1169   1.107   .     S
C1137  H1171   1.113   .     S
C1137  O1214   1.411   .     S
C1137  H1170   1.114   .     S
C1137  H1418   1.108   1_455 S
C1138  H1173   1.111   .     S
C1138  H1174   1.117   .     S
C1138  C1139   1.535   .     S
C1138  O1216   1.419   .     S
C1139  H1175   1.112   .     S
C1139  H1177   1.110   .     S
C1139  C1140   1.525   .     S
C1140  H1180   1.110   .     S
C1140  H1547   1.111   .     S
C1140  H1548   1.110   .     S
C1141  C1149   1.423   .     A
C1141  C1150   1.426   .     A
C1142  H1181   1.113   .     S
C1142  H1183   1.109   .     S
C1142  H1182   1.113   .     S
C1142  O1217   1.410   .     S
C1143  C1144   1.528   .     S
C1143  H1184   1.115   .     S
C1143  O1218   1.413   .     S
C1143  H1185   1.112   .     S
C1144  C1145   1.526   .     S
C1144  H1188   1.111   .     S
C1144  H1186   1.111   .     S
C1145  H1190   1.110   .     S
C1145  H1189   1.111   .     S
C1145  H1191   1.111   .     S
C1146  C1147   1.530   .     S
C1146  H1192   1.113   .     S
C1146  O1219   1.415   .     S
C1146  H1193   1.116   .     S
C1147  H1194   1.110   .     S
C1147  H1195   1.112   .     S
C1147  C1886   1.528   1_545 S
C1148  H1196   1.111   .     S
C1148  H1197   1.110   .     S
C1148  H1199   1.108   .     S
C1148  C1516   1.528   .     S
C1149  C46     1.414   1_556 S
C1150  C44     1.415   1_556 S
C1151  C1152   1.416   .     A
C1152  C1153   1.399   .     A
C1152  O1218   1.385   .     S
C1153  O1209   1.383   .     S
H1165  C1363   1.088   1_455 S
H1172  C1260   1.108   .     S
H1176  C1858   1.089   1_545 S
H1178  C1878   1.111   1_545 S
H1179  C1878   1.110   1_545 S
H1202  C1377   1.111   1_455 S
H1203  C1377   1.113   1_455 S
O1204  Zn1228  1.943   .     S
O1204  Zn1229  1.944   .     S
O1204  Zn1227  1.949   .     S
O1204  Zn1230  1.918   .     S
O1205  Zn1228  1.914   .     S
O1206  Zn1230  1.921   .     S
O1207  Zn1229  1.913   .     S
O1208  Zn1227  1.905   .     S
O1210  C1241   1.402   .     S
O1211  C1490   1.403   .     S
O1211  C1501   1.420   .     S
O1215  Zn1227  1.931   .     S
O1220  Zn1230  1.938   .     S
O1221  Zn1228  1.932   .     S
O1222  Zn1229  1.941   .     S
O1223  Zn1230  1.945   .     S
O1224  Zn1227  1.939   .     S
O1225  Zn1228  1.934   .     S
O1226  Zn1229  1.925   .     S
C1231  C1241   1.448   .     S
C1231  O1346   1.259   .     A
C1231  O1344   1.266   .     A
C1232  O1342   1.385   .     S
C1232  C1273   1.425   .     A
C1232  C1233   1.400   .     A
C1233  H1310   1.085   .     S
C1233  C128    1.394   1_556 S
C1234  O1345   1.286   .     A
C1234  C1240   1.458   .     S
C1234  O1347   1.270   .     A
C1235  C1236   1.414   .     A
C1235  C1237   1.401   .     A
C1236  C1239   1.419   .     A
C1236  C1274   1.421   .     A
C1237  C1238   1.400   .     A
C1237  H1277   1.084   .     S
C1238  C1250   1.402   .     A
C1238  O1336   1.382   .     S
C1239  O1335   1.385   .     S
C1239  C1250   1.400   .     A
C1240  C1364   1.347   .     S
C1240  H1411   1.088   .     S
C1242  O1339   1.385   .     S
C1242  C1251   1.403   .     A
C1242  C1249   1.409   .     A
C1243  C1246   1.450   .     S
C1243  C1613   1.344   .     S
C1243  H1668   1.089   .     S
C1244  C1245   1.438   .     S
C1244  C1981   1.344   1_545 S
C1244  O2072   1.403   1_545 S
C1245  O1338   1.268   .     A
C1245  O1348   1.273   .     A
C1246  O1343   1.262   .     A
C1246  O1349   1.275   .     A
C1247  C1250   1.460   .     S
C1247  O1328   1.281   .     A
C1247  O1330   1.283   .     A
C1248  C1249   1.479   .     S
C1248  O1331   1.282   .     A
C1248  O1329   1.281   .     A
C1249  C1253   1.405   .     A
C1251  O1337   1.383   .     S
C1251  C1272   1.417   .     A
C1252  H1321   1.114   .     S
C1252  H1324   1.109   .     S
C1252  H1323   1.113   .     S
C1252  O1332   1.411   .     S
C1253  C1264   1.417   .     A
C1253  O1340   1.385   .     S
C1254  H1278   1.109   .     S
C1254  O1333   1.411   .     S
C1254  H1448   1.111   .     S
C1254  H1449   1.113   .     S
C1255  H1280   1.113   .     S
C1255  C1256   1.534   .     S
C1255  H1279   1.111   .     S
C1255  O2072   1.420   1_545 S
C1256  C1257   1.524   .     S
C1256  H1282   1.106   .     S
C1256  H1281   1.108   .     S
C1257  H1284   1.111   .     S
C1257  H1285   1.111   .     S
C1257  H1283   1.109   .     S
C1258  H1286   1.113   .     S
C1258  H1287   1.114   .     S
C1258  H1289   1.109   .     S
C1258  O1335   1.410   .     S
C1259  H1291   1.112   .     S
C1259  H1290   1.114   .     S
C1259  O1336   1.407   .     S
C1259  H1292   1.107   .     S
C1260  H1294   1.113   .     S
C1260  O1337   1.411   .     S
C1260  H1293   1.114   .     S
C1261  H1296   1.111   .     S
C1261  H1297   1.117   .     S
C1261  C1262   1.535   .     S
C1261  O1339   1.419   .     S
C1262  H1298   1.112   .     S
C1262  H1300   1.110   .     S
C1262  C1263   1.525   .     S
C1263  H1303   1.110   .     S
C1263  H1670   1.111   .     S
C1263  H1671   1.110   .     S
C1264  C1272   1.423   .     A
C1264  C1273   1.426   .     A
C1265  H1304   1.113   .     S
C1265  H1306   1.109   .     S
C1265  H1305   1.113   .     S
C1265  O1340   1.410   .     S
C1266  C1267   1.528   .     S
C1266  H1307   1.115   .     S
C1266  O1341   1.413   .     S
C1266  H1308   1.112   .     S
C1267  C1268   1.526   .     S
C1267  H1311   1.111   .     S
C1267  H1309   1.111   .     S
C1268  H1313   1.110   .     S
C1268  H1312   1.111   .     S
C1268  H1314   1.111   .     S
C1269  C1270   1.530   .     S
C1269  H1315   1.113   .     S
C1269  O1342   1.415   .     S
C1269  H1316   1.116   .     S
C1270  H1317   1.110   .     S
C1270  H1318   1.112   .     S
C1270  C2009   1.528   1_545 S
C1271  H1319   1.111   .     S
C1271  H1320   1.110   .     S
C1271  H1322   1.108   .     S
C1271  C1639   1.528   .     S
C1272  C169    1.414   1_556 S
C1273  C167    1.415   1_556 S
C1274  C1275   1.416   .     A
C1275  C1276   1.399   .     A
C1275  O1341   1.385   .     S
C1276  O1332   1.383   .     S
H1295  C1383   1.108   .     S
H1299  C1981   1.089   1_545 S
H1301  C2001   1.111   1_545 S
H1302  C2001   1.110   1_545 S
O1327  Zn1351  1.943   .     S
O1327  Zn1352  1.944   .     S
O1327  Zn1350  1.949   .     S
O1327  Zn1353  1.918   .     S
O1328  Zn1351  1.914   .     S
O1329  Zn1353  1.921   .     S
O1330  Zn1352  1.913   .     S
O1331  Zn1350  1.905   .     S
O1333  C1364   1.402   .     S
O1334  C1613   1.403   .     S
O1334  C1624   1.420   .     S
O1338  Zn1350  1.931   .     S
O1343  Zn1353  1.938   .     S
O1344  Zn1351  1.932   .     S
O1345  Zn1352  1.941   .     S
O1346  Zn1353  1.945   .     S
O1347  Zn1350  1.939   .     S
O1348  Zn1351  1.934   .     S
O1349  Zn1352  1.925   .     S
C1354  C1364   1.448   .     S
C1354  O1469   1.259   .     A
C1354  O1467   1.266   .     A
C1355  O1465   1.385   .     S
C1355  C1396   1.425   .     A
C1355  C1356   1.400   .     A
C1356  H1433   1.085   .     S
C1356  C251    1.394   1_556 S
C1357  O1468   1.286   .     A
C1357  C1363   1.458   .     S
C1357  O1470   1.270   .     A
C1358  C1359   1.414   .     A
C1358  C1360   1.401   .     A
C1359  C1362   1.419   .     A
C1359  C1397   1.421   .     A
C1360  C1361   1.400   .     A
C1360  H1400   1.084   .     S
C1361  C1373   1.402   .     A
C1361  O1459   1.382   .     S
C1362  O1458   1.385   .     S
C1362  C1373   1.400   .     A
C1363  C1118   1.347   1_655 S
C1363  H1165   1.088   1_655 S
C1365  O1462   1.385   .     S
C1365  C1374   1.403   .     A
C1365  C1372   1.409   .     A
C1366  C1369   1.450   .     S
C1366  C1736   1.344   .     S
C1366  H1791   1.089   .     S
C1367  C1368   1.438   .     S
C1367  C2104   1.344   1_545 S
C1367  O2195   1.403   1_545 S
C1368  O1461   1.268   .     A
C1368  O1471   1.273   .     A
C1369  O1466   1.262   .     A
C1369  O1472   1.275   .     A
C1370  C1373   1.460   .     S
C1370  O1451   1.281   .     A
C1370  O1453   1.283   .     A
C1371  C1372   1.479   .     S
C1371  O1454   1.282   .     A
C1371  O1452   1.281   .     A
C1372  C1376   1.405   .     A
C1374  O1460   1.383   .     S
C1374  C1395   1.417   .     A
C1375  H1444   1.114   .     S
C1375  H1447   1.109   .     S
C1375  H1446   1.113   .     S
C1375  O1455   1.411   .     S
C1376  C1387   1.417   .     A
C1376  O1463   1.385   .     S
C1377  H1401   1.109   .     S
C1377  O1456   1.411   .     S
C1377  H1202   1.111   1_655 S
C1377  H1203   1.113   1_655 S
C1378  H1403   1.113   .     S
C1378  C1379   1.534   .     S
C1378  H1402   1.111   .     S
C1378  O2195   1.420   1_545 S
C1379  C1380   1.524   .     S
C1379  H1405   1.106   .     S
C1379  H1404   1.108   .     S
C1380  H1407   1.111   .     S
C1380  H1408   1.111   .     S
C1380  H1406   1.109   .     S
C1381  H1409   1.113   .     S
C1381  H1410   1.114   .     S
C1381  H1412   1.109   .     S
C1381  O1458   1.410   .     S
C1382  H1414   1.112   .     S
C1382  H1413   1.114   .     S
C1382  O1459   1.407   .     S
C1382  H1415   1.107   .     S
C1383  H1417   1.113   .     S
C1383  O1460   1.411   .     S
C1383  H1416   1.114   .     S
C1384  H1419   1.111   .     S
C1384  H1420   1.117   .     S
C1384  C1385   1.535   .     S
C1384  O1462   1.419   .     S
C1385  H1421   1.112   .     S
C1385  H1423   1.110   .     S
C1385  C1386   1.525   .     S
C1386  H1426   1.110   .     S
C1386  H1793   1.111   .     S
C1386  H1794   1.110   .     S
C1387  C1395   1.423   .     A
C1387  C1396   1.426   .     A
C1388  H1427   1.113   .     S
C1388  H1429   1.109   .     S
C1388  H1428   1.113   .     S
C1388  O1463   1.410   .     S
C1389  C1390   1.528   .     S
C1389  H1430   1.115   .     S
C1389  O1464   1.413   .     S
C1389  H1431   1.112   .     S
C1390  C1391   1.526   .     S
C1390  H1434   1.111   .     S
C1390  H1432   1.111   .     S
C1391  H1436   1.110   .     S
C1391  H1435   1.111   .     S
C1391  H1437   1.111   .     S
C1392  C1393   1.530   .     S
C1392  H1438   1.113   .     S
C1392  O1465   1.415   .     S
C1392  H1439   1.116   .     S
C1393  H1440   1.110   .     S
C1393  H1441   1.112   .     S
C1393  C2132   1.528   1_545 S
C1394  H1442   1.111   .     S
C1394  H1443   1.110   .     S
C1394  H1445   1.108   .     S
C1394  C1762   1.528   .     S
C1395  C292    1.414   1_556 S
C1396  C290    1.415   1_556 S
C1397  C1398   1.416   .     A
C1398  C1399   1.399   .     A
C1398  O1464   1.385   .     S
C1399  O1455   1.383   .     S
H1418  C1137   1.108   1_655 S
H1422  C2104   1.089   1_545 S
H1424  C2124   1.111   1_545 S
H1425  C2124   1.110   1_545 S
O1450  Zn1474  1.943   .     S
O1450  Zn1475  1.944   .     S
O1450  Zn1473  1.949   .     S
O1450  Zn1476  1.918   .     S
O1451  Zn1474  1.914   .     S
O1452  Zn1476  1.921   .     S
O1453  Zn1475  1.913   .     S
O1454  Zn1473  1.905   .     S
O1456  C1118   1.402   1_655 S
O1457  C1736   1.403   .     S
O1457  C1747   1.420   .     S
O1461  Zn1473  1.931   .     S
O1466  Zn1476  1.938   .     S
O1467  Zn1474  1.932   .     S
O1468  Zn1475  1.941   .     S
O1469  Zn1476  1.945   .     S
O1470  Zn1473  1.939   .     S
O1471  Zn1474  1.934   .     S
O1472  Zn1475  1.925   .     S
C1477  C1487   1.448   .     S
C1477  O1592   1.259   .     A
C1477  O1590   1.266   .     A
C1478  O1588   1.385   .     S
C1478  C1519   1.425   .     A
C1478  C1479   1.400   .     A
C1479  H1556   1.085   .     S
C1479  C374    1.394   1_556 S
C1480  O1591   1.286   .     A
C1480  C1486   1.458   .     S
C1480  O1593   1.270   .     A
C1481  C1482   1.414   .     A
C1481  C1483   1.401   .     A
C1482  C1485   1.419   .     A
C1482  C1520   1.421   .     A
C1483  C1484   1.400   .     A
C1483  H1523   1.084   .     S
C1484  C1496   1.402   .     A
C1484  O1582   1.382   .     S
C1485  O1581   1.385   .     S
C1485  C1496   1.400   .     A
C1486  C1610   1.347   .     S
C1486  H1657   1.088   .     S
C1487  C1732   1.347   1_455 S
C1487  O1825   1.402   1_455 S
C1488  O1585   1.385   .     S
C1488  C1497   1.403   .     A
C1488  C1495   1.409   .     A
C1489  C1492   1.450   .     S
C1489  C1859   1.344   .     S
C1489  H1914   1.089   .     S
C1490  C1491   1.438   .     S
C1491  O1584   1.268   .     A
C1491  O1594   1.273   .     A
C1492  O1589   1.262   .     A
C1492  O1595   1.275   .     A
C1493  C1496   1.460   .     S
C1493  O1574   1.281   .     A
C1493  O1576   1.283   .     A
C1494  C1495   1.479   .     S
C1494  O1577   1.282   .     A
C1494  O1575   1.281   .     A
C1495  C1499   1.405   .     A
C1497  O1583   1.383   .     S
C1497  C1518   1.417   .     A
C1498  H1567   1.114   .     S
C1498  H1570   1.109   .     S
C1498  H1569   1.113   .     S
C1498  O1578   1.411   .     S
C1499  C1510   1.417   .     A
C1499  O1586   1.385   .     S
C1500  H1524   1.109   .     S
C1500  O1579   1.411   .     S
C1500  H1694   1.111   .     S
C1500  H1695   1.113   .     S
C1501  H1526   1.113   .     S
C1501  C1502   1.534   .     S
C1501  H1525   1.111   .     S
C1502  C1503   1.524   .     S
C1502  H1528   1.106   .     S
C1502  H1527   1.108   .     S
C1503  H1530   1.111   .     S
C1503  H1531   1.111   .     S
C1503  H1529   1.109   .     S
C1504  H1532   1.113   .     S
C1504  H1533   1.114   .     S
C1504  H1535   1.109   .     S
C1504  O1581   1.410   .     S
C1505  H1537   1.112   .     S
C1505  H1536   1.114   .     S
C1505  O1582   1.407   .     S
C1505  H1538   1.107   .     S
C1506  H1540   1.113   .     S
C1506  O1583   1.411   .     S
C1506  H1539   1.114   .     S
C1506  H1787   1.108   1_455 S
C1507  H1542   1.111   .     S
C1507  H1543   1.117   .     S
C1507  C1508   1.535   .     S
C1507  O1585   1.419   .     S
C1508  H1544   1.112   .     S
C1508  H1546   1.110   .     S
C1508  C1509   1.525   .     S
C1509  H1549   1.110   .     S
C1509  H1916   1.111   .     S
C1509  H1917   1.110   .     S
C1510  C1518   1.423   .     A
C1510  C1519   1.426   .     A
C1511  H1550   1.113   .     S
C1511  H1552   1.109   .     S
C1511  H1551   1.113   .     S
C1511  O1586   1.410   .     S
C1512  C1513   1.528   .     S
C1512  H1553   1.115   .     S
C1512  O1587   1.413   .     S
C1512  H1554   1.112   .     S
C1513  C1514   1.526   .     S
C1513  H1557   1.111   .     S
C1513  H1555   1.111   .     S
C1514  H1559   1.110   .     S
C1514  H1558   1.111   .     S
C1514  H1560   1.111   .     S
C1515  C1516   1.530   .     S
C1515  H1561   1.113   .     S
C1515  O1588   1.415   .     S
C1515  H1562   1.116   .     S
C1516  H1563   1.110   .     S
C1516  H1564   1.112   .     S
C1517  H1565   1.111   .     S
C1517  H1566   1.110   .     S
C1517  H1568   1.108   .     S
C1517  C1885   1.528   .     S
C1518  C415    1.414   1_556 S
C1519  C413    1.415   1_556 S
C1520  C1521   1.416   .     A
C1521  C1522   1.399   .     A
C1521  O1587   1.385   .     S
C1522  O1578   1.383   .     S
H1534  C1732   1.088   1_455 S
H1541  C1629   1.108   .     S
H1571  C1746   1.111   1_455 S
H1572  C1746   1.113   1_455 S
O1573  Zn1597  1.943   .     S
O1573  Zn1598  1.944   .     S
O1573  Zn1596  1.949   .     S
O1573  Zn1599  1.918   .     S
O1574  Zn1597  1.914   .     S
O1575  Zn1599  1.921   .     S
O1576  Zn1598  1.913   .     S
O1577  Zn1596  1.905   .     S
O1579  C1610   1.402   .     S
O1580  C1859   1.403   .     S
O1580  C1870   1.420   .     S
O1584  Zn1596  1.931   .     S
O1589  Zn1599  1.938   .     S
O1590  Zn1597  1.932   .     S
O1591  Zn1598  1.941   .     S
O1592  Zn1599  1.945   .     S
O1593  Zn1596  1.939   .     S
O1594  Zn1597  1.934   .     S
O1595  Zn1598  1.925   .     S
C1600  C1610   1.448   .     S
C1600  O1715   1.259   .     A
C1600  O1713   1.266   .     A
C1601  O1711   1.385   .     S
C1601  C1642   1.425   .     A
C1601  C1602   1.400   .     A
C1602  H1679   1.085   .     S
C1602  C497    1.394   1_556 S
C1603  O1714   1.286   .     A
C1603  C1609   1.458   .     S
C1603  O1716   1.270   .     A
C1604  C1605   1.414   .     A
C1604  C1606   1.401   .     A
C1605  C1608   1.419   .     A
C1605  C1643   1.421   .     A
C1606  C1607   1.400   .     A
C1606  H1646   1.084   .     S
C1607  C1619   1.402   .     A
C1607  O1705   1.382   .     S
C1608  O1704   1.385   .     S
C1608  C1619   1.400   .     A
C1609  C1733   1.347   .     S
C1609  H1780   1.088   .     S
C1611  O1708   1.385   .     S
C1611  C1620   1.403   .     A
C1611  C1618   1.409   .     A
C1612  C1615   1.450   .     S
C1612  C1982   1.344   .     S
C1612  H2037   1.089   .     S
C1613  C1614   1.438   .     S
C1614  O1707   1.268   .     A
C1614  O1717   1.273   .     A
C1615  O1712   1.262   .     A
C1615  O1718   1.275   .     A
C1616  C1619   1.460   .     S
C1616  O1697   1.281   .     A
C1616  O1699   1.283   .     A
C1617  C1618   1.479   .     S
C1617  O1700   1.282   .     A
C1617  O1698   1.281   .     A
C1618  C1622   1.405   .     A
C1620  O1706   1.383   .     S
C1620  C1641   1.417   .     A
C1621  H1690   1.114   .     S
C1621  H1693   1.109   .     S
C1621  H1692   1.113   .     S
C1621  O1701   1.411   .     S
C1622  C1633   1.417   .     A
C1622  O1709   1.385   .     S
C1623  H1647   1.109   .     S
C1623  O1702   1.411   .     S
C1623  H1817   1.111   .     S
C1623  H1818   1.113   .     S
C1624  H1649   1.113   .     S
C1624  C1625   1.534   .     S
C1624  H1648   1.111   .     S
C1625  C1626   1.524   .     S
C1625  H1651   1.106   .     S
C1625  H1650   1.108   .     S
C1626  H1653   1.111   .     S
C1626  H1654   1.111   .     S
C1626  H1652   1.109   .     S
C1627  H1655   1.113   .     S
C1627  H1656   1.114   .     S
C1627  H1658   1.109   .     S
C1627  O1704   1.410   .     S
C1628  H1660   1.112   .     S
C1628  H1659   1.114   .     S
C1628  O1705   1.407   .     S
C1628  H1661   1.107   .     S
C1629  H1663   1.113   .     S
C1629  O1706   1.411   .     S
C1629  H1662   1.114   .     S
C1630  H1665   1.111   .     S
C1630  H1666   1.117   .     S
C1630  C1631   1.535   .     S
C1630  O1708   1.419   .     S
C1631  H1667   1.112   .     S
C1631  H1669   1.110   .     S
C1631  C1632   1.525   .     S
C1632  H1672   1.110   .     S
C1632  H2039   1.111   .     S
C1632  H2040   1.110   .     S
C1633  C1641   1.423   .     A
C1633  C1642   1.426   .     A
C1634  H1673   1.113   .     S
C1634  H1675   1.109   .     S
C1634  H1674   1.113   .     S
C1634  O1709   1.410   .     S
C1635  C1636   1.528   .     S
C1635  H1676   1.115   .     S
C1635  O1710   1.413   .     S
C1635  H1677   1.112   .     S
C1636  C1637   1.526   .     S
C1636  H1680   1.111   .     S
C1636  H1678   1.111   .     S
C1637  H1682   1.110   .     S
C1637  H1681   1.111   .     S
C1637  H1683   1.111   .     S
C1638  C1639   1.530   .     S
C1638  H1684   1.113   .     S
C1638  O1711   1.415   .     S
C1638  H1685   1.116   .     S
C1639  H1686   1.110   .     S
C1639  H1687   1.112   .     S
C1640  H1688   1.111   .     S
C1640  H1689   1.110   .     S
C1640  H1691   1.108   .     S
C1640  C2008   1.528   .     S
C1641  C538    1.414   1_556 S
C1642  C536    1.415   1_556 S
C1643  C1644   1.416   .     A
C1644  C1645   1.399   .     A
C1644  O1710   1.385   .     S
C1645  O1701   1.383   .     S
H1664  C1752   1.108   .     S
O1696  Zn1720  1.943   .     S
O1696  Zn1721  1.944   .     S
O1696  Zn1719  1.949   .     S
O1696  Zn1722  1.918   .     S
O1697  Zn1720  1.914   .     S
O1698  Zn1722  1.921   .     S
O1699  Zn1721  1.913   .     S
O1700  Zn1719  1.905   .     S
O1702  C1733   1.402   .     S
O1703  C1982   1.403   .     S
O1703  C1993   1.420   .     S
O1707  Zn1719  1.931   .     S
O1712  Zn1722  1.938   .     S
O1713  Zn1720  1.932   .     S
O1714  Zn1721  1.941   .     S
O1715  Zn1722  1.945   .     S
O1716  Zn1719  1.939   .     S
O1717  Zn1720  1.934   .     S
O1718  Zn1721  1.925   .     S
C1723  C1733   1.448   .     S
C1723  O1838   1.259   .     A
C1723  O1836   1.266   .     A
C1724  O1834   1.385   .     S
C1724  C1765   1.425   .     A
C1724  C1725   1.400   .     A
C1725  H1802   1.085   .     S
C1725  C620    1.394   1_556 S
C1726  O1837   1.286   .     A
C1726  C1732   1.458   .     S
C1726  O1839   1.270   .     A
C1727  C1728   1.414   .     A
C1727  C1729   1.401   .     A
C1728  C1731   1.419   .     A
C1728  C1766   1.421   .     A
C1729  C1730   1.400   .     A
C1729  H1769   1.084   .     S
C1730  C1742   1.402   .     A
C1730  O1828   1.382   .     S
C1731  O1827   1.385   .     S
C1731  C1742   1.400   .     A
C1732  C1487   1.347   1_655 S
C1732  H1534   1.088   1_655 S
C1734  O1831   1.385   .     S
C1734  C1743   1.403   .     A
C1734  C1741   1.409   .     A
C1735  C1738   1.450   .     S
C1735  C2105   1.344   .     S
C1735  H2160   1.089   .     S
C1736  C1737   1.438   .     S
C1737  O1830   1.268   .     A
C1737  O1840   1.273   .     A
C1738  O1835   1.262   .     A
C1738  O1841   1.275   .     A
C1739  C1742   1.460   .     S
C1739  O1820   1.281   .     A
C1739  O1822   1.283   .     A
C1740  C1741   1.479   .     S
C1740  O1823   1.282   .     A
C1740  O1821   1.281   .     A
C1741  C1745   1.405   .     A
C1743  O1829   1.383   .     S
C1743  C1764   1.417   .     A
C1744  H1813   1.114   .     S
C1744  H1816   1.109   .     S
C1744  H1815   1.113   .     S
C1744  O1824   1.411   .     S
C1745  C1756   1.417   .     A
C1745  O1832   1.385   .     S
C1746  H1770   1.109   .     S
C1746  O1825   1.411   .     S
C1746  H1571   1.111   1_655 S
C1746  H1572   1.113   1_655 S
C1747  H1772   1.113   .     S
C1747  C1748   1.534   .     S
C1747  H1771   1.111   .     S
C1748  C1749   1.524   .     S
C1748  H1774   1.106   .     S
C1748  H1773   1.108   .     S
C1749  H1776   1.111   .     S
C1749  H1777   1.111   .     S
C1749  H1775   1.109   .     S
C1750  H1778   1.113   .     S
C1750  H1779   1.114   .     S
C1750  H1781   1.109   .     S
C1750  O1827   1.410   .     S
C1751  H1783   1.112   .     S
C1751  H1782   1.114   .     S
C1751  O1828   1.407   .     S
C1751  H1784   1.107   .     S
C1752  H1786   1.113   .     S
C1752  O1829   1.411   .     S
C1752  H1785   1.114   .     S
C1753  H1788   1.111   .     S
C1753  H1789   1.117   .     S
C1753  C1754   1.535   .     S
C1753  O1831   1.419   .     S
C1754  H1790   1.112   .     S
C1754  H1792   1.110   .     S
C1754  C1755   1.525   .     S
C1755  H1795   1.110   .     S
C1755  H2162   1.111   .     S
C1755  H2163   1.110   .     S
C1756  C1764   1.423   .     A
C1756  C1765   1.426   .     A
C1757  H1796   1.113   .     S
C1757  H1798   1.109   .     S
C1757  H1797   1.113   .     S
C1757  O1832   1.410   .     S
C1758  C1759   1.528   .     S
C1758  H1799   1.115   .     S
C1758  O1833   1.413   .     S
C1758  H1800   1.112   .     S
C1759  C1760   1.526   .     S
C1759  H1803   1.111   .     S
C1759  H1801   1.111   .     S
C1760  H1805   1.110   .     S
C1760  H1804   1.111   .     S
C1760  H1806   1.111   .     S
C1761  C1762   1.530   .     S
C1761  H1807   1.113   .     S
C1761  O1834   1.415   .     S
C1761  H1808   1.116   .     S
C1762  H1809   1.110   .     S
C1762  H1810   1.112   .     S
C1763  H1811   1.111   .     S
C1763  H1812   1.110   .     S
C1763  H1814   1.108   .     S
C1763  C2131   1.528   .     S
C1764  C661    1.414   1_556 S
C1765  C659    1.415   1_556 S
C1766  C1767   1.416   .     A
C1767  C1768   1.399   .     A
C1767  O1833   1.385   .     S
C1768  O1824   1.383   .     S
H1787  C1506   1.108   1_655 S
O1819  Zn1843  1.943   .     S
O1819  Zn1844  1.944   .     S
O1819  Zn1842  1.949   .     S
O1819  Zn1845  1.918   .     S
O1820  Zn1843  1.914   .     S
O1821  Zn1845  1.921   .     S
O1822  Zn1844  1.913   .     S
O1823  Zn1842  1.905   .     S
O1825  C1487   1.402   1_655 S
O1826  C2105   1.403   .     S
O1826  C2116   1.420   .     S
O1830  Zn1842  1.931   .     S
O1835  Zn1845  1.938   .     S
O1836  Zn1843  1.932   .     S
O1837  Zn1844  1.941   .     S
O1838  Zn1845  1.945   .     S
O1839  Zn1842  1.939   .     S
O1840  Zn1843  1.934   .     S
O1841  Zn1844  1.925   .     S
C1846  C1856   1.448   .     S
C1846  O1961   1.259   .     A
C1846  O1959   1.266   .     A
C1847  O1957   1.385   .     S
C1847  C1888   1.425   .     A
C1847  C1848   1.400   .     A
C1848  H1925   1.085   .     S
C1848  C743    1.394   1_556 S
C1849  O1960   1.286   .     A
C1849  C1855   1.458   .     S
C1849  O1962   1.270   .     A
C1850  C1851   1.414   .     A
C1850  C1852   1.401   .     A
C1851  C1854   1.419   .     A
C1851  C1889   1.421   .     A
C1852  C1853   1.400   .     A
C1852  H1892   1.084   .     S
C1853  C1865   1.402   .     A
C1853  O1951   1.382   .     S
C1854  O1950   1.385   .     S
C1854  C1865   1.400   .     A
C1855  C1979   1.347   .     S
C1855  H2026   1.088   .     S
C1856  C2101   1.347   1_455 S
C1856  O2194   1.402   1_455 S
C1857  O1954   1.385   .     S
C1857  C1866   1.403   .     A
C1857  C1864   1.409   .     A
C1858  C1861   1.450   .     S
C1858  C1121   1.344   1_565 S
C1858  H1176   1.089   1_565 S
C1859  C1860   1.438   .     S
C1860  O1953   1.268   .     A
C1860  O1963   1.273   .     A
C1861  O1958   1.262   .     A
C1861  O1964   1.275   .     A
C1862  C1865   1.460   .     S
C1862  O1943   1.281   .     A
C1862  O1945   1.283   .     A
C1863  C1864   1.479   .     S
C1863  O1946   1.282   .     A
C1863  O1944   1.281   .     A
C1864  C1868   1.405   .     A
C1866  O1952   1.383   .     S
C1866  C1887   1.417   .     A
C1867  H1936   1.114   .     S
C1867  H1939   1.109   .     S
C1867  H1938   1.113   .     S
C1867  O1947   1.411   .     S
C1868  C1879   1.417   .     A
C1868  O1955   1.385   .     S
C1869  H1893   1.109   .     S
C1869  O1948   1.411   .     S
C1869  H2063   1.111   .     S
C1869  H2064   1.113   .     S
C1870  H1895   1.113   .     S
C1870  C1871   1.534   .     S
C1870  H1894   1.111   .     S
C1871  C1872   1.524   .     S
C1871  H1897   1.106   .     S
C1871  H1896   1.108   .     S
C1872  H1899   1.111   .     S
C1872  H1900   1.111   .     S
C1872  H1898   1.109   .     S
C1873  H1901   1.113   .     S
C1873  H1902   1.114   .     S
C1873  H1904   1.109   .     S
C1873  O1950   1.410   .     S
C1874  H1906   1.112   .     S
C1874  H1905   1.114   .     S
C1874  O1951   1.407   .     S
C1874  H1907   1.107   .     S
C1875  H1909   1.113   .     S
C1875  O1952   1.411   .     S
C1875  H1908   1.114   .     S
C1875  H2156   1.108   1_455 S
C1876  H1911   1.111   .     S
C1876  H1912   1.117   .     S
C1876  C1877   1.535   .     S
C1876  O1954   1.419   .     S
C1877  H1913   1.112   .     S
C1877  H1915   1.110   .     S
C1877  C1878   1.525   .     S
C1878  H1918   1.110   .     S
C1878  H1178   1.111   1_565 S
C1878  H1179   1.110   1_565 S
C1879  C1887   1.423   .     A
C1879  C1888   1.426   .     A
C1880  H1919   1.113   .     S
C1880  H1921   1.109   .     S
C1880  H1920   1.113   .     S
C1880  O1955   1.410   .     S
C1881  C1882   1.528   .     S
C1881  H1922   1.115   .     S
C1881  O1956   1.413   .     S
C1881  H1923   1.112   .     S
C1882  C1883   1.526   .     S
C1882  H1926   1.111   .     S
C1882  H1924   1.111   .     S
C1883  H1928   1.110   .     S
C1883  H1927   1.111   .     S
C1883  H1929   1.111   .     S
C1884  C1885   1.530   .     S
C1884  H1930   1.113   .     S
C1884  O1957   1.415   .     S
C1884  H1931   1.116   .     S
C1885  H1932   1.110   .     S
C1885  H1933   1.112   .     S
C1886  H1934   1.111   .     S
C1886  H1935   1.110   .     S
C1886  H1937   1.108   .     S
C1886  C1147   1.528   1_565 S
C1887  C784    1.414   1_556 S
C1888  C782    1.415   1_556 S
C1889  C1890   1.416   .     A
C1890  C1891   1.399   .     A
C1890  O1956   1.385   .     S
C1891  O1947   1.383   .     S
H1903  C2101   1.088   1_455 S
H1910  C1998   1.108   .     S
H1940  C2115   1.111   1_455 S
H1941  C2115   1.113   1_455 S
O1942  Zn1966  1.943   .     S
O1942  Zn1967  1.944   .     S
O1942  Zn1965  1.949   .     S
O1942  Zn1968  1.918   .     S
O1943  Zn1966  1.914   .     S
O1944  Zn1968  1.921   .     S
O1945  Zn1967  1.913   .     S
O1946  Zn1965  1.905   .     S
O1948  C1979   1.402   .     S
O1949  C1121   1.403   1_565 S
O1949  C1132   1.420   1_565 S
O1953  Zn1965  1.931   .     S
O1958  Zn1968  1.938   .     S
O1959  Zn1966  1.932   .     S
O1960  Zn1967  1.941   .     S
O1961  Zn1968  1.945   .     S
O1962  Zn1965  1.939   .     S
O1963  Zn1966  1.934   .     S
O1964  Zn1967  1.925   .     S
C1969  C1979   1.448   .     S
C1969  O2084   1.259   .     A
C1969  O2082   1.266   .     A
C1970  O2080   1.385   .     S
C1970  C2011   1.425   .     A
C1970  C1971   1.400   .     A
C1971  H2048   1.085   .     S
C1971  C866    1.394   1_556 S
C1972  O2083   1.286   .     A
C1972  C1978   1.458   .     S
C1972  O2085   1.270   .     A
C1973  C1974   1.414   .     A
C1973  C1975   1.401   .     A
C1974  C1977   1.419   .     A
C1974  C2012   1.421   .     A
C1975  C1976   1.400   .     A
C1975  H2015   1.084   .     S
C1976  C1988   1.402   .     A
C1976  O2074   1.382   .     S
C1977  O2073   1.385   .     S
C1977  C1988   1.400   .     A
C1978  C2102   1.347   .     S
C1978  H2149   1.088   .     S
C1980  O2077   1.385   .     S
C1980  C1989   1.403   .     A
C1980  C1987   1.409   .     A
C1981  C1984   1.450   .     S
C1981  C1244   1.344   1_565 S
C1981  H1299   1.089   1_565 S
C1982  C1983   1.438   .     S
C1983  O2076   1.268   .     A
C1983  O2086   1.273   .     A
C1984  O2081   1.262   .     A
C1984  O2087   1.275   .     A
C1985  C1988   1.460   .     S
C1985  O2066   1.281   .     A
C1985  O2068   1.283   .     A
C1986  C1987   1.479   .     S
C1986  O2069   1.282   .     A
C1986  O2067   1.281   .     A
C1987  C1991   1.405   .     A
C1989  O2075   1.383   .     S
C1989  C2010   1.417   .     A
C1990  H2059   1.114   .     S
C1990  H2062   1.109   .     S
C1990  H2061   1.113   .     S
C1990  O2070   1.411   .     S
C1991  C2002   1.417   .     A
C1991  O2078   1.385   .     S
C1992  H2016   1.109   .     S
C1992  O2071   1.411   .     S
C1992  H2186   1.111   .     S
C1992  H2187   1.113   .     S
C1993  H2018   1.113   .     S
C1993  C1994   1.534   .     S
C1993  H2017   1.111   .     S
C1994  C1995   1.524   .     S
C1994  H2020   1.106   .     S
C1994  H2019   1.108   .     S
C1995  H2022   1.111   .     S
C1995  H2023   1.111   .     S
C1995  H2021   1.109   .     S
C1996  H2024   1.113   .     S
C1996  H2025   1.114   .     S
C1996  H2027   1.109   .     S
C1996  O2073   1.410   .     S
C1997  H2029   1.112   .     S
C1997  H2028   1.114   .     S
C1997  O2074   1.407   .     S
C1997  H2030   1.107   .     S
C1998  H2032   1.113   .     S
C1998  O2075   1.411   .     S
C1998  H2031   1.114   .     S
C1999  H2034   1.111   .     S
C1999  H2035   1.117   .     S
C1999  C2000   1.535   .     S
C1999  O2077   1.419   .     S
C2000  H2036   1.112   .     S
C2000  H2038   1.110   .     S
C2000  C2001   1.525   .     S
C2001  H2041   1.110   .     S
C2001  H1301   1.111   1_565 S
C2001  H1302   1.110   1_565 S
C2002  C2010   1.423   .     A
C2002  C2011   1.426   .     A
C2003  H2042   1.113   .     S
C2003  H2044   1.109   .     S
C2003  H2043   1.113   .     S
C2003  O2078   1.410   .     S
C2004  C2005   1.528   .     S
C2004  H2045   1.115   .     S
C2004  O2079   1.413   .     S
C2004  H2046   1.112   .     S
C2005  C2006   1.526   .     S
C2005  H2049   1.111   .     S
C2005  H2047   1.111   .     S
C2006  H2051   1.110   .     S
C2006  H2050   1.111   .     S
C2006  H2052   1.111   .     S
C2007  C2008   1.530   .     S
C2007  H2053   1.113   .     S
C2007  O2080   1.415   .     S
C2007  H2054   1.116   .     S
C2008  H2055   1.110   .     S
C2008  H2056   1.112   .     S
C2009  H2057   1.111   .     S
C2009  H2058   1.110   .     S
C2009  H2060   1.108   .     S
C2009  C1270   1.528   1_565 S
C2010  C907    1.414   1_556 S
C2011  C905    1.415   1_556 S
C2012  C2013   1.416   .     A
C2013  C2014   1.399   .     A
C2013  O2079   1.385   .     S
C2014  O2070   1.383   .     S
H2033  C2121   1.108   .     S
O2065  Zn2089  1.943   .     S
O2065  Zn2090  1.944   .     S
O2065  Zn2088  1.949   .     S
O2065  Zn2091  1.918   .     S
O2066  Zn2089  1.914   .     S
O2067  Zn2091  1.921   .     S
O2068  Zn2090  1.913   .     S
O2069  Zn2088  1.905   .     S
O2071  C2102   1.402   .     S
O2072  C1244   1.403   1_565 S
O2072  C1255   1.420   1_565 S
O2076  Zn2088  1.931   .     S
O2081  Zn2091  1.938   .     S
O2082  Zn2089  1.932   .     S
O2083  Zn2090  1.941   .     S
O2084  Zn2091  1.945   .     S
O2085  Zn2088  1.939   .     S
O2086  Zn2089  1.934   .     S
O2087  Zn2090  1.925   .     S
C2092  C2102   1.448   .     S
C2092  O2207   1.259   .     A
C2092  O2205   1.266   .     A
C2093  O2203   1.385   .     S
C2093  C2134   1.425   .     A
C2093  C2094   1.400   .     A
C2094  H2171   1.085   .     S
C2094  C989    1.394   1_556 S
C2095  O2206   1.286   .     A
C2095  C2101   1.458   .     S
C2095  O2208   1.270   .     A
C2096  C2097   1.414   .     A
C2096  C2098   1.401   .     A
C2097  C2100   1.419   .     A
C2097  C2135   1.421   .     A
C2098  C2099   1.400   .     A
C2098  H2138   1.084   .     S
C2099  C2111   1.402   .     A
C2099  O2197   1.382   .     S
C2100  O2196   1.385   .     S
C2100  C2111   1.400   .     A
C2101  C1856   1.347   1_655 S
C2101  H1903   1.088   1_655 S
C2103  O2200   1.385   .     S
C2103  C2112   1.403   .     A
C2103  C2110   1.409   .     A
C2104  C2107   1.450   .     S
C2104  C1367   1.344   1_565 S
C2104  H1422   1.089   1_565 S
C2105  C2106   1.438   .     S
C2106  O2199   1.268   .     A
C2106  O2209   1.273   .     A
C2107  O2204   1.262   .     A
C2107  O2210   1.275   .     A
C2108  C2111   1.460   .     S
C2108  O2189   1.281   .     A
C2108  O2191   1.283   .     A
C2109  C2110   1.479   .     S
C2109  O2192   1.282   .     A
C2109  O2190   1.281   .     A
C2110  C2114   1.405   .     A
C2112  O2198   1.383   .     S
C2112  C2133   1.417   .     A
C2113  H2182   1.114   .     S
C2113  H2185   1.109   .     S
C2113  H2184   1.113   .     S
C2113  O2193   1.411   .     S
C2114  C2125   1.417   .     A
C2114  O2201   1.385   .     S
C2115  H2139   1.109   .     S
C2115  O2194   1.411   .     S
C2115  H1940   1.111   1_655 S
C2115  H1941   1.113   1_655 S
C2116  H2141   1.113   .     S
C2116  C2117   1.534   .     S
C2116  H2140   1.111   .     S
C2117  C2118   1.524   .     S
C2117  H2143   1.106   .     S
C2117  H2142   1.108   .     S
C2118  H2145   1.111   .     S
C2118  H2146   1.111   .     S
C2118  H2144   1.109   .     S
C2119  H2147   1.113   .     S
C2119  H2148   1.114   .     S
C2119  H2150   1.109   .     S
C2119  O2196   1.410   .     S
C2120  H2152   1.112   .     S
C2120  H2151   1.114   .     S
C2120  O2197   1.407   .     S
C2120  H2153   1.107   .     S
C2121  H2155   1.113   .     S
C2121  O2198   1.411   .     S
C2121  H2154   1.114   .     S
C2122  H2157   1.111   .     S
C2122  H2158   1.117   .     S
C2122  C2123   1.535   .     S
C2122  O2200   1.419   .     S
C2123  H2159   1.112   .     S
C2123  H2161   1.110   .     S
C2123  C2124   1.525   .     S
C2124  H2164   1.110   .     S
C2124  H1424   1.111   1_565 S
C2124  H1425   1.110   1_565 S
C2125  C2133   1.423   .     A
C2125  C2134   1.426   .     A
C2126  H2165   1.113   .     S
C2126  H2167   1.109   .     S
C2126  H2166   1.113   .     S
C2126  O2201   1.410   .     S
C2127  C2128   1.528   .     S
C2127  H2168   1.115   .     S
C2127  O2202   1.413   .     S
C2127  H2169   1.112   .     S
C2128  C2129   1.526   .     S
C2128  H2172   1.111   .     S
C2128  H2170   1.111   .     S
C2129  H2174   1.110   .     S
C2129  H2173   1.111   .     S
C2129  H2175   1.111   .     S
C2130  C2131   1.530   .     S
C2130  H2176   1.113   .     S
C2130  O2203   1.415   .     S
C2130  H2177   1.116   .     S
C2131  H2178   1.110   .     S
C2131  H2179   1.112   .     S
C2132  H2180   1.111   .     S
C2132  H2181   1.110   .     S
C2132  H2183   1.108   .     S
C2132  C1393   1.528   1_565 S
C2133  C1030   1.414   1_556 S
C2134  C1028   1.415   1_556 S
C2135  C2136   1.416   .     A
C2136  C2137   1.399   .     A
C2136  O2202   1.385   .     S
C2137  O2193   1.383   .     S
H2156  C1875   1.108   1_655 S
O2188  Zn2212  1.943   .     S
O2188  Zn2213  1.944   .     S
O2188  Zn2211  1.949   .     S
O2188  Zn2214  1.918   .     S
O2189  Zn2212  1.914   .     S
O2190  Zn2214  1.921   .     S
O2191  Zn2213  1.913   .     S
O2192  Zn2211  1.905   .     S
O2194  C1856   1.402   1_655 S
O2195  C1367   1.403   1_565 S
O2195  C1378   1.420   1_565 S
O2199  Zn2211  1.931   .     S
O2204  Zn2214  1.938   .     S
O2205  Zn2212  1.932   .     S
O2206  Zn2213  1.941   .     S
O2207  Zn2214  1.945   .     S
O2208  Zn2211  1.939   .     S
O2209  Zn2212  1.934   .     S
O2210  Zn2213  1.925   .     S
