data_str_m3_o10_o18_pcu_sym.134
_audit_creation_date              2020-01-03
_audit_creation_method            'Materials Studio'
_symmetry_space_group_name_H-M    'P1'
_symmetry_Int_Tables_number       1
_symmetry_cell_setting            triclinic
loop_
_symmetry_equiv_pos_as_xyz
  x,y,z
_cell_length_a                    23.6213
_cell_length_b                    26.1159
_cell_length_c                    27.3514
_cell_angle_alpha                 94.5309
_cell_angle_beta                  93.0031
_cell_angle_gamma                 94.6729
loop_
_atom_site_label
_atom_site_type_symbol
_atom_site_fract_x
_atom_site_fract_y
_atom_site_fract_z
_atom_site_U_iso_or_equiv
_atom_site_adp_type
_atom_site_occupancy
C1     C     0.01468   0.26442   0.24756   0.00000  Uiso   1.00
C2     C     0.31224   0.16218   0.15855   0.00000  Uiso   1.00
C3     C     0.03429   0.18601   0.39384   0.00000  Uiso   1.00
C4     C     0.30221   0.15865   0.10497   0.00000  Uiso   1.00
C5     C     0.03195   0.24284   0.46785   0.00000  Uiso   1.00
C6     C     0.32501   0.13285   0.02170   0.00000  Uiso   1.00
C7     C     0.00915   0.22604   0.42012   0.00000  Uiso   1.00
C8     C     0.00766   0.13924   0.07208   0.00000  Uiso   1.00
C9     C     0.08156   0.16564   0.41449   0.00000  Uiso   1.00
C10    C     0.25086   0.17435   0.08664   0.00000  Uiso   1.00
C11    C     0.11219   0.19118   0.45542   0.00000  Uiso   1.00
C12    C     0.31818   0.06853   0.24957   0.00000  Uiso   1.00
C13    C     0.23816   0.17401   0.03635   0.00000  Uiso   1.00
C14    C     0.08465   0.22767   0.48441   0.00000  Uiso   1.00
C15    C     0.27272   0.14783   0.00423   0.00000  Uiso   1.00
C16    C     0.16821   0.17986   0.46920   0.00000  Uiso   1.00
C17    C     0.18981   0.19626   0.01774   0.00000  Uiso   1.00
C18    C     0.06999   0.07771   0.08165   0.00000  Uiso   1.00
C19    C     0.13204   0.07024   0.09405   0.00000  Uiso   1.00
C20    C     0.29532   0.29846   0.40410   0.00000  Uiso   1.00
C21    C     0.23793   0.31512   0.41882   0.00000  Uiso   1.00
C22    C     0.23816   0.30116   0.07523   0.00000  Uiso   1.00
C23    C     0.16342   0.23553   0.04531   0.00000  Uiso   1.00
C24    C     0.19170   0.10137   0.35812   0.00000  Uiso   1.00
C25    C     0.10563   0.00717   0.20307   0.00000  Uiso   1.00
C26    C     0.21801   0.31959   0.27217   0.00000  Uiso   1.00
C27    C     0.20431   0.15415   0.43649   0.00000  Uiso   1.00
C28    C     0.11067   0.24985   0.02864   0.00000  Uiso   1.00
C29    C     0.25573   0.13847   0.45485   0.00000  Uiso   1.00
C30    C     0.02261   0.31860   0.24661   0.00000  Uiso   1.00
C31    C     0.30992   0.01375   0.24409   0.00000  Uiso   1.00
C32    C     0.02137   0.17238   0.34131   0.00000  Uiso   1.00
H33    H     0.09062   0.27950   0.04977   0.00000  Uiso   1.00
H34    H     0.04267   0.05589   0.10615   0.00000  Uiso   1.00
H35    H     0.14564   0.08886   0.13108   0.00000  Uiso   1.00
H36    H     0.13764   0.02857   0.09347   0.00000  Uiso   1.00
H37    H     0.15914   0.08744   0.06659   0.00000  Uiso   1.00
H38    H     0.30455   0.31186   0.36769   0.00000  Uiso   1.00
H39    H     0.32880   0.31906   0.43023   0.00000  Uiso   1.00
H40    H     0.22797   0.30081   0.45485   0.00000  Uiso   1.00
H41    H     0.23910   0.02444   0.42212   0.00000  Uiso   1.00
H42    H     0.20397   0.29921   0.39082   0.00000  Uiso   1.00
H43    H     0.16565   0.28068   0.11162   0.00000  Uiso   1.00
H44    H     0.28346   0.11988   0.43000   0.00000  Uiso   1.00
H45    H     0.22168   0.33036   0.05203   0.00000  Uiso   1.00
H46    H     0.25880   0.32118   0.10972   0.00000  Uiso   1.00
H47    H     0.27085   0.28091   0.05552   0.00000  Uiso   1.00
H48    H     0.17256   0.17948   0.36954   0.00000  Uiso   1.00
H49    H     0.23478   0.08775   0.35528   0.00000  Uiso   1.00
H50    H     0.17260   0.10314   0.32049   0.00000  Uiso   1.00
H51    H     0.16448   0.07327   0.37694   0.00000  Uiso   1.00
H52    H     0.10444   0.32836   0.27806   0.00000  Uiso   1.00
H53    H     0.14422   0.03444   0.20634   0.00000  Uiso   1.00
H54    H     0.07596   0.01998   0.17472   0.00000  Uiso   1.00
H55    H     0.21975   0.18567   0.11202   0.00000  Uiso   1.00
H56    H     0.11707   0.30125   0.19111   0.00000  Uiso   1.00
H57    H     0.23408   0.00660   0.20196   0.00000  Uiso   1.00
H58    H     0.18242   0.29019   0.26111   0.00000  Uiso   1.00
H59    H     0.20169   0.02373   0.28312   0.00000  Uiso   1.00
H60    H     0.24139   0.30617   0.30410   0.00000  Uiso   1.00
H61    H     0.09574   0.13131   0.39628   0.00000  Uiso   1.00
H62    H     0.01006   0.26936   0.49108   0.00000  Uiso   1.00
H63    H     0.02064   0.11751   0.49599   0.00000  Uiso   1.00
H64    H     0.16222   0.12543   0.21300   0.00000  Uiso   1.00
H65    H     0.17121   0.20763   0.28739   0.00000  Uiso   1.00
H66    H     0.05986   0.06139   0.04308   0.00000  Uiso   1.00
N67    N     0.14695   0.15216   0.23739   0.00000  Uiso   1.00
N68    N     0.18638   0.18117   0.26260   0.00000  Uiso   1.00
N69    N     0.19212   0.26488   0.08684   0.00000  Uiso   1.00
N70    N     0.19550   0.15201   0.38440   0.00000  Uiso   1.00
N71    N     0.07985   0.00740   0.24993   0.00000  Uiso   1.00
N72    N     0.25368   0.32441   0.23122   0.00000  Uiso   1.00
O73    O     0.29719   0.24631   0.25309   0.00000  Uiso   1.00
O74    O     0.29300   0.24387   0.40076   0.00000  Uiso   1.00
O75    O     0.03614   0.08702   0.24690   0.00000  Uiso   1.00
O76    O     0.05822   0.23702   0.24501   0.00000  Uiso   1.00
O77    O     0.27512   0.09632   0.25498   0.00000  Uiso   1.00
O78    O     0.30328   0.17397   0.32247   0.00000  Uiso   1.00
O79    O     0.03005   0.15937   0.17753   0.00000  Uiso   1.00
O80    O     0.06431   0.16467   0.31439   0.00000  Uiso   1.00
O81    O     0.26902   0.16866   0.18561   0.00000  Uiso   1.00
O82    O     0.06223   0.13075   0.08850   0.00000  Uiso   1.00
Zn83   Zn    0.27033   0.17287   0.25539   0.00000  Uiso   1.00
Zn84   Zn    0.06300   0.16046   0.24460   0.00000  Uiso   1.00
C85    C     0.34801   0.26442   0.24756   0.00000  Uiso   1.00
C86    C     0.64558   0.16218   0.15855   0.00000  Uiso   1.00
C87    C     0.36763   0.18601   0.39384   0.00000  Uiso   1.00
C88    C     0.63554   0.15865   0.10497   0.00000  Uiso   1.00
C89    C     0.36529   0.24284   0.46785   0.00000  Uiso   1.00
C90    C     0.65835   0.13285   0.02170   0.00000  Uiso   1.00
C91    C     0.34248   0.22604   0.42012   0.00000  Uiso   1.00
C92    C     0.34099   0.13924   0.07208   0.00000  Uiso   1.00
C93    C     0.41489   0.16564   0.41449   0.00000  Uiso   1.00
C94    C     0.58420   0.17435   0.08664   0.00000  Uiso   1.00
C95    C     0.44552   0.19118   0.45542   0.00000  Uiso   1.00
C96    C     0.65151   0.06853   0.24957   0.00000  Uiso   1.00
C97    C     0.57149   0.17401   0.03635   0.00000  Uiso   1.00
C98    C     0.41798   0.22767   0.48441   0.00000  Uiso   1.00
C99    C     0.60605   0.14783   0.00423   0.00000  Uiso   1.00
C100   C     0.50154   0.17986   0.46920   0.00000  Uiso   1.00
C101   C     0.52314   0.19626   0.01774   0.00000  Uiso   1.00
C102   C     0.40332   0.07771   0.08165   0.00000  Uiso   1.00
C103   C     0.46538   0.07024   0.09405   0.00000  Uiso   1.00
C104   C     0.62865   0.29846   0.40410   0.00000  Uiso   1.00
C105   C     0.57126   0.31512   0.41882   0.00000  Uiso   1.00
C106   C     0.57150   0.30116   0.07523   0.00000  Uiso   1.00
C107   C     0.49675   0.23553   0.04531   0.00000  Uiso   1.00
C108   C     0.52503   0.10137   0.35812   0.00000  Uiso   1.00
C109   C     0.43897   0.00717   0.20307   0.00000  Uiso   1.00
C110   C     0.55134   0.31959   0.27217   0.00000  Uiso   1.00
C111   C     0.53764   0.15415   0.43649   0.00000  Uiso   1.00
C112   C     0.44400   0.24985   0.02864   0.00000  Uiso   1.00
C113   C     0.58906   0.13847   0.45485   0.00000  Uiso   1.00
C114   C     0.35595   0.31860   0.24661   0.00000  Uiso   1.00
C115   C     0.64326   0.01375   0.24409   0.00000  Uiso   1.00
C116   C     0.35470   0.17238   0.34131   0.00000  Uiso   1.00
H117   H     0.42395   0.27950   0.04977   0.00000  Uiso   1.00
H118   H     0.37600   0.05589   0.10615   0.00000  Uiso   1.00
H119   H     0.47898   0.08886   0.13108   0.00000  Uiso   1.00
H120   H     0.47098   0.02857   0.09347   0.00000  Uiso   1.00
H121   H     0.49247   0.08744   0.06659   0.00000  Uiso   1.00
H122   H     0.63789   0.31186   0.36769   0.00000  Uiso   1.00
H123   H     0.66213   0.31906   0.43023   0.00000  Uiso   1.00
H124   H     0.56131   0.30081   0.45485   0.00000  Uiso   1.00
H125   H     0.57243   0.02444   0.42212   0.00000  Uiso   1.00
H126   H     0.53730   0.29921   0.39082   0.00000  Uiso   1.00
H127   H     0.49898   0.28068   0.11162   0.00000  Uiso   1.00
H128   H     0.61680   0.11988   0.43000   0.00000  Uiso   1.00
H129   H     0.55501   0.33036   0.05203   0.00000  Uiso   1.00
H130   H     0.59213   0.32118   0.10972   0.00000  Uiso   1.00
H131   H     0.60419   0.28091   0.05552   0.00000  Uiso   1.00
H132   H     0.50589   0.17948   0.36954   0.00000  Uiso   1.00
H133   H     0.56811   0.08775   0.35528   0.00000  Uiso   1.00
H134   H     0.50594   0.10314   0.32049   0.00000  Uiso   1.00
H135   H     0.49781   0.07327   0.37694   0.00000  Uiso   1.00
H136   H     0.43777   0.32836   0.27806   0.00000  Uiso   1.00
H137   H     0.47755   0.03444   0.20634   0.00000  Uiso   1.00
H138   H     0.40930   0.01998   0.17472   0.00000  Uiso   1.00
H139   H     0.55309   0.18567   0.11202   0.00000  Uiso   1.00
H140   H     0.45041   0.30125   0.19111   0.00000  Uiso   1.00
H141   H     0.56741   0.00660   0.20196   0.00000  Uiso   1.00
H142   H     0.51575   0.29019   0.26111   0.00000  Uiso   1.00
H143   H     0.53503   0.02373   0.28312   0.00000  Uiso   1.00
H144   H     0.57473   0.30617   0.30410   0.00000  Uiso   1.00
H145   H     0.42908   0.13131   0.39628   0.00000  Uiso   1.00
H146   H     0.34339   0.26936   0.49108   0.00000  Uiso   1.00
H147   H     0.35397   0.11751   0.49599   0.00000  Uiso   1.00
H148   H     0.49555   0.12543   0.21300   0.00000  Uiso   1.00
H149   H     0.50455   0.20763   0.28739   0.00000  Uiso   1.00
H150   H     0.39320   0.06139   0.04308   0.00000  Uiso   1.00
N151   N     0.48029   0.15216   0.23739   0.00000  Uiso   1.00
N152   N     0.51971   0.18117   0.26260   0.00000  Uiso   1.00
N153   N     0.52545   0.26488   0.08684   0.00000  Uiso   1.00
N154   N     0.52884   0.15201   0.38440   0.00000  Uiso   1.00
N155   N     0.41319   0.00740   0.24993   0.00000  Uiso   1.00
N156   N     0.58701   0.32441   0.23122   0.00000  Uiso   1.00
O157   O     0.63052   0.24631   0.25309   0.00000  Uiso   1.00
O158   O     0.62633   0.24387   0.40076   0.00000  Uiso   1.00
O159   O     0.36948   0.08702   0.24690   0.00000  Uiso   1.00
O160   O     0.39155   0.23702   0.24501   0.00000  Uiso   1.00
O161   O     0.60845   0.09632   0.25498   0.00000  Uiso   1.00
O162   O     0.63662   0.17397   0.32247   0.00000  Uiso   1.00
O163   O     0.36338   0.15937   0.17753   0.00000  Uiso   1.00
O164   O     0.39764   0.16467   0.31439   0.00000  Uiso   1.00
O165   O     0.60236   0.16866   0.18561   0.00000  Uiso   1.00
O166   O     0.39556   0.13075   0.08850   0.00000  Uiso   1.00
Zn167  Zn    0.60366   0.17287   0.25539   0.00000  Uiso   1.00
Zn168  Zn    0.39634   0.16046   0.24460   0.00000  Uiso   1.00
C169   C     0.68134   0.26442   0.24756   0.00000  Uiso   1.00
C170   C     0.97891   0.16218   0.15855   0.00000  Uiso   1.00
C171   C     0.70096   0.18601   0.39384   0.00000  Uiso   1.00
C172   C     0.96887   0.15865   0.10497   0.00000  Uiso   1.00
C173   C     0.69862   0.24284   0.46785   0.00000  Uiso   1.00
C174   C     0.99168   0.13285   0.02170   0.00000  Uiso   1.00
C175   C     0.67581   0.22604   0.42012   0.00000  Uiso   1.00
C176   C     0.67433   0.13924   0.07208   0.00000  Uiso   1.00
C177   C     0.74823   0.16564   0.41449   0.00000  Uiso   1.00
C178   C     0.91753   0.17435   0.08664   0.00000  Uiso   1.00
C179   C     0.77885   0.19118   0.45542   0.00000  Uiso   1.00
C180   C     0.98485   0.06853   0.24957   0.00000  Uiso   1.00
C181   C     0.90482   0.17401   0.03635   0.00000  Uiso   1.00
C182   C     0.75131   0.22767   0.48441   0.00000  Uiso   1.00
C183   C     0.93938   0.14783   0.00423   0.00000  Uiso   1.00
C184   C     0.83487   0.17986   0.46920   0.00000  Uiso   1.00
C185   C     0.85647   0.19626   0.01774   0.00000  Uiso   1.00
C186   C     0.73665   0.07771   0.08165   0.00000  Uiso   1.00
C187   C     0.79871   0.07024   0.09405   0.00000  Uiso   1.00
C188   C     0.96199   0.29846   0.40410   0.00000  Uiso   1.00
C189   C     0.90460   0.31512   0.41882   0.00000  Uiso   1.00
C190   C     0.90483   0.30116   0.07523   0.00000  Uiso   1.00
C191   C     0.83008   0.23553   0.04531   0.00000  Uiso   1.00
C192   C     0.85837   0.10137   0.35812   0.00000  Uiso   1.00
C193   C     0.77230   0.00717   0.20307   0.00000  Uiso   1.00
C194   C     0.88468   0.31959   0.27217   0.00000  Uiso   1.00
C195   C     0.87098   0.15415   0.43649   0.00000  Uiso   1.00
C196   C     0.77734   0.24985   0.02864   0.00000  Uiso   1.00
C197   C     0.92239   0.13847   0.45485   0.00000  Uiso   1.00
C198   C     0.68928   0.31860   0.24661   0.00000  Uiso   1.00
C199   C     0.97659   0.01375   0.24409   0.00000  Uiso   1.00
C200   C     0.68804   0.17238   0.34131   0.00000  Uiso   1.00
H201   H     0.75729   0.27950   0.04977   0.00000  Uiso   1.00
H202   H     0.70934   0.05589   0.10615   0.00000  Uiso   1.00
H203   H     0.81231   0.08886   0.13108   0.00000  Uiso   1.00
H204   H     0.80431   0.02857   0.09347   0.00000  Uiso   1.00
H205   H     0.82581   0.08744   0.06659   0.00000  Uiso   1.00
H206   H     0.97122   0.31186   0.36769   0.00000  Uiso   1.00
H207   H     0.99546   0.31906   0.43023   0.00000  Uiso   1.00
H208   H     0.89464   0.30081   0.45485   0.00000  Uiso   1.00
H209   H     0.90577   0.02444   0.42212   0.00000  Uiso   1.00
H210   H     0.87064   0.29921   0.39082   0.00000  Uiso   1.00
H211   H     0.83231   0.28068   0.11162   0.00000  Uiso   1.00
H212   H     0.95013   0.11988   0.43000   0.00000  Uiso   1.00
H213   H     0.88835   0.33036   0.05203   0.00000  Uiso   1.00
H214   H     0.92546   0.32118   0.10972   0.00000  Uiso   1.00
H215   H     0.93752   0.28091   0.05552   0.00000  Uiso   1.00
H216   H     0.83922   0.17948   0.36954   0.00000  Uiso   1.00
H217   H     0.90145   0.08775   0.35528   0.00000  Uiso   1.00
H218   H     0.83927   0.10314   0.32049   0.00000  Uiso   1.00
H219   H     0.83115   0.07327   0.37694   0.00000  Uiso   1.00
H220   H     0.77110   0.32836   0.27806   0.00000  Uiso   1.00
H221   H     0.81088   0.03444   0.20634   0.00000  Uiso   1.00
H222   H     0.74263   0.01998   0.17472   0.00000  Uiso   1.00
H223   H     0.88642   0.18567   0.11202   0.00000  Uiso   1.00
H224   H     0.78374   0.30125   0.19111   0.00000  Uiso   1.00
H225   H     0.90074   0.00660   0.20196   0.00000  Uiso   1.00
H226   H     0.84909   0.29019   0.26111   0.00000  Uiso   1.00
H227   H     0.86836   0.02373   0.28312   0.00000  Uiso   1.00
H228   H     0.90806   0.30617   0.30410   0.00000  Uiso   1.00
H229   H     0.76241   0.13131   0.39628   0.00000  Uiso   1.00
H230   H     0.67672   0.26936   0.49108   0.00000  Uiso   1.00
H231   H     0.68731   0.11751   0.49599   0.00000  Uiso   1.00
H232   H     0.82888   0.12543   0.21300   0.00000  Uiso   1.00
H233   H     0.83788   0.20763   0.28739   0.00000  Uiso   1.00
H234   H     0.72653   0.06139   0.04308   0.00000  Uiso   1.00
N235   N     0.81362   0.15216   0.23739   0.00000  Uiso   1.00
N236   N     0.85305   0.18117   0.26260   0.00000  Uiso   1.00
N237   N     0.85878   0.26488   0.08684   0.00000  Uiso   1.00
N238   N     0.86217   0.15201   0.38440   0.00000  Uiso   1.00
N239   N     0.74652   0.00740   0.24993   0.00000  Uiso   1.00
N240   N     0.92034   0.32441   0.23122   0.00000  Uiso   1.00
O241   O     0.96386   0.24631   0.25309   0.00000  Uiso   1.00
O242   O     0.95967   0.24387   0.40076   0.00000  Uiso   1.00
O243   O     0.70281   0.08702   0.24690   0.00000  Uiso   1.00
O244   O     0.72488   0.23702   0.24501   0.00000  Uiso   1.00
O245   O     0.94178   0.09632   0.25498   0.00000  Uiso   1.00
O246   O     0.96995   0.17397   0.32247   0.00000  Uiso   1.00
O247   O     0.69672   0.15937   0.17753   0.00000  Uiso   1.00
O248   O     0.73098   0.16467   0.31439   0.00000  Uiso   1.00
O249   O     0.93569   0.16866   0.18561   0.00000  Uiso   1.00
O250   O     0.72889   0.13075   0.08850   0.00000  Uiso   1.00
Zn251  Zn    0.93700   0.17287   0.25539   0.00000  Uiso   1.00
Zn252  Zn    0.72967   0.16046   0.24460   0.00000  Uiso   1.00
C253   C     0.01468   0.59775   0.24756   0.00000  Uiso   1.00
C254   C     0.31224   0.49552   0.15855   0.00000  Uiso   1.00
C255   C     0.03429   0.51934   0.39384   0.00000  Uiso   1.00
C256   C     0.30221   0.49199   0.10497   0.00000  Uiso   1.00
C257   C     0.03195   0.57617   0.46785   0.00000  Uiso   1.00
C258   C     0.32501   0.46618   0.02170   0.00000  Uiso   1.00
C259   C     0.00915   0.55937   0.42012   0.00000  Uiso   1.00
C260   C     0.00766   0.47257   0.07208   0.00000  Uiso   1.00
C261   C     0.08156   0.49898   0.41449   0.00000  Uiso   1.00
C262   C     0.25086   0.50768   0.08664   0.00000  Uiso   1.00
C263   C     0.11219   0.52451   0.45542   0.00000  Uiso   1.00
C264   C     0.31818   0.40187   0.24957   0.00000  Uiso   1.00
C265   C     0.23816   0.50734   0.03635   0.00000  Uiso   1.00
C266   C     0.08465   0.56100   0.48441   0.00000  Uiso   1.00
C267   C     0.27272   0.48116   0.00423   0.00000  Uiso   1.00
C268   C     0.16821   0.51319   0.46920   0.00000  Uiso   1.00
C269   C     0.18981   0.52959   0.01774   0.00000  Uiso   1.00
C270   C     0.06999   0.41104   0.08165   0.00000  Uiso   1.00
C271   C     0.13204   0.40358   0.09405   0.00000  Uiso   1.00
C272   C     0.29532   0.63180   0.40410   0.00000  Uiso   1.00
C273   C     0.23793   0.64845   0.41882   0.00000  Uiso   1.00
C274   C     0.23816   0.63449   0.07523   0.00000  Uiso   1.00
C275   C     0.16342   0.56886   0.04531   0.00000  Uiso   1.00
C276   C     0.19170   0.43471   0.35812   0.00000  Uiso   1.00
C277   C     0.10563   0.34051   0.20307   0.00000  Uiso   1.00
C278   C     0.21801   0.65293   0.27217   0.00000  Uiso   1.00
C279   C     0.20431   0.48749   0.43649   0.00000  Uiso   1.00
C280   C     0.11067   0.58318   0.02864   0.00000  Uiso   1.00
C281   C     0.25573   0.47180   0.45485   0.00000  Uiso   1.00
C282   C     0.02261   0.65193   0.24661   0.00000  Uiso   1.00
C283   C     0.30992   0.34708   0.24409   0.00000  Uiso   1.00
C284   C     0.02137   0.50571   0.34131   0.00000  Uiso   1.00
H285   H     0.09062   0.61284   0.04977   0.00000  Uiso   1.00
H286   H     0.04267   0.38922   0.10615   0.00000  Uiso   1.00
H287   H     0.14564   0.42219   0.13108   0.00000  Uiso   1.00
H288   H     0.13764   0.36191   0.09347   0.00000  Uiso   1.00
H289   H     0.15914   0.42078   0.06659   0.00000  Uiso   1.00
H290   H     0.30455   0.64519   0.36769   0.00000  Uiso   1.00
H291   H     0.32880   0.65239   0.43023   0.00000  Uiso   1.00
H292   H     0.22797   0.63414   0.45485   0.00000  Uiso   1.00
H293   H     0.23910   0.35778   0.42212   0.00000  Uiso   1.00
H294   H     0.20397   0.63254   0.39082   0.00000  Uiso   1.00
H295   H     0.16565   0.61402   0.11162   0.00000  Uiso   1.00
H296   H     0.28346   0.45321   0.43000   0.00000  Uiso   1.00
H297   H     0.22168   0.66370   0.05203   0.00000  Uiso   1.00
H298   H     0.25880   0.65451   0.10972   0.00000  Uiso   1.00
H299   H     0.27085   0.61424   0.05552   0.00000  Uiso   1.00
H300   H     0.17256   0.51281   0.36954   0.00000  Uiso   1.00
H301   H     0.23478   0.42108   0.35528   0.00000  Uiso   1.00
H302   H     0.17260   0.43648   0.32049   0.00000  Uiso   1.00
H303   H     0.16448   0.40660   0.37694   0.00000  Uiso   1.00
H304   H     0.10444   0.66169   0.27806   0.00000  Uiso   1.00
H305   H     0.14422   0.36777   0.20634   0.00000  Uiso   1.00
H306   H     0.07596   0.35332   0.17472   0.00000  Uiso   1.00
H307   H     0.21975   0.51900   0.11202   0.00000  Uiso   1.00
H308   H     0.11707   0.63459   0.19111   0.00000  Uiso   1.00
H309   H     0.23408   0.33993   0.20196   0.00000  Uiso   1.00
H310   H     0.18242   0.62352   0.26111   0.00000  Uiso   1.00
H311   H     0.20169   0.35706   0.28312   0.00000  Uiso   1.00
H312   H     0.24139   0.63951   0.30410   0.00000  Uiso   1.00
H313   H     0.09574   0.46465   0.39628   0.00000  Uiso   1.00
H314   H     0.01006   0.60269   0.49108   0.00000  Uiso   1.00
H315   H     0.02064   0.45085   0.49599   0.00000  Uiso   1.00
H316   H     0.16222   0.45877   0.21300   0.00000  Uiso   1.00
H317   H     0.17121   0.54097   0.28739   0.00000  Uiso   1.00
H318   H     0.05986   0.39472   0.04308   0.00000  Uiso   1.00
N319   N     0.14695   0.48550   0.23739   0.00000  Uiso   1.00
N320   N     0.18638   0.51450   0.26260   0.00000  Uiso   1.00
N321   N     0.19212   0.59822   0.08684   0.00000  Uiso   1.00
N322   N     0.19550   0.48534   0.38440   0.00000  Uiso   1.00
N323   N     0.07985   0.34073   0.24993   0.00000  Uiso   1.00
N324   N     0.25368   0.65774   0.23122   0.00000  Uiso   1.00
O325   O     0.29719   0.57964   0.25309   0.00000  Uiso   1.00
O326   O     0.29300   0.57720   0.40076   0.00000  Uiso   1.00
O327   O     0.03614   0.42036   0.24690   0.00000  Uiso   1.00
O328   O     0.05822   0.57035   0.24501   0.00000  Uiso   1.00
O329   O     0.27512   0.42965   0.25498   0.00000  Uiso   1.00
O330   O     0.30328   0.50730   0.32247   0.00000  Uiso   1.00
O331   O     0.03005   0.49270   0.17753   0.00000  Uiso   1.00
O332   O     0.06431   0.49801   0.31439   0.00000  Uiso   1.00
O333   O     0.26902   0.50199   0.18561   0.00000  Uiso   1.00
O334   O     0.06223   0.46409   0.08850   0.00000  Uiso   1.00
Zn335  Zn    0.27033   0.50621   0.25539   0.00000  Uiso   1.00
Zn336  Zn    0.06300   0.49379   0.24460   0.00000  Uiso   1.00
C337   C     0.34801   0.59775   0.24756   0.00000  Uiso   1.00
C338   C     0.64558   0.49552   0.15855   0.00000  Uiso   1.00
C339   C     0.36763   0.51934   0.39384   0.00000  Uiso   1.00
C340   C     0.63554   0.49199   0.10497   0.00000  Uiso   1.00
C341   C     0.36529   0.57617   0.46785   0.00000  Uiso   1.00
C342   C     0.65835   0.46618   0.02170   0.00000  Uiso   1.00
C343   C     0.34248   0.55937   0.42012   0.00000  Uiso   1.00
C344   C     0.34099   0.47257   0.07208   0.00000  Uiso   1.00
C345   C     0.41489   0.49898   0.41449   0.00000  Uiso   1.00
C346   C     0.58420   0.50768   0.08664   0.00000  Uiso   1.00
C347   C     0.44552   0.52451   0.45542   0.00000  Uiso   1.00
C348   C     0.65151   0.40187   0.24957   0.00000  Uiso   1.00
C349   C     0.57149   0.50734   0.03635   0.00000  Uiso   1.00
C350   C     0.41798   0.56100   0.48441   0.00000  Uiso   1.00
C351   C     0.60605   0.48116   0.00423   0.00000  Uiso   1.00
C352   C     0.50154   0.51319   0.46920   0.00000  Uiso   1.00
C353   C     0.52314   0.52959   0.01774   0.00000  Uiso   1.00
C354   C     0.40332   0.41104   0.08165   0.00000  Uiso   1.00
C355   C     0.46538   0.40358   0.09405   0.00000  Uiso   1.00
C356   C     0.62865   0.63180   0.40410   0.00000  Uiso   1.00
C357   C     0.57126   0.64845   0.41882   0.00000  Uiso   1.00
C358   C     0.57150   0.63449   0.07523   0.00000  Uiso   1.00
C359   C     0.49675   0.56886   0.04531   0.00000  Uiso   1.00
C360   C     0.52503   0.43471   0.35812   0.00000  Uiso   1.00
C361   C     0.43897   0.34051   0.20307   0.00000  Uiso   1.00
C362   C     0.55134   0.65293   0.27217   0.00000  Uiso   1.00
C363   C     0.53764   0.48749   0.43649   0.00000  Uiso   1.00
C364   C     0.44400   0.58318   0.02864   0.00000  Uiso   1.00
C365   C     0.58906   0.47180   0.45485   0.00000  Uiso   1.00
C366   C     0.35595   0.65193   0.24661   0.00000  Uiso   1.00
C367   C     0.64326   0.34708   0.24409   0.00000  Uiso   1.00
C368   C     0.35470   0.50571   0.34131   0.00000  Uiso   1.00
H369   H     0.42395   0.61284   0.04977   0.00000  Uiso   1.00
H370   H     0.37600   0.38922   0.10615   0.00000  Uiso   1.00
H371   H     0.47898   0.42219   0.13108   0.00000  Uiso   1.00
H372   H     0.47098   0.36191   0.09347   0.00000  Uiso   1.00
H373   H     0.49247   0.42078   0.06659   0.00000  Uiso   1.00
H374   H     0.63789   0.64519   0.36769   0.00000  Uiso   1.00
H375   H     0.66213   0.65239   0.43023   0.00000  Uiso   1.00
H376   H     0.56131   0.63414   0.45485   0.00000  Uiso   1.00
H377   H     0.57243   0.35778   0.42212   0.00000  Uiso   1.00
H378   H     0.53730   0.63254   0.39082   0.00000  Uiso   1.00
H379   H     0.49898   0.61402   0.11162   0.00000  Uiso   1.00
H380   H     0.61680   0.45321   0.43000   0.00000  Uiso   1.00
H381   H     0.55501   0.66370   0.05203   0.00000  Uiso   1.00
H382   H     0.59213   0.65451   0.10972   0.00000  Uiso   1.00
H383   H     0.60419   0.61424   0.05552   0.00000  Uiso   1.00
H384   H     0.50589   0.51281   0.36954   0.00000  Uiso   1.00
H385   H     0.56811   0.42108   0.35528   0.00000  Uiso   1.00
H386   H     0.50594   0.43648   0.32049   0.00000  Uiso   1.00
H387   H     0.49781   0.40660   0.37694   0.00000  Uiso   1.00
H388   H     0.43777   0.66169   0.27806   0.00000  Uiso   1.00
H389   H     0.47755   0.36777   0.20634   0.00000  Uiso   1.00
H390   H     0.40930   0.35332   0.17472   0.00000  Uiso   1.00
H391   H     0.55309   0.51900   0.11202   0.00000  Uiso   1.00
H392   H     0.45041   0.63459   0.19111   0.00000  Uiso   1.00
H393   H     0.56741   0.33993   0.20196   0.00000  Uiso   1.00
H394   H     0.51575   0.62352   0.26111   0.00000  Uiso   1.00
H395   H     0.53503   0.35706   0.28312   0.00000  Uiso   1.00
H396   H     0.57473   0.63951   0.30410   0.00000  Uiso   1.00
H397   H     0.42908   0.46465   0.39628   0.00000  Uiso   1.00
H398   H     0.34339   0.60269   0.49108   0.00000  Uiso   1.00
H399   H     0.35397   0.45085   0.49599   0.00000  Uiso   1.00
H400   H     0.49555   0.45877   0.21300   0.00000  Uiso   1.00
H401   H     0.50455   0.54097   0.28739   0.00000  Uiso   1.00
H402   H     0.39320   0.39472   0.04308   0.00000  Uiso   1.00
N403   N     0.48029   0.48550   0.23739   0.00000  Uiso   1.00
N404   N     0.51971   0.51450   0.26260   0.00000  Uiso   1.00
N405   N     0.52545   0.59822   0.08684   0.00000  Uiso   1.00
N406   N     0.52884   0.48534   0.38440   0.00000  Uiso   1.00
N407   N     0.41319   0.34073   0.24993   0.00000  Uiso   1.00
N408   N     0.58701   0.65774   0.23122   0.00000  Uiso   1.00
O409   O     0.63052   0.57964   0.25309   0.00000  Uiso   1.00
O410   O     0.62633   0.57720   0.40076   0.00000  Uiso   1.00
O411   O     0.36948   0.42036   0.24690   0.00000  Uiso   1.00
O412   O     0.39155   0.57035   0.24501   0.00000  Uiso   1.00
O413   O     0.60845   0.42965   0.25498   0.00000  Uiso   1.00
O414   O     0.63662   0.50730   0.32247   0.00000  Uiso   1.00
O415   O     0.36338   0.49270   0.17753   0.00000  Uiso   1.00
O416   O     0.39764   0.49801   0.31439   0.00000  Uiso   1.00
O417   O     0.60236   0.50199   0.18561   0.00000  Uiso   1.00
O418   O     0.39556   0.46409   0.08850   0.00000  Uiso   1.00
Zn419  Zn    0.60366   0.50621   0.25539   0.00000  Uiso   1.00
Zn420  Zn    0.39634   0.49379   0.24460   0.00000  Uiso   1.00
C421   C     0.68134   0.59775   0.24756   0.00000  Uiso   1.00
C422   C     0.97891   0.49552   0.15855   0.00000  Uiso   1.00
C423   C     0.70096   0.51934   0.39384   0.00000  Uiso   1.00
C424   C     0.96887   0.49199   0.10497   0.00000  Uiso   1.00
C425   C     0.69862   0.57617   0.46785   0.00000  Uiso   1.00
C426   C     0.99168   0.46618   0.02170   0.00000  Uiso   1.00
C427   C     0.67581   0.55937   0.42012   0.00000  Uiso   1.00
C428   C     0.67433   0.47257   0.07208   0.00000  Uiso   1.00
C429   C     0.74823   0.49898   0.41449   0.00000  Uiso   1.00
C430   C     0.91753   0.50768   0.08664   0.00000  Uiso   1.00
C431   C     0.77885   0.52451   0.45542   0.00000  Uiso   1.00
C432   C     0.98485   0.40187   0.24957   0.00000  Uiso   1.00
C433   C     0.90482   0.50734   0.03635   0.00000  Uiso   1.00
C434   C     0.75131   0.56100   0.48441   0.00000  Uiso   1.00
C435   C     0.93938   0.48116   0.00423   0.00000  Uiso   1.00
C436   C     0.83487   0.51319   0.46920   0.00000  Uiso   1.00
C437   C     0.85647   0.52959   0.01774   0.00000  Uiso   1.00
C438   C     0.73665   0.41104   0.08165   0.00000  Uiso   1.00
C439   C     0.79871   0.40358   0.09405   0.00000  Uiso   1.00
C440   C     0.96199   0.63180   0.40410   0.00000  Uiso   1.00
C441   C     0.90460   0.64845   0.41882   0.00000  Uiso   1.00
C442   C     0.90483   0.63449   0.07523   0.00000  Uiso   1.00
C443   C     0.83008   0.56886   0.04531   0.00000  Uiso   1.00
C444   C     0.85837   0.43471   0.35812   0.00000  Uiso   1.00
C445   C     0.77230   0.34051   0.20307   0.00000  Uiso   1.00
C446   C     0.88468   0.65293   0.27217   0.00000  Uiso   1.00
C447   C     0.87098   0.48749   0.43649   0.00000  Uiso   1.00
C448   C     0.77734   0.58318   0.02864   0.00000  Uiso   1.00
C449   C     0.92239   0.47180   0.45485   0.00000  Uiso   1.00
C450   C     0.68928   0.65193   0.24661   0.00000  Uiso   1.00
C451   C     0.97659   0.34708   0.24409   0.00000  Uiso   1.00
C452   C     0.68804   0.50571   0.34131   0.00000  Uiso   1.00
H453   H     0.75729   0.61284   0.04977   0.00000  Uiso   1.00
H454   H     0.70934   0.38922   0.10615   0.00000  Uiso   1.00
H455   H     0.81231   0.42219   0.13108   0.00000  Uiso   1.00
H456   H     0.80431   0.36191   0.09347   0.00000  Uiso   1.00
H457   H     0.82581   0.42078   0.06659   0.00000  Uiso   1.00
H458   H     0.97122   0.64519   0.36769   0.00000  Uiso   1.00
H459   H     0.99546   0.65239   0.43023   0.00000  Uiso   1.00
H460   H     0.89464   0.63414   0.45485   0.00000  Uiso   1.00
H461   H     0.90577   0.35778   0.42212   0.00000  Uiso   1.00
H462   H     0.87064   0.63254   0.39082   0.00000  Uiso   1.00
H463   H     0.83231   0.61402   0.11162   0.00000  Uiso   1.00
H464   H     0.95013   0.45321   0.43000   0.00000  Uiso   1.00
H465   H     0.88835   0.66370   0.05203   0.00000  Uiso   1.00
H466   H     0.92546   0.65451   0.10972   0.00000  Uiso   1.00
H467   H     0.93752   0.61424   0.05552   0.00000  Uiso   1.00
H468   H     0.83922   0.51281   0.36954   0.00000  Uiso   1.00
H469   H     0.90145   0.42108   0.35528   0.00000  Uiso   1.00
H470   H     0.83927   0.43648   0.32049   0.00000  Uiso   1.00
H471   H     0.83115   0.40660   0.37694   0.00000  Uiso   1.00
H472   H     0.77110   0.66169   0.27806   0.00000  Uiso   1.00
H473   H     0.81088   0.36777   0.20634   0.00000  Uiso   1.00
H474   H     0.74263   0.35332   0.17472   0.00000  Uiso   1.00
H475   H     0.88642   0.51900   0.11202   0.00000  Uiso   1.00
H476   H     0.78374   0.63459   0.19111   0.00000  Uiso   1.00
H477   H     0.90074   0.33993   0.20196   0.00000  Uiso   1.00
H478   H     0.84909   0.62352   0.26111   0.00000  Uiso   1.00
H479   H     0.86836   0.35706   0.28312   0.00000  Uiso   1.00
H480   H     0.90806   0.63951   0.30410   0.00000  Uiso   1.00
H481   H     0.76241   0.46465   0.39628   0.00000  Uiso   1.00
H482   H     0.67672   0.60269   0.49108   0.00000  Uiso   1.00
H483   H     0.68731   0.45085   0.49599   0.00000  Uiso   1.00
H484   H     0.82888   0.45877   0.21300   0.00000  Uiso   1.00
H485   H     0.83788   0.54097   0.28739   0.00000  Uiso   1.00
H486   H     0.72653   0.39472   0.04308   0.00000  Uiso   1.00
N487   N     0.81362   0.48550   0.23739   0.00000  Uiso   1.00
N488   N     0.85305   0.51450   0.26260   0.00000  Uiso   1.00
N489   N     0.85878   0.59822   0.08684   0.00000  Uiso   1.00
N490   N     0.86217   0.48534   0.38440   0.00000  Uiso   1.00
N491   N     0.74652   0.34073   0.24993   0.00000  Uiso   1.00
N492   N     0.92034   0.65774   0.23122   0.00000  Uiso   1.00
O493   O     0.96386   0.57964   0.25309   0.00000  Uiso   1.00
O494   O     0.95967   0.57720   0.40076   0.00000  Uiso   1.00
O495   O     0.70281   0.42036   0.24690   0.00000  Uiso   1.00
O496   O     0.72488   0.57035   0.24501   0.00000  Uiso   1.00
O497   O     0.94178   0.42965   0.25498   0.00000  Uiso   1.00
O498   O     0.96995   0.50730   0.32247   0.00000  Uiso   1.00
O499   O     0.69672   0.49270   0.17753   0.00000  Uiso   1.00
O500   O     0.73098   0.49801   0.31439   0.00000  Uiso   1.00
O501   O     0.93569   0.50199   0.18561   0.00000  Uiso   1.00
O502   O     0.72889   0.46409   0.08850   0.00000  Uiso   1.00
Zn503  Zn    0.93700   0.50621   0.25539   0.00000  Uiso   1.00
Zn504  Zn    0.72967   0.49379   0.24460   0.00000  Uiso   1.00
C505   C     0.01468   0.93108   0.24756   0.00000  Uiso   1.00
C506   C     0.31224   0.82885   0.15855   0.00000  Uiso   1.00
C507   C     0.03429   0.85267   0.39384   0.00000  Uiso   1.00
C508   C     0.30221   0.82532   0.10497   0.00000  Uiso   1.00
C509   C     0.03195   0.90951   0.46785   0.00000  Uiso   1.00
C510   C     0.32501   0.79951   0.02170   0.00000  Uiso   1.00
C511   C     0.00915   0.89271   0.42012   0.00000  Uiso   1.00
C512   C     0.00766   0.80590   0.07208   0.00000  Uiso   1.00
C513   C     0.08156   0.83231   0.41449   0.00000  Uiso   1.00
C514   C     0.25086   0.84102   0.08664   0.00000  Uiso   1.00
C515   C     0.11219   0.85784   0.45542   0.00000  Uiso   1.00
C516   C     0.31818   0.73520   0.24957   0.00000  Uiso   1.00
C517   C     0.23816   0.84067   0.03635   0.00000  Uiso   1.00
C518   C     0.08465   0.89434   0.48441   0.00000  Uiso   1.00
C519   C     0.27272   0.81449   0.00423   0.00000  Uiso   1.00
C520   C     0.16821   0.84652   0.46920   0.00000  Uiso   1.00
C521   C     0.18981   0.86292   0.01774   0.00000  Uiso   1.00
C522   C     0.06999   0.74437   0.08165   0.00000  Uiso   1.00
C523   C     0.13204   0.73691   0.09405   0.00000  Uiso   1.00
C524   C     0.29532   0.96513   0.40410   0.00000  Uiso   1.00
C525   C     0.23793   0.98178   0.41882   0.00000  Uiso   1.00
C526   C     0.23816   0.96783   0.07523   0.00000  Uiso   1.00
C527   C     0.16342   0.90220   0.04531   0.00000  Uiso   1.00
C528   C     0.19170   0.76804   0.35812   0.00000  Uiso   1.00
C529   C     0.10563   0.67384   0.20307   0.00000  Uiso   1.00
C530   C     0.21801   0.98626   0.27217   0.00000  Uiso   1.00
C531   C     0.20431   0.82082   0.43649   0.00000  Uiso   1.00
C532   C     0.11067   0.91652   0.02864   0.00000  Uiso   1.00
C533   C     0.25573   0.80513   0.45485   0.00000  Uiso   1.00
C534   C     0.02261   0.98526   0.24661   0.00000  Uiso   1.00
C535   C     0.30992   0.68042   0.24409   0.00000  Uiso   1.00
C536   C     0.02137   0.83905   0.34131   0.00000  Uiso   1.00
H537   H     0.09062   0.94617   0.04977   0.00000  Uiso   1.00
H538   H     0.04267   0.72255   0.10615   0.00000  Uiso   1.00
H539   H     0.14564   0.75552   0.13108   0.00000  Uiso   1.00
H540   H     0.13764   0.69524   0.09347   0.00000  Uiso   1.00
H541   H     0.15914   0.75411   0.06659   0.00000  Uiso   1.00
H542   H     0.30455   0.97853   0.36769   0.00000  Uiso   1.00
H543   H     0.32880   0.98572   0.43023   0.00000  Uiso   1.00
H544   H     0.22797   0.96748   0.45485   0.00000  Uiso   1.00
H545   H     0.23910   0.69111   0.42212   0.00000  Uiso   1.00
H546   H     0.20397   0.96588   0.39082   0.00000  Uiso   1.00
H547   H     0.16565   0.94735   0.11162   0.00000  Uiso   1.00
H548   H     0.28346   0.78655   0.43000   0.00000  Uiso   1.00
H549   H     0.22168   0.99703   0.05203   0.00000  Uiso   1.00
H550   H     0.25880   0.98784   0.10972   0.00000  Uiso   1.00
H551   H     0.27085   0.94758   0.05552   0.00000  Uiso   1.00
H552   H     0.17256   0.84615   0.36954   0.00000  Uiso   1.00
H553   H     0.23478   0.75442   0.35528   0.00000  Uiso   1.00
H554   H     0.17260   0.76981   0.32049   0.00000  Uiso   1.00
H555   H     0.16448   0.73994   0.37694   0.00000  Uiso   1.00
H556   H     0.10444   0.99502   0.27806   0.00000  Uiso   1.00
H557   H     0.14422   0.70111   0.20634   0.00000  Uiso   1.00
H558   H     0.07596   0.68665   0.17472   0.00000  Uiso   1.00
H559   H     0.21975   0.85234   0.11202   0.00000  Uiso   1.00
H560   H     0.11707   0.96792   0.19111   0.00000  Uiso   1.00
H561   H     0.23408   0.67326   0.20196   0.00000  Uiso   1.00
H562   H     0.18242   0.95685   0.26111   0.00000  Uiso   1.00
H563   H     0.20169   0.69039   0.28312   0.00000  Uiso   1.00
H564   H     0.24139   0.97284   0.30410   0.00000  Uiso   1.00
H565   H     0.09574   0.79798   0.39628   0.00000  Uiso   1.00
H566   H     0.01006   0.93603   0.49108   0.00000  Uiso   1.00
H567   H     0.02064   0.78418   0.49599   0.00000  Uiso   1.00
H568   H     0.16222   0.79210   0.21300   0.00000  Uiso   1.00
H569   H     0.17121   0.87430   0.28739   0.00000  Uiso   1.00
H570   H     0.05986   0.72806   0.04308   0.00000  Uiso   1.00
N571   N     0.14695   0.81883   0.23739   0.00000  Uiso   1.00
N572   N     0.18638   0.84784   0.26260   0.00000  Uiso   1.00
N573   N     0.19212   0.93155   0.08684   0.00000  Uiso   1.00
N574   N     0.19550   0.81867   0.38440   0.00000  Uiso   1.00
N575   N     0.07985   0.67406   0.24993   0.00000  Uiso   1.00
N576   N     0.25368   0.99108   0.23122   0.00000  Uiso   1.00
O577   O     0.29719   0.91298   0.25309   0.00000  Uiso   1.00
O578   O     0.29300   0.91054   0.40076   0.00000  Uiso   1.00
O579   O     0.03614   0.75369   0.24690   0.00000  Uiso   1.00
O580   O     0.05822   0.90368   0.24501   0.00000  Uiso   1.00
O581   O     0.27512   0.76298   0.25498   0.00000  Uiso   1.00
O582   O     0.30328   0.84063   0.32247   0.00000  Uiso   1.00
O583   O     0.03005   0.82603   0.17753   0.00000  Uiso   1.00
O584   O     0.06431   0.83134   0.31439   0.00000  Uiso   1.00
O585   O     0.26902   0.83533   0.18561   0.00000  Uiso   1.00
O586   O     0.06223   0.79742   0.08850   0.00000  Uiso   1.00
Zn587  Zn    0.27033   0.83954   0.25539   0.00000  Uiso   1.00
Zn588  Zn    0.06300   0.82713   0.24460   0.00000  Uiso   1.00
C589   C     0.34801   0.93108   0.24756   0.00000  Uiso   1.00
C590   C     0.64558   0.82885   0.15855   0.00000  Uiso   1.00
C591   C     0.36763   0.85267   0.39384   0.00000  Uiso   1.00
C592   C     0.63554   0.82532   0.10497   0.00000  Uiso   1.00
C593   C     0.36529   0.90951   0.46785   0.00000  Uiso   1.00
C594   C     0.65835   0.79951   0.02170   0.00000  Uiso   1.00
C595   C     0.34248   0.89271   0.42012   0.00000  Uiso   1.00
C596   C     0.34099   0.80590   0.07208   0.00000  Uiso   1.00
C597   C     0.41489   0.83231   0.41449   0.00000  Uiso   1.00
C598   C     0.58420   0.84102   0.08664   0.00000  Uiso   1.00
C599   C     0.44552   0.85784   0.45542   0.00000  Uiso   1.00
C600   C     0.65151   0.73520   0.24957   0.00000  Uiso   1.00
C601   C     0.57149   0.84067   0.03635   0.00000  Uiso   1.00
C602   C     0.41798   0.89434   0.48441   0.00000  Uiso   1.00
C603   C     0.60605   0.81449   0.00423   0.00000  Uiso   1.00
C604   C     0.50154   0.84652   0.46920   0.00000  Uiso   1.00
C605   C     0.52314   0.86292   0.01774   0.00000  Uiso   1.00
C606   C     0.40332   0.74437   0.08165   0.00000  Uiso   1.00
C607   C     0.46538   0.73691   0.09405   0.00000  Uiso   1.00
C608   C     0.62865   0.96513   0.40410   0.00000  Uiso   1.00
C609   C     0.57126   0.98178   0.41882   0.00000  Uiso   1.00
C610   C     0.57150   0.96783   0.07523   0.00000  Uiso   1.00
C611   C     0.49675   0.90220   0.04531   0.00000  Uiso   1.00
C612   C     0.52503   0.76804   0.35812   0.00000  Uiso   1.00
C613   C     0.43897   0.67384   0.20307   0.00000  Uiso   1.00
C614   C     0.55134   0.98626   0.27217   0.00000  Uiso   1.00
C615   C     0.53764   0.82082   0.43649   0.00000  Uiso   1.00
C616   C     0.44400   0.91652   0.02864   0.00000  Uiso   1.00
C617   C     0.58906   0.80513   0.45485   0.00000  Uiso   1.00
C618   C     0.35595   0.98526   0.24661   0.00000  Uiso   1.00
C619   C     0.64326   0.68042   0.24409   0.00000  Uiso   1.00
C620   C     0.35470   0.83905   0.34131   0.00000  Uiso   1.00
H621   H     0.42395   0.94617   0.04977   0.00000  Uiso   1.00
H622   H     0.37600   0.72255   0.10615   0.00000  Uiso   1.00
H623   H     0.47898   0.75552   0.13108   0.00000  Uiso   1.00
H624   H     0.47098   0.69524   0.09347   0.00000  Uiso   1.00
H625   H     0.49247   0.75411   0.06659   0.00000  Uiso   1.00
H626   H     0.63789   0.97853   0.36769   0.00000  Uiso   1.00
H627   H     0.66213   0.98572   0.43023   0.00000  Uiso   1.00
H628   H     0.56131   0.96748   0.45485   0.00000  Uiso   1.00
H629   H     0.57243   0.69111   0.42212   0.00000  Uiso   1.00
H630   H     0.53730   0.96588   0.39082   0.00000  Uiso   1.00
H631   H     0.49898   0.94735   0.11162   0.00000  Uiso   1.00
H632   H     0.61680   0.78655   0.43000   0.00000  Uiso   1.00
H633   H     0.55501   0.99703   0.05203   0.00000  Uiso   1.00
H634   H     0.59213   0.98784   0.10972   0.00000  Uiso   1.00
H635   H     0.60419   0.94758   0.05552   0.00000  Uiso   1.00
H636   H     0.50589   0.84615   0.36954   0.00000  Uiso   1.00
H637   H     0.56811   0.75442   0.35528   0.00000  Uiso   1.00
H638   H     0.50594   0.76981   0.32049   0.00000  Uiso   1.00
H639   H     0.49781   0.73994   0.37694   0.00000  Uiso   1.00
H640   H     0.43777   0.99502   0.27806   0.00000  Uiso   1.00
H641   H     0.47755   0.70111   0.20634   0.00000  Uiso   1.00
H642   H     0.40930   0.68665   0.17472   0.00000  Uiso   1.00
H643   H     0.55309   0.85234   0.11202   0.00000  Uiso   1.00
H644   H     0.45041   0.96792   0.19111   0.00000  Uiso   1.00
H645   H     0.56741   0.67326   0.20196   0.00000  Uiso   1.00
H646   H     0.51575   0.95685   0.26111   0.00000  Uiso   1.00
H647   H     0.53503   0.69039   0.28312   0.00000  Uiso   1.00
H648   H     0.57473   0.97284   0.30410   0.00000  Uiso   1.00
H649   H     0.42908   0.79798   0.39628   0.00000  Uiso   1.00
H650   H     0.34339   0.93603   0.49108   0.00000  Uiso   1.00
H651   H     0.35397   0.78418   0.49599   0.00000  Uiso   1.00
H652   H     0.49555   0.79210   0.21300   0.00000  Uiso   1.00
H653   H     0.50455   0.87430   0.28739   0.00000  Uiso   1.00
H654   H     0.39320   0.72806   0.04308   0.00000  Uiso   1.00
N655   N     0.48029   0.81883   0.23739   0.00000  Uiso   1.00
N656   N     0.51971   0.84784   0.26260   0.00000  Uiso   1.00
N657   N     0.52545   0.93155   0.08684   0.00000  Uiso   1.00
N658   N     0.52884   0.81867   0.38440   0.00000  Uiso   1.00
N659   N     0.41319   0.67406   0.24993   0.00000  Uiso   1.00
N660   N     0.58701   0.99108   0.23122   0.00000  Uiso   1.00
O661   O     0.63052   0.91298   0.25309   0.00000  Uiso   1.00
O662   O     0.62633   0.91054   0.40076   0.00000  Uiso   1.00
O663   O     0.36948   0.75369   0.24690   0.00000  Uiso   1.00
O664   O     0.39155   0.90368   0.24501   0.00000  Uiso   1.00
O665   O     0.60845   0.76298   0.25498   0.00000  Uiso   1.00
O666   O     0.63662   0.84063   0.32247   0.00000  Uiso   1.00
O667   O     0.36338   0.82603   0.17753   0.00000  Uiso   1.00
O668   O     0.39764   0.83134   0.31439   0.00000  Uiso   1.00
O669   O     0.60236   0.83533   0.18561   0.00000  Uiso   1.00
O670   O     0.39556   0.79742   0.08850   0.00000  Uiso   1.00
Zn671  Zn    0.60366   0.83954   0.25539   0.00000  Uiso   1.00
Zn672  Zn    0.39634   0.82713   0.24460   0.00000  Uiso   1.00
C673   C     0.68134   0.93108   0.24756   0.00000  Uiso   1.00
C674   C     0.97891   0.82885   0.15855   0.00000  Uiso   1.00
C675   C     0.70096   0.85267   0.39384   0.00000  Uiso   1.00
C676   C     0.96887   0.82532   0.10497   0.00000  Uiso   1.00
C677   C     0.69862   0.90951   0.46785   0.00000  Uiso   1.00
C678   C     0.99168   0.79951   0.02170   0.00000  Uiso   1.00
C679   C     0.67581   0.89271   0.42012   0.00000  Uiso   1.00
C680   C     0.67433   0.80590   0.07208   0.00000  Uiso   1.00
C681   C     0.74823   0.83231   0.41449   0.00000  Uiso   1.00
C682   C     0.91753   0.84102   0.08664   0.00000  Uiso   1.00
C683   C     0.77885   0.85784   0.45542   0.00000  Uiso   1.00
C684   C     0.98485   0.73520   0.24957   0.00000  Uiso   1.00
C685   C     0.90482   0.84067   0.03635   0.00000  Uiso   1.00
C686   C     0.75131   0.89434   0.48441   0.00000  Uiso   1.00
C687   C     0.93938   0.81449   0.00423   0.00000  Uiso   1.00
C688   C     0.83487   0.84652   0.46920   0.00000  Uiso   1.00
C689   C     0.85647   0.86292   0.01774   0.00000  Uiso   1.00
C690   C     0.73665   0.74437   0.08165   0.00000  Uiso   1.00
C691   C     0.79871   0.73691   0.09405   0.00000  Uiso   1.00
C692   C     0.96199   0.96513   0.40410   0.00000  Uiso   1.00
C693   C     0.90460   0.98178   0.41882   0.00000  Uiso   1.00
C694   C     0.90483   0.96783   0.07523   0.00000  Uiso   1.00
C695   C     0.83008   0.90220   0.04531   0.00000  Uiso   1.00
C696   C     0.85837   0.76804   0.35812   0.00000  Uiso   1.00
C697   C     0.77230   0.67384   0.20307   0.00000  Uiso   1.00
C698   C     0.88468   0.98626   0.27217   0.00000  Uiso   1.00
C699   C     0.87098   0.82082   0.43649   0.00000  Uiso   1.00
C700   C     0.77734   0.91652   0.02864   0.00000  Uiso   1.00
C701   C     0.92239   0.80513   0.45485   0.00000  Uiso   1.00
C702   C     0.68928   0.98526   0.24661   0.00000  Uiso   1.00
C703   C     0.97659   0.68042   0.24409   0.00000  Uiso   1.00
C704   C     0.68804   0.83905   0.34131   0.00000  Uiso   1.00
H705   H     0.75729   0.94617   0.04977   0.00000  Uiso   1.00
H706   H     0.70934   0.72255   0.10615   0.00000  Uiso   1.00
H707   H     0.81231   0.75552   0.13108   0.00000  Uiso   1.00
H708   H     0.80431   0.69524   0.09347   0.00000  Uiso   1.00
H709   H     0.82581   0.75411   0.06659   0.00000  Uiso   1.00
H710   H     0.97122   0.97853   0.36769   0.00000  Uiso   1.00
H711   H     0.99546   0.98572   0.43023   0.00000  Uiso   1.00
H712   H     0.89464   0.96748   0.45485   0.00000  Uiso   1.00
H713   H     0.90577   0.69111   0.42212   0.00000  Uiso   1.00
H714   H     0.87064   0.96588   0.39082   0.00000  Uiso   1.00
H715   H     0.83231   0.94735   0.11162   0.00000  Uiso   1.00
H716   H     0.95013   0.78655   0.43000   0.00000  Uiso   1.00
H717   H     0.88835   0.99703   0.05203   0.00000  Uiso   1.00
H718   H     0.92546   0.98784   0.10972   0.00000  Uiso   1.00
H719   H     0.93752   0.94758   0.05552   0.00000  Uiso   1.00
H720   H     0.83922   0.84615   0.36954   0.00000  Uiso   1.00
H721   H     0.90145   0.75442   0.35528   0.00000  Uiso   1.00
H722   H     0.83927   0.76981   0.32049   0.00000  Uiso   1.00
H723   H     0.83115   0.73994   0.37694   0.00000  Uiso   1.00
H724   H     0.77110   0.99502   0.27806   0.00000  Uiso   1.00
H725   H     0.81088   0.70111   0.20634   0.00000  Uiso   1.00
H726   H     0.74263   0.68665   0.17472   0.00000  Uiso   1.00
H727   H     0.88642   0.85234   0.11202   0.00000  Uiso   1.00
H728   H     0.78374   0.96792   0.19111   0.00000  Uiso   1.00
H729   H     0.90074   0.67326   0.20196   0.00000  Uiso   1.00
H730   H     0.84909   0.95685   0.26111   0.00000  Uiso   1.00
H731   H     0.86836   0.69039   0.28312   0.00000  Uiso   1.00
H732   H     0.90806   0.97284   0.30410   0.00000  Uiso   1.00
H733   H     0.76241   0.79798   0.39628   0.00000  Uiso   1.00
H734   H     0.67672   0.93603   0.49108   0.00000  Uiso   1.00
H735   H     0.68731   0.78418   0.49599   0.00000  Uiso   1.00
H736   H     0.82888   0.79210   0.21300   0.00000  Uiso   1.00
H737   H     0.83788   0.87430   0.28739   0.00000  Uiso   1.00
H738   H     0.72653   0.72806   0.04308   0.00000  Uiso   1.00
N739   N     0.81362   0.81883   0.23739   0.00000  Uiso   1.00
N740   N     0.85305   0.84784   0.26260   0.00000  Uiso   1.00
N741   N     0.85878   0.93155   0.08684   0.00000  Uiso   1.00
N742   N     0.86217   0.81867   0.38440   0.00000  Uiso   1.00
N743   N     0.74652   0.67406   0.24993   0.00000  Uiso   1.00
N744   N     0.92034   0.99108   0.23122   0.00000  Uiso   1.00
O745   O     0.96386   0.91298   0.25309   0.00000  Uiso   1.00
O746   O     0.95967   0.91054   0.40076   0.00000  Uiso   1.00
O747   O     0.70281   0.75369   0.24690   0.00000  Uiso   1.00
O748   O     0.72488   0.90368   0.24501   0.00000  Uiso   1.00
O749   O     0.94178   0.76298   0.25498   0.00000  Uiso   1.00
O750   O     0.96995   0.84063   0.32247   0.00000  Uiso   1.00
O751   O     0.69672   0.82603   0.17753   0.00000  Uiso   1.00
O752   O     0.73098   0.83134   0.31439   0.00000  Uiso   1.00
O753   O     0.93569   0.83533   0.18561   0.00000  Uiso   1.00
O754   O     0.72889   0.79742   0.08850   0.00000  Uiso   1.00
Zn755  Zn    0.93700   0.83954   0.25539   0.00000  Uiso   1.00
Zn756  Zn    0.72967   0.82713   0.24460   0.00000  Uiso   1.00
C757   C     0.01468   0.26442   0.74756   0.00000  Uiso   1.00
C758   C     0.31224   0.16218   0.65855   0.00000  Uiso   1.00
C759   C     0.03429   0.18601   0.89384   0.00000  Uiso   1.00
C760   C     0.30221   0.15865   0.60497   0.00000  Uiso   1.00
C761   C     0.03195   0.24284   0.96785   0.00000  Uiso   1.00
C762   C     0.32501   0.13285   0.52170   0.00000  Uiso   1.00
C763   C     0.00915   0.22604   0.92012   0.00000  Uiso   1.00
C764   C     0.00766   0.13924   0.57208   0.00000  Uiso   1.00
C765   C     0.08156   0.16564   0.91449   0.00000  Uiso   1.00
C766   C     0.25086   0.17435   0.58664   0.00000  Uiso   1.00
C767   C     0.11219   0.19118   0.95542   0.00000  Uiso   1.00
C768   C     0.31818   0.06853   0.74957   0.00000  Uiso   1.00
C769   C     0.23816   0.17401   0.53635   0.00000  Uiso   1.00
C770   C     0.08465   0.22767   0.98441   0.00000  Uiso   1.00
C771   C     0.27272   0.14783   0.50423   0.00000  Uiso   1.00
C772   C     0.16821   0.17986   0.96920   0.00000  Uiso   1.00
C773   C     0.18981   0.19626   0.51774   0.00000  Uiso   1.00
C774   C     0.06999   0.07771   0.58165   0.00000  Uiso   1.00
C775   C     0.13204   0.07024   0.59405   0.00000  Uiso   1.00
C776   C     0.29532   0.29846   0.90410   0.00000  Uiso   1.00
C777   C     0.23793   0.31512   0.91882   0.00000  Uiso   1.00
C778   C     0.23816   0.30116   0.57523   0.00000  Uiso   1.00
C779   C     0.16342   0.23553   0.54531   0.00000  Uiso   1.00
C780   C     0.19170   0.10137   0.85812   0.00000  Uiso   1.00
C781   C     0.10563   0.00717   0.70307   0.00000  Uiso   1.00
C782   C     0.21801   0.31959   0.77217   0.00000  Uiso   1.00
C783   C     0.20431   0.15415   0.93649   0.00000  Uiso   1.00
C784   C     0.11067   0.24985   0.52864   0.00000  Uiso   1.00
C785   C     0.25573   0.13847   0.95485   0.00000  Uiso   1.00
C786   C     0.02261   0.31860   0.74661   0.00000  Uiso   1.00
C787   C     0.30992   0.01375   0.74409   0.00000  Uiso   1.00
C788   C     0.02137   0.17238   0.84131   0.00000  Uiso   1.00
H789   H     0.09062   0.27950   0.54977   0.00000  Uiso   1.00
H790   H     0.04267   0.05589   0.60615   0.00000  Uiso   1.00
H791   H     0.14564   0.08886   0.63108   0.00000  Uiso   1.00
H792   H     0.13764   0.02857   0.59347   0.00000  Uiso   1.00
H793   H     0.15914   0.08744   0.56659   0.00000  Uiso   1.00
H794   H     0.30455   0.31186   0.86769   0.00000  Uiso   1.00
H795   H     0.32880   0.31906   0.93023   0.00000  Uiso   1.00
H796   H     0.22797   0.30081   0.95485   0.00000  Uiso   1.00
H797   H     0.23910   0.02444   0.92212   0.00000  Uiso   1.00
H798   H     0.20397   0.29921   0.89082   0.00000  Uiso   1.00
H799   H     0.16565   0.28068   0.61162   0.00000  Uiso   1.00
H800   H     0.28346   0.11988   0.93000   0.00000  Uiso   1.00
H801   H     0.22168   0.33036   0.55203   0.00000  Uiso   1.00
H802   H     0.25880   0.32118   0.60972   0.00000  Uiso   1.00
H803   H     0.27085   0.28091   0.55552   0.00000  Uiso   1.00
H804   H     0.17256   0.17948   0.86954   0.00000  Uiso   1.00
H805   H     0.23478   0.08775   0.85528   0.00000  Uiso   1.00
H806   H     0.17260   0.10314   0.82049   0.00000  Uiso   1.00
H807   H     0.16448   0.07327   0.87694   0.00000  Uiso   1.00
H808   H     0.10444   0.32836   0.77806   0.00000  Uiso   1.00
H809   H     0.14422   0.03444   0.70634   0.00000  Uiso   1.00
H810   H     0.07596   0.01998   0.67472   0.00000  Uiso   1.00
H811   H     0.21975   0.18567   0.61202   0.00000  Uiso   1.00
H812   H     0.11707   0.30125   0.69111   0.00000  Uiso   1.00
H813   H     0.23408   0.00660   0.70196   0.00000  Uiso   1.00
H814   H     0.18242   0.29019   0.76111   0.00000  Uiso   1.00
H815   H     0.20169   0.02373   0.78312   0.00000  Uiso   1.00
H816   H     0.24139   0.30617   0.80410   0.00000  Uiso   1.00
H817   H     0.09574   0.13131   0.89628   0.00000  Uiso   1.00
H818   H     0.01006   0.26936   0.99108   0.00000  Uiso   1.00
H819   H     0.02064   0.11751   0.99599   0.00000  Uiso   1.00
H820   H     0.16222   0.12543   0.71300   0.00000  Uiso   1.00
H821   H     0.17121   0.20763   0.78739   0.00000  Uiso   1.00
H822   H     0.05986   0.06139   0.54308   0.00000  Uiso   1.00
N823   N     0.14695   0.15216   0.73739   0.00000  Uiso   1.00
N824   N     0.18638   0.18117   0.76260   0.00000  Uiso   1.00
N825   N     0.19212   0.26488   0.58684   0.00000  Uiso   1.00
N826   N     0.19550   0.15201   0.88440   0.00000  Uiso   1.00
N827   N     0.07985   0.00740   0.74993   0.00000  Uiso   1.00
N828   N     0.25368   0.32441   0.73122   0.00000  Uiso   1.00
O829   O     0.29719   0.24631   0.75309   0.00000  Uiso   1.00
O830   O     0.29300   0.24387   0.90076   0.00000  Uiso   1.00
O831   O     0.03614   0.08702   0.74690   0.00000  Uiso   1.00
O832   O     0.05822   0.23702   0.74501   0.00000  Uiso   1.00
O833   O     0.27512   0.09632   0.75498   0.00000  Uiso   1.00
O834   O     0.30328   0.17397   0.82247   0.00000  Uiso   1.00
O835   O     0.03005   0.15937   0.67753   0.00000  Uiso   1.00
O836   O     0.06431   0.16467   0.81439   0.00000  Uiso   1.00
O837   O     0.26902   0.16866   0.68561   0.00000  Uiso   1.00
O838   O     0.06223   0.13075   0.58850   0.00000  Uiso   1.00
Zn839  Zn    0.27033   0.17287   0.75539   0.00000  Uiso   1.00
Zn840  Zn    0.06300   0.16046   0.74460   0.00000  Uiso   1.00
C841   C     0.34801   0.26442   0.74756   0.00000  Uiso   1.00
C842   C     0.64558   0.16218   0.65855   0.00000  Uiso   1.00
C843   C     0.36763   0.18601   0.89384   0.00000  Uiso   1.00
C844   C     0.63554   0.15865   0.60497   0.00000  Uiso   1.00
C845   C     0.36529   0.24284   0.96785   0.00000  Uiso   1.00
C846   C     0.65835   0.13285   0.52170   0.00000  Uiso   1.00
C847   C     0.34248   0.22604   0.92012   0.00000  Uiso   1.00
C848   C     0.34099   0.13924   0.57208   0.00000  Uiso   1.00
C849   C     0.41489   0.16564   0.91449   0.00000  Uiso   1.00
C850   C     0.58420   0.17435   0.58664   0.00000  Uiso   1.00
C851   C     0.44552   0.19118   0.95542   0.00000  Uiso   1.00
C852   C     0.65151   0.06853   0.74957   0.00000  Uiso   1.00
C853   C     0.57149   0.17401   0.53635   0.00000  Uiso   1.00
C854   C     0.41798   0.22767   0.98441   0.00000  Uiso   1.00
C855   C     0.60605   0.14783   0.50423   0.00000  Uiso   1.00
C856   C     0.50154   0.17986   0.96920   0.00000  Uiso   1.00
C857   C     0.52314   0.19626   0.51774   0.00000  Uiso   1.00
C858   C     0.40332   0.07771   0.58165   0.00000  Uiso   1.00
C859   C     0.46538   0.07024   0.59405   0.00000  Uiso   1.00
C860   C     0.62865   0.29846   0.90410   0.00000  Uiso   1.00
C861   C     0.57126   0.31512   0.91882   0.00000  Uiso   1.00
C862   C     0.57150   0.30116   0.57523   0.00000  Uiso   1.00
C863   C     0.49675   0.23553   0.54531   0.00000  Uiso   1.00
C864   C     0.52503   0.10137   0.85812   0.00000  Uiso   1.00
C865   C     0.43897   0.00717   0.70307   0.00000  Uiso   1.00
C866   C     0.55134   0.31959   0.77217   0.00000  Uiso   1.00
C867   C     0.53764   0.15415   0.93649   0.00000  Uiso   1.00
C868   C     0.44400   0.24985   0.52864   0.00000  Uiso   1.00
C869   C     0.58906   0.13847   0.95485   0.00000  Uiso   1.00
C870   C     0.35595   0.31860   0.74661   0.00000  Uiso   1.00
C871   C     0.64326   0.01375   0.74409   0.00000  Uiso   1.00
C872   C     0.35470   0.17238   0.84131   0.00000  Uiso   1.00
H873   H     0.42395   0.27950   0.54977   0.00000  Uiso   1.00
H874   H     0.37600   0.05589   0.60615   0.00000  Uiso   1.00
H875   H     0.47898   0.08886   0.63108   0.00000  Uiso   1.00
H876   H     0.47098   0.02857   0.59347   0.00000  Uiso   1.00
H877   H     0.49247   0.08744   0.56659   0.00000  Uiso   1.00
H878   H     0.63789   0.31186   0.86769   0.00000  Uiso   1.00
H879   H     0.66213   0.31906   0.93023   0.00000  Uiso   1.00
H880   H     0.56131   0.30081   0.95485   0.00000  Uiso   1.00
H881   H     0.57243   0.02444   0.92212   0.00000  Uiso   1.00
H882   H     0.53730   0.29921   0.89082   0.00000  Uiso   1.00
H883   H     0.49898   0.28068   0.61162   0.00000  Uiso   1.00
H884   H     0.61680   0.11988   0.93000   0.00000  Uiso   1.00
H885   H     0.55501   0.33036   0.55203   0.00000  Uiso   1.00
H886   H     0.59213   0.32118   0.60972   0.00000  Uiso   1.00
H887   H     0.60419   0.28091   0.55552   0.00000  Uiso   1.00
H888   H     0.50589   0.17948   0.86954   0.00000  Uiso   1.00
H889   H     0.56811   0.08775   0.85528   0.00000  Uiso   1.00
H890   H     0.50594   0.10314   0.82049   0.00000  Uiso   1.00
H891   H     0.49781   0.07327   0.87694   0.00000  Uiso   1.00
H892   H     0.43777   0.32836   0.77806   0.00000  Uiso   1.00
H893   H     0.47755   0.03444   0.70634   0.00000  Uiso   1.00
H894   H     0.40930   0.01998   0.67472   0.00000  Uiso   1.00
H895   H     0.55309   0.18567   0.61202   0.00000  Uiso   1.00
H896   H     0.45041   0.30125   0.69111   0.00000  Uiso   1.00
H897   H     0.56741   0.00660   0.70196   0.00000  Uiso   1.00
H898   H     0.51575   0.29019   0.76111   0.00000  Uiso   1.00
H899   H     0.53503   0.02373   0.78312   0.00000  Uiso   1.00
H900   H     0.57473   0.30617   0.80410   0.00000  Uiso   1.00
H901   H     0.42908   0.13131   0.89628   0.00000  Uiso   1.00
H902   H     0.34339   0.26936   0.99108   0.00000  Uiso   1.00
H903   H     0.35397   0.11751   0.99599   0.00000  Uiso   1.00
H904   H     0.49555   0.12543   0.71300   0.00000  Uiso   1.00
H905   H     0.50455   0.20763   0.78739   0.00000  Uiso   1.00
H906   H     0.39320   0.06139   0.54308   0.00000  Uiso   1.00
N907   N     0.48029   0.15216   0.73739   0.00000  Uiso   1.00
N908   N     0.51971   0.18117   0.76260   0.00000  Uiso   1.00
N909   N     0.52545   0.26488   0.58684   0.00000  Uiso   1.00
N910   N     0.52884   0.15201   0.88440   0.00000  Uiso   1.00
N911   N     0.41319   0.00740   0.74993   0.00000  Uiso   1.00
N912   N     0.58701   0.32441   0.73122   0.00000  Uiso   1.00
O913   O     0.63052   0.24631   0.75309   0.00000  Uiso   1.00
O914   O     0.62633   0.24387   0.90076   0.00000  Uiso   1.00
O915   O     0.36948   0.08702   0.74690   0.00000  Uiso   1.00
O916   O     0.39155   0.23702   0.74501   0.00000  Uiso   1.00
O917   O     0.60845   0.09632   0.75498   0.00000  Uiso   1.00
O918   O     0.63662   0.17397   0.82247   0.00000  Uiso   1.00
O919   O     0.36338   0.15937   0.67753   0.00000  Uiso   1.00
O920   O     0.39764   0.16467   0.81439   0.00000  Uiso   1.00
O921   O     0.60236   0.16866   0.68561   0.00000  Uiso   1.00
O922   O     0.39556   0.13075   0.58850   0.00000  Uiso   1.00
Zn923  Zn    0.60366   0.17287   0.75539   0.00000  Uiso   1.00
Zn924  Zn    0.39634   0.16046   0.74460   0.00000  Uiso   1.00
C925   C     0.68134   0.26442   0.74756   0.00000  Uiso   1.00
C926   C     0.97891   0.16218   0.65855   0.00000  Uiso   1.00
C927   C     0.70096   0.18601   0.89384   0.00000  Uiso   1.00
C928   C     0.96887   0.15865   0.60497   0.00000  Uiso   1.00
C929   C     0.69862   0.24284   0.96785   0.00000  Uiso   1.00
C930   C     0.99168   0.13285   0.52170   0.00000  Uiso   1.00
C931   C     0.67581   0.22604   0.92012   0.00000  Uiso   1.00
C932   C     0.67433   0.13924   0.57208   0.00000  Uiso   1.00
C933   C     0.74823   0.16564   0.91449   0.00000  Uiso   1.00
C934   C     0.91753   0.17435   0.58664   0.00000  Uiso   1.00
C935   C     0.77885   0.19118   0.95542   0.00000  Uiso   1.00
C936   C     0.98485   0.06853   0.74957   0.00000  Uiso   1.00
C937   C     0.90482   0.17401   0.53635   0.00000  Uiso   1.00
C938   C     0.75131   0.22767   0.98441   0.00000  Uiso   1.00
C939   C     0.93938   0.14783   0.50423   0.00000  Uiso   1.00
C940   C     0.83487   0.17986   0.96920   0.00000  Uiso   1.00
C941   C     0.85647   0.19626   0.51774   0.00000  Uiso   1.00
C942   C     0.73665   0.07771   0.58165   0.00000  Uiso   1.00
C943   C     0.79871   0.07024   0.59405   0.00000  Uiso   1.00
C944   C     0.96199   0.29846   0.90410   0.00000  Uiso   1.00
C945   C     0.90460   0.31512   0.91882   0.00000  Uiso   1.00
C946   C     0.90483   0.30116   0.57523   0.00000  Uiso   1.00
C947   C     0.83008   0.23553   0.54531   0.00000  Uiso   1.00
C948   C     0.85837   0.10137   0.85812   0.00000  Uiso   1.00
C949   C     0.77230   0.00717   0.70307   0.00000  Uiso   1.00
C950   C     0.88468   0.31959   0.77217   0.00000  Uiso   1.00
C951   C     0.87098   0.15415   0.93649   0.00000  Uiso   1.00
C952   C     0.77734   0.24985   0.52864   0.00000  Uiso   1.00
C953   C     0.92239   0.13847   0.95485   0.00000  Uiso   1.00
C954   C     0.68928   0.31860   0.74661   0.00000  Uiso   1.00
C955   C     0.97659   0.01375   0.74409   0.00000  Uiso   1.00
C956   C     0.68804   0.17238   0.84131   0.00000  Uiso   1.00
H957   H     0.75729   0.27950   0.54977   0.00000  Uiso   1.00
H958   H     0.70934   0.05589   0.60615   0.00000  Uiso   1.00
H959   H     0.81231   0.08886   0.63108   0.00000  Uiso   1.00
H960   H     0.80431   0.02857   0.59347   0.00000  Uiso   1.00
H961   H     0.82581   0.08744   0.56659   0.00000  Uiso   1.00
H962   H     0.97122   0.31186   0.86769   0.00000  Uiso   1.00
H963   H     0.99546   0.31906   0.93023   0.00000  Uiso   1.00
H964   H     0.89464   0.30081   0.95485   0.00000  Uiso   1.00
H965   H     0.90577   0.02444   0.92212   0.00000  Uiso   1.00
H966   H     0.87064   0.29921   0.89082   0.00000  Uiso   1.00
H967   H     0.83231   0.28068   0.61162   0.00000  Uiso   1.00
H968   H     0.95013   0.11988   0.93000   0.00000  Uiso   1.00
H969   H     0.88835   0.33036   0.55203   0.00000  Uiso   1.00
H970   H     0.92546   0.32118   0.60972   0.00000  Uiso   1.00
H971   H     0.93752   0.28091   0.55552   0.00000  Uiso   1.00
H972   H     0.83922   0.17948   0.86954   0.00000  Uiso   1.00
H973   H     0.90145   0.08775   0.85528   0.00000  Uiso   1.00
H974   H     0.83927   0.10314   0.82049   0.00000  Uiso   1.00
H975   H     0.83115   0.07327   0.87694   0.00000  Uiso   1.00
H976   H     0.77110   0.32836   0.77806   0.00000  Uiso   1.00
H977   H     0.81088   0.03444   0.70634   0.00000  Uiso   1.00
H978   H     0.74263   0.01998   0.67472   0.00000  Uiso   1.00
H979   H     0.88642   0.18567   0.61202   0.00000  Uiso   1.00
H980   H     0.78374   0.30125   0.69111   0.00000  Uiso   1.00
H981   H     0.90074   0.00660   0.70196   0.00000  Uiso   1.00
H982   H     0.84909   0.29019   0.76111   0.00000  Uiso   1.00
H983   H     0.86836   0.02373   0.78312   0.00000  Uiso   1.00
H984   H     0.90806   0.30617   0.80410   0.00000  Uiso   1.00
H985   H     0.76241   0.13131   0.89628   0.00000  Uiso   1.00
H986   H     0.67672   0.26936   0.99108   0.00000  Uiso   1.00
H987   H     0.68731   0.11751   0.99599   0.00000  Uiso   1.00
H988   H     0.82888   0.12543   0.71300   0.00000  Uiso   1.00
H989   H     0.83788   0.20763   0.78739   0.00000  Uiso   1.00
H990   H     0.72653   0.06139   0.54308   0.00000  Uiso   1.00
N991   N     0.81362   0.15216   0.73739   0.00000  Uiso   1.00
N992   N     0.85305   0.18117   0.76260   0.00000  Uiso   1.00
N993   N     0.85878   0.26488   0.58684   0.00000  Uiso   1.00
N994   N     0.86217   0.15201   0.88440   0.00000  Uiso   1.00
N995   N     0.74652   0.00740   0.74993   0.00000  Uiso   1.00
N996   N     0.92034   0.32441   0.73122   0.00000  Uiso   1.00
O997   O     0.96386   0.24631   0.75309   0.00000  Uiso   1.00
O998   O     0.95967   0.24387   0.90076   0.00000  Uiso   1.00
O999   O     0.70281   0.08702   0.74690   0.00000  Uiso   1.00
O1000  O     0.72488   0.23702   0.74501   0.00000  Uiso   1.00
O1001  O     0.94178   0.09632   0.75498   0.00000  Uiso   1.00
O1002  O     0.96995   0.17397   0.82247   0.00000  Uiso   1.00
O1003  O     0.69672   0.15937   0.67753   0.00000  Uiso   1.00
O1004  O     0.73098   0.16467   0.81439   0.00000  Uiso   1.00
O1005  O     0.93569   0.16866   0.68561   0.00000  Uiso   1.00
O1006  O     0.72889   0.13075   0.58850   0.00000  Uiso   1.00
Zn1007 Zn    0.93700   0.17287   0.75539   0.00000  Uiso   1.00
Zn1008 Zn    0.72967   0.16046   0.74460   0.00000  Uiso   1.00
C1009  C     0.01468   0.59775   0.74756   0.00000  Uiso   1.00
C1010  C     0.31224   0.49552   0.65855   0.00000  Uiso   1.00
C1011  C     0.03429   0.51934   0.89384   0.00000  Uiso   1.00
C1012  C     0.30221   0.49199   0.60497   0.00000  Uiso   1.00
C1013  C     0.03195   0.57617   0.96785   0.00000  Uiso   1.00
C1014  C     0.32501   0.46618   0.52170   0.00000  Uiso   1.00
C1015  C     0.00915   0.55937   0.92012   0.00000  Uiso   1.00
C1016  C     0.00766   0.47257   0.57208   0.00000  Uiso   1.00
C1017  C     0.08156   0.49898   0.91449   0.00000  Uiso   1.00
C1018  C     0.25086   0.50768   0.58664   0.00000  Uiso   1.00
C1019  C     0.11219   0.52451   0.95542   0.00000  Uiso   1.00
C1020  C     0.31818   0.40187   0.74957   0.00000  Uiso   1.00
C1021  C     0.23816   0.50734   0.53635   0.00000  Uiso   1.00
C1022  C     0.08465   0.56100   0.98441   0.00000  Uiso   1.00
C1023  C     0.27272   0.48116   0.50423   0.00000  Uiso   1.00
C1024  C     0.16821   0.51319   0.96920   0.00000  Uiso   1.00
C1025  C     0.18981   0.52959   0.51774   0.00000  Uiso   1.00
C1026  C     0.06999   0.41104   0.58165   0.00000  Uiso   1.00
C1027  C     0.13204   0.40358   0.59405   0.00000  Uiso   1.00
C1028  C     0.29532   0.63180   0.90410   0.00000  Uiso   1.00
C1029  C     0.23793   0.64845   0.91882   0.00000  Uiso   1.00
C1030  C     0.23816   0.63449   0.57523   0.00000  Uiso   1.00
C1031  C     0.16342   0.56886   0.54531   0.00000  Uiso   1.00
C1032  C     0.19170   0.43471   0.85812   0.00000  Uiso   1.00
C1033  C     0.10563   0.34051   0.70307   0.00000  Uiso   1.00
C1034  C     0.21801   0.65293   0.77217   0.00000  Uiso   1.00
C1035  C     0.20431   0.48749   0.93649   0.00000  Uiso   1.00
C1036  C     0.11067   0.58318   0.52864   0.00000  Uiso   1.00
C1037  C     0.25573   0.47180   0.95485   0.00000  Uiso   1.00
C1038  C     0.02261   0.65193   0.74661   0.00000  Uiso   1.00
C1039  C     0.30992   0.34708   0.74409   0.00000  Uiso   1.00
C1040  C     0.02137   0.50571   0.84131   0.00000  Uiso   1.00
H1041  H     0.09062   0.61284   0.54977   0.00000  Uiso   1.00
H1042  H     0.04267   0.38922   0.60615   0.00000  Uiso   1.00
H1043  H     0.14564   0.42219   0.63108   0.00000  Uiso   1.00
H1044  H     0.13764   0.36191   0.59347   0.00000  Uiso   1.00
H1045  H     0.15914   0.42078   0.56659   0.00000  Uiso   1.00
H1046  H     0.30455   0.64519   0.86769   0.00000  Uiso   1.00
H1047  H     0.32880   0.65239   0.93023   0.00000  Uiso   1.00
H1048  H     0.22797   0.63414   0.95485   0.00000  Uiso   1.00
H1049  H     0.23910   0.35778   0.92212   0.00000  Uiso   1.00
H1050  H     0.20397   0.63254   0.89082   0.00000  Uiso   1.00
H1051  H     0.16565   0.61402   0.61162   0.00000  Uiso   1.00
H1052  H     0.28346   0.45321   0.93000   0.00000  Uiso   1.00
H1053  H     0.22168   0.66370   0.55203   0.00000  Uiso   1.00
H1054  H     0.25880   0.65451   0.60972   0.00000  Uiso   1.00
H1055  H     0.27085   0.61424   0.55552   0.00000  Uiso   1.00
H1056  H     0.17256   0.51281   0.86954   0.00000  Uiso   1.00
H1057  H     0.23478   0.42108   0.85528   0.00000  Uiso   1.00
H1058  H     0.17260   0.43648   0.82049   0.00000  Uiso   1.00
H1059  H     0.16448   0.40660   0.87694   0.00000  Uiso   1.00
H1060  H     0.10444   0.66169   0.77806   0.00000  Uiso   1.00
H1061  H     0.14422   0.36777   0.70634   0.00000  Uiso   1.00
H1062  H     0.07596   0.35332   0.67472   0.00000  Uiso   1.00
H1063  H     0.21975   0.51900   0.61202   0.00000  Uiso   1.00
H1064  H     0.11707   0.63459   0.69111   0.00000  Uiso   1.00
H1065  H     0.23408   0.33993   0.70196   0.00000  Uiso   1.00
H1066  H     0.18242   0.62352   0.76111   0.00000  Uiso   1.00
H1067  H     0.20169   0.35706   0.78312   0.00000  Uiso   1.00
H1068  H     0.24139   0.63951   0.80410   0.00000  Uiso   1.00
H1069  H     0.09574   0.46465   0.89628   0.00000  Uiso   1.00
H1070  H     0.01006   0.60269   0.99108   0.00000  Uiso   1.00
H1071  H     0.02064   0.45085   0.99599   0.00000  Uiso   1.00
H1072  H     0.16222   0.45877   0.71300   0.00000  Uiso   1.00
H1073  H     0.17121   0.54097   0.78739   0.00000  Uiso   1.00
H1074  H     0.05986   0.39472   0.54308   0.00000  Uiso   1.00
N1075  N     0.14695   0.48550   0.73739   0.00000  Uiso   1.00
N1076  N     0.18638   0.51450   0.76260   0.00000  Uiso   1.00
N1077  N     0.19212   0.59822   0.58684   0.00000  Uiso   1.00
N1078  N     0.19550   0.48534   0.88440   0.00000  Uiso   1.00
N1079  N     0.07985   0.34073   0.74993   0.00000  Uiso   1.00
N1080  N     0.25368   0.65774   0.73122   0.00000  Uiso   1.00
O1081  O     0.29719   0.57964   0.75309   0.00000  Uiso   1.00
O1082  O     0.29300   0.57720   0.90076   0.00000  Uiso   1.00
O1083  O     0.03614   0.42036   0.74690   0.00000  Uiso   1.00
O1084  O     0.05822   0.57035   0.74501   0.00000  Uiso   1.00
O1085  O     0.27512   0.42965   0.75498   0.00000  Uiso   1.00
O1086  O     0.30328   0.50730   0.82247   0.00000  Uiso   1.00
O1087  O     0.03005   0.49270   0.67753   0.00000  Uiso   1.00
O1088  O     0.06431   0.49801   0.81439   0.00000  Uiso   1.00
O1089  O     0.26902   0.50199   0.68561   0.00000  Uiso   1.00
O1090  O     0.06223   0.46409   0.58850   0.00000  Uiso   1.00
Zn1091 Zn    0.27033   0.50621   0.75539   0.00000  Uiso   1.00
Zn1092 Zn    0.06300   0.49379   0.74460   0.00000  Uiso   1.00
C1093  C     0.34801   0.59775   0.74756   0.00000  Uiso   1.00
C1094  C     0.64558   0.49552   0.65855   0.00000  Uiso   1.00
C1095  C     0.36763   0.51934   0.89384   0.00000  Uiso   1.00
C1096  C     0.63554   0.49199   0.60497   0.00000  Uiso   1.00
C1097  C     0.36529   0.57617   0.96785   0.00000  Uiso   1.00
C1098  C     0.65835   0.46618   0.52170   0.00000  Uiso   1.00
C1099  C     0.34248   0.55937   0.92012   0.00000  Uiso   1.00
C1100  C     0.34099   0.47257   0.57208   0.00000  Uiso   1.00
C1101  C     0.41489   0.49898   0.91449   0.00000  Uiso   1.00
C1102  C     0.58420   0.50768   0.58664   0.00000  Uiso   1.00
C1103  C     0.44552   0.52451   0.95542   0.00000  Uiso   1.00
C1104  C     0.65151   0.40187   0.74957   0.00000  Uiso   1.00
C1105  C     0.57149   0.50734   0.53635   0.00000  Uiso   1.00
C1106  C     0.41798   0.56100   0.98441   0.00000  Uiso   1.00
C1107  C     0.60605   0.48116   0.50423   0.00000  Uiso   1.00
C1108  C     0.50154   0.51319   0.96920   0.00000  Uiso   1.00
C1109  C     0.52314   0.52959   0.51774   0.00000  Uiso   1.00
C1110  C     0.40332   0.41104   0.58165   0.00000  Uiso   1.00
C1111  C     0.46538   0.40358   0.59405   0.00000  Uiso   1.00
C1112  C     0.62865   0.63180   0.90410   0.00000  Uiso   1.00
C1113  C     0.57126   0.64845   0.91882   0.00000  Uiso   1.00
C1114  C     0.57150   0.63449   0.57523   0.00000  Uiso   1.00
C1115  C     0.49675   0.56886   0.54531   0.00000  Uiso   1.00
C1116  C     0.52503   0.43471   0.85812   0.00000  Uiso   1.00
C1117  C     0.43897   0.34051   0.70307   0.00000  Uiso   1.00
C1118  C     0.55134   0.65293   0.77217   0.00000  Uiso   1.00
C1119  C     0.53764   0.48749   0.93649   0.00000  Uiso   1.00
C1120  C     0.44400   0.58318   0.52864   0.00000  Uiso   1.00
C1121  C     0.58906   0.47180   0.95485   0.00000  Uiso   1.00
C1122  C     0.35595   0.65193   0.74661   0.00000  Uiso   1.00
C1123  C     0.64326   0.34708   0.74409   0.00000  Uiso   1.00
C1124  C     0.35470   0.50571   0.84131   0.00000  Uiso   1.00
H1125  H     0.42395   0.61284   0.54977   0.00000  Uiso   1.00
H1126  H     0.37600   0.38922   0.60615   0.00000  Uiso   1.00
H1127  H     0.47898   0.42219   0.63108   0.00000  Uiso   1.00
H1128  H     0.47098   0.36191   0.59347   0.00000  Uiso   1.00
H1129  H     0.49247   0.42078   0.56659   0.00000  Uiso   1.00
H1130  H     0.63789   0.64519   0.86769   0.00000  Uiso   1.00
H1131  H     0.66213   0.65239   0.93023   0.00000  Uiso   1.00
H1132  H     0.56131   0.63414   0.95485   0.00000  Uiso   1.00
H1133  H     0.57243   0.35778   0.92212   0.00000  Uiso   1.00
H1134  H     0.53730   0.63254   0.89082   0.00000  Uiso   1.00
H1135  H     0.49898   0.61402   0.61162   0.00000  Uiso   1.00
H1136  H     0.61680   0.45321   0.93000   0.00000  Uiso   1.00
H1137  H     0.55501   0.66370   0.55203   0.00000  Uiso   1.00
H1138  H     0.59213   0.65451   0.60972   0.00000  Uiso   1.00
H1139  H     0.60419   0.61424   0.55552   0.00000  Uiso   1.00
H1140  H     0.50589   0.51281   0.86954   0.00000  Uiso   1.00
H1141  H     0.56811   0.42108   0.85528   0.00000  Uiso   1.00
H1142  H     0.50594   0.43648   0.82049   0.00000  Uiso   1.00
H1143  H     0.49781   0.40660   0.87694   0.00000  Uiso   1.00
H1144  H     0.43777   0.66169   0.77806   0.00000  Uiso   1.00
H1145  H     0.47755   0.36777   0.70634   0.00000  Uiso   1.00
H1146  H     0.40930   0.35332   0.67472   0.00000  Uiso   1.00
H1147  H     0.55309   0.51900   0.61202   0.00000  Uiso   1.00
H1148  H     0.45041   0.63459   0.69111   0.00000  Uiso   1.00
H1149  H     0.56741   0.33993   0.70196   0.00000  Uiso   1.00
H1150  H     0.51575   0.62352   0.76111   0.00000  Uiso   1.00
H1151  H     0.53503   0.35706   0.78312   0.00000  Uiso   1.00
H1152  H     0.57473   0.63951   0.80410   0.00000  Uiso   1.00
H1153  H     0.42908   0.46465   0.89628   0.00000  Uiso   1.00
H1154  H     0.34339   0.60269   0.99108   0.00000  Uiso   1.00
H1155  H     0.35397   0.45085   0.99599   0.00000  Uiso   1.00
H1156  H     0.49555   0.45877   0.71300   0.00000  Uiso   1.00
H1157  H     0.50455   0.54097   0.78739   0.00000  Uiso   1.00
H1158  H     0.39320   0.39472   0.54308   0.00000  Uiso   1.00
N1159  N     0.48029   0.48550   0.73739   0.00000  Uiso   1.00
N1160  N     0.51971   0.51450   0.76260   0.00000  Uiso   1.00
N1161  N     0.52545   0.59822   0.58684   0.00000  Uiso   1.00
N1162  N     0.52884   0.48534   0.88440   0.00000  Uiso   1.00
N1163  N     0.41319   0.34073   0.74993   0.00000  Uiso   1.00
N1164  N     0.58701   0.65774   0.73122   0.00000  Uiso   1.00
O1165  O     0.63052   0.57964   0.75309   0.00000  Uiso   1.00
O1166  O     0.62633   0.57720   0.90076   0.00000  Uiso   1.00
O1167  O     0.36948   0.42036   0.74690   0.00000  Uiso   1.00
O1168  O     0.39155   0.57035   0.74501   0.00000  Uiso   1.00
O1169  O     0.60845   0.42965   0.75498   0.00000  Uiso   1.00
O1170  O     0.63662   0.50730   0.82247   0.00000  Uiso   1.00
O1171  O     0.36338   0.49270   0.67753   0.00000  Uiso   1.00
O1172  O     0.39764   0.49801   0.81439   0.00000  Uiso   1.00
O1173  O     0.60236   0.50199   0.68561   0.00000  Uiso   1.00
O1174  O     0.39556   0.46409   0.58850   0.00000  Uiso   1.00
Zn1175 Zn    0.60366   0.50621   0.75539   0.00000  Uiso   1.00
Zn1176 Zn    0.39634   0.49379   0.74460   0.00000  Uiso   1.00
C1177  C     0.68134   0.59775   0.74756   0.00000  Uiso   1.00
C1178  C     0.97891   0.49552   0.65855   0.00000  Uiso   1.00
C1179  C     0.70096   0.51934   0.89384   0.00000  Uiso   1.00
C1180  C     0.96887   0.49199   0.60497   0.00000  Uiso   1.00
C1181  C     0.69862   0.57617   0.96785   0.00000  Uiso   1.00
C1182  C     0.99168   0.46618   0.52170   0.00000  Uiso   1.00
C1183  C     0.67581   0.55937   0.92012   0.00000  Uiso   1.00
C1184  C     0.67433   0.47257   0.57208   0.00000  Uiso   1.00
C1185  C     0.74823   0.49898   0.91449   0.00000  Uiso   1.00
C1186  C     0.91753   0.50768   0.58664   0.00000  Uiso   1.00
C1187  C     0.77885   0.52451   0.95542   0.00000  Uiso   1.00
C1188  C     0.98485   0.40187   0.74957   0.00000  Uiso   1.00
C1189  C     0.90482   0.50734   0.53635   0.00000  Uiso   1.00
C1190  C     0.75131   0.56100   0.98441   0.00000  Uiso   1.00
C1191  C     0.93938   0.48116   0.50423   0.00000  Uiso   1.00
C1192  C     0.83487   0.51319   0.96920   0.00000  Uiso   1.00
C1193  C     0.85647   0.52959   0.51774   0.00000  Uiso   1.00
C1194  C     0.73665   0.41104   0.58165   0.00000  Uiso   1.00
C1195  C     0.79871   0.40358   0.59405   0.00000  Uiso   1.00
C1196  C     0.96199   0.63180   0.90410   0.00000  Uiso   1.00
C1197  C     0.90460   0.64845   0.91882   0.00000  Uiso   1.00
C1198  C     0.90483   0.63449   0.57523   0.00000  Uiso   1.00
C1199  C     0.83008   0.56886   0.54531   0.00000  Uiso   1.00
C1200  C     0.85837   0.43471   0.85812   0.00000  Uiso   1.00
C1201  C     0.77230   0.34051   0.70307   0.00000  Uiso   1.00
C1202  C     0.88468   0.65293   0.77217   0.00000  Uiso   1.00
C1203  C     0.87098   0.48749   0.93649   0.00000  Uiso   1.00
C1204  C     0.77734   0.58318   0.52864   0.00000  Uiso   1.00
C1205  C     0.92239   0.47180   0.95485   0.00000  Uiso   1.00
C1206  C     0.68928   0.65193   0.74661   0.00000  Uiso   1.00
C1207  C     0.97659   0.34708   0.74409   0.00000  Uiso   1.00
C1208  C     0.68804   0.50571   0.84131   0.00000  Uiso   1.00
H1209  H     0.75729   0.61284   0.54977   0.00000  Uiso   1.00
H1210  H     0.70934   0.38922   0.60615   0.00000  Uiso   1.00
H1211  H     0.81231   0.42219   0.63108   0.00000  Uiso   1.00
H1212  H     0.80431   0.36191   0.59347   0.00000  Uiso   1.00
H1213  H     0.82581   0.42078   0.56659   0.00000  Uiso   1.00
H1214  H     0.97122   0.64519   0.86769   0.00000  Uiso   1.00
H1215  H     0.99546   0.65239   0.93023   0.00000  Uiso   1.00
H1216  H     0.89464   0.63414   0.95485   0.00000  Uiso   1.00
H1217  H     0.90577   0.35778   0.92212   0.00000  Uiso   1.00
H1218  H     0.87064   0.63254   0.89082   0.00000  Uiso   1.00
H1219  H     0.83231   0.61402   0.61162   0.00000  Uiso   1.00
H1220  H     0.95013   0.45321   0.93000   0.00000  Uiso   1.00
H1221  H     0.88835   0.66370   0.55203   0.00000  Uiso   1.00
H1222  H     0.92546   0.65451   0.60972   0.00000  Uiso   1.00
H1223  H     0.93752   0.61424   0.55552   0.00000  Uiso   1.00
H1224  H     0.83922   0.51281   0.86954   0.00000  Uiso   1.00
H1225  H     0.90145   0.42108   0.85528   0.00000  Uiso   1.00
H1226  H     0.83927   0.43648   0.82049   0.00000  Uiso   1.00
H1227  H     0.83115   0.40660   0.87694   0.00000  Uiso   1.00
H1228  H     0.77110   0.66169   0.77806   0.00000  Uiso   1.00
H1229  H     0.81088   0.36777   0.70634   0.00000  Uiso   1.00
H1230  H     0.74263   0.35332   0.67472   0.00000  Uiso   1.00
H1231  H     0.88642   0.51900   0.61202   0.00000  Uiso   1.00
H1232  H     0.78374   0.63459   0.69111   0.00000  Uiso   1.00
H1233  H     0.90074   0.33993   0.70196   0.00000  Uiso   1.00
H1234  H     0.84909   0.62352   0.76111   0.00000  Uiso   1.00
H1235  H     0.86836   0.35706   0.78312   0.00000  Uiso   1.00
H1236  H     0.90806   0.63951   0.80410   0.00000  Uiso   1.00
H1237  H     0.76241   0.46465   0.89628   0.00000  Uiso   1.00
H1238  H     0.67672   0.60269   0.99108   0.00000  Uiso   1.00
H1239  H     0.68731   0.45085   0.99599   0.00000  Uiso   1.00
H1240  H     0.82888   0.45877   0.71300   0.00000  Uiso   1.00
H1241  H     0.83788   0.54097   0.78739   0.00000  Uiso   1.00
H1242  H     0.72653   0.39472   0.54308   0.00000  Uiso   1.00
N1243  N     0.81362   0.48550   0.73739   0.00000  Uiso   1.00
N1244  N     0.85305   0.51450   0.76260   0.00000  Uiso   1.00
N1245  N     0.85878   0.59822   0.58684   0.00000  Uiso   1.00
N1246  N     0.86217   0.48534   0.88440   0.00000  Uiso   1.00
N1247  N     0.74652   0.34073   0.74993   0.00000  Uiso   1.00
N1248  N     0.92034   0.65774   0.73122   0.00000  Uiso   1.00
O1249  O     0.96386   0.57964   0.75309   0.00000  Uiso   1.00
O1250  O     0.95967   0.57720   0.90076   0.00000  Uiso   1.00
O1251  O     0.70281   0.42036   0.74690   0.00000  Uiso   1.00
O1252  O     0.72488   0.57035   0.74501   0.00000  Uiso   1.00
O1253  O     0.94178   0.42965   0.75498   0.00000  Uiso   1.00
O1254  O     0.96995   0.50730   0.82247   0.00000  Uiso   1.00
O1255  O     0.69672   0.49270   0.67753   0.00000  Uiso   1.00
O1256  O     0.73098   0.49801   0.81439   0.00000  Uiso   1.00
O1257  O     0.93569   0.50199   0.68561   0.00000  Uiso   1.00
O1258  O     0.72889   0.46409   0.58850   0.00000  Uiso   1.00
Zn1259 Zn    0.93700   0.50621   0.75539   0.00000  Uiso   1.00
Zn1260 Zn    0.72967   0.49379   0.74460   0.00000  Uiso   1.00
C1261  C     0.01468   0.93108   0.74756   0.00000  Uiso   1.00
C1262  C     0.31224   0.82885   0.65855   0.00000  Uiso   1.00
C1263  C     0.03429   0.85267   0.89384   0.00000  Uiso   1.00
C1264  C     0.30221   0.82532   0.60497   0.00000  Uiso   1.00
C1265  C     0.03195   0.90951   0.96785   0.00000  Uiso   1.00
C1266  C     0.32501   0.79951   0.52170   0.00000  Uiso   1.00
C1267  C     0.00915   0.89271   0.92012   0.00000  Uiso   1.00
C1268  C     0.00766   0.80590   0.57208   0.00000  Uiso   1.00
C1269  C     0.08156   0.83231   0.91449   0.00000  Uiso   1.00
C1270  C     0.25086   0.84102   0.58664   0.00000  Uiso   1.00
C1271  C     0.11219   0.85784   0.95542   0.00000  Uiso   1.00
C1272  C     0.31818   0.73520   0.74957   0.00000  Uiso   1.00
C1273  C     0.23816   0.84067   0.53635   0.00000  Uiso   1.00
C1274  C     0.08465   0.89434   0.98441   0.00000  Uiso   1.00
C1275  C     0.27272   0.81449   0.50423   0.00000  Uiso   1.00
C1276  C     0.16821   0.84652   0.96920   0.00000  Uiso   1.00
C1277  C     0.18981   0.86292   0.51774   0.00000  Uiso   1.00
C1278  C     0.06999   0.74437   0.58165   0.00000  Uiso   1.00
C1279  C     0.13204   0.73691   0.59405   0.00000  Uiso   1.00
C1280  C     0.29532   0.96513   0.90410   0.00000  Uiso   1.00
C1281  C     0.23793   0.98178   0.91882   0.00000  Uiso   1.00
C1282  C     0.23816   0.96783   0.57523   0.00000  Uiso   1.00
C1283  C     0.16342   0.90220   0.54531   0.00000  Uiso   1.00
C1284  C     0.19170   0.76804   0.85812   0.00000  Uiso   1.00
C1285  C     0.10563   0.67384   0.70307   0.00000  Uiso   1.00
C1286  C     0.21801   0.98626   0.77217   0.00000  Uiso   1.00
C1287  C     0.20431   0.82082   0.93649   0.00000  Uiso   1.00
C1288  C     0.11067   0.91652   0.52864   0.00000  Uiso   1.00
C1289  C     0.25573   0.80513   0.95485   0.00000  Uiso   1.00
C1290  C     0.02261   0.98526   0.74661   0.00000  Uiso   1.00
C1291  C     0.30992   0.68042   0.74409   0.00000  Uiso   1.00
C1292  C     0.02137   0.83905   0.84131   0.00000  Uiso   1.00
H1293  H     0.09062   0.94617   0.54977   0.00000  Uiso   1.00
H1294  H     0.04267   0.72255   0.60615   0.00000  Uiso   1.00
H1295  H     0.14564   0.75552   0.63108   0.00000  Uiso   1.00
H1296  H     0.13764   0.69524   0.59347   0.00000  Uiso   1.00
H1297  H     0.15914   0.75411   0.56659   0.00000  Uiso   1.00
H1298  H     0.30455   0.97853   0.86769   0.00000  Uiso   1.00
H1299  H     0.32880   0.98572   0.93023   0.00000  Uiso   1.00
H1300  H     0.22797   0.96748   0.95485   0.00000  Uiso   1.00
H1301  H     0.23910   0.69111   0.92212   0.00000  Uiso   1.00
H1302  H     0.20397   0.96588   0.89082   0.00000  Uiso   1.00
H1303  H     0.16565   0.94735   0.61162   0.00000  Uiso   1.00
H1304  H     0.28346   0.78655   0.93000   0.00000  Uiso   1.00
H1305  H     0.22168   0.99703   0.55203   0.00000  Uiso   1.00
H1306  H     0.25880   0.98784   0.60972   0.00000  Uiso   1.00
H1307  H     0.27085   0.94758   0.55552   0.00000  Uiso   1.00
H1308  H     0.17256   0.84615   0.86954   0.00000  Uiso   1.00
H1309  H     0.23478   0.75442   0.85528   0.00000  Uiso   1.00
H1310  H     0.17260   0.76981   0.82049   0.00000  Uiso   1.00
H1311  H     0.16448   0.73994   0.87694   0.00000  Uiso   1.00
H1312  H     0.10444   0.99502   0.77806   0.00000  Uiso   1.00
H1313  H     0.14422   0.70111   0.70634   0.00000  Uiso   1.00
H1314  H     0.07596   0.68665   0.67472   0.00000  Uiso   1.00
H1315  H     0.21975   0.85234   0.61202   0.00000  Uiso   1.00
H1316  H     0.11707   0.96792   0.69111   0.00000  Uiso   1.00
H1317  H     0.23408   0.67326   0.70196   0.00000  Uiso   1.00
H1318  H     0.18242   0.95685   0.76111   0.00000  Uiso   1.00
H1319  H     0.20169   0.69039   0.78312   0.00000  Uiso   1.00
H1320  H     0.24139   0.97284   0.80410   0.00000  Uiso   1.00
H1321  H     0.09574   0.79798   0.89628   0.00000  Uiso   1.00
H1322  H     0.01006   0.93603   0.99108   0.00000  Uiso   1.00
H1323  H     0.02064   0.78418   0.99599   0.00000  Uiso   1.00
H1324  H     0.16222   0.79210   0.71300   0.00000  Uiso   1.00
H1325  H     0.17121   0.87430   0.78739   0.00000  Uiso   1.00
H1326  H     0.05986   0.72806   0.54308   0.00000  Uiso   1.00
N1327  N     0.14695   0.81883   0.73739   0.00000  Uiso   1.00
N1328  N     0.18638   0.84784   0.76260   0.00000  Uiso   1.00
N1329  N     0.19212   0.93155   0.58684   0.00000  Uiso   1.00
N1330  N     0.19550   0.81867   0.88440   0.00000  Uiso   1.00
N1331  N     0.07985   0.67406   0.74993   0.00000  Uiso   1.00
N1332  N     0.25368   0.99108   0.73122   0.00000  Uiso   1.00
O1333  O     0.29719   0.91298   0.75309   0.00000  Uiso   1.00
O1334  O     0.29300   0.91054   0.90076   0.00000  Uiso   1.00
O1335  O     0.03614   0.75369   0.74690   0.00000  Uiso   1.00
O1336  O     0.05822   0.90368   0.74501   0.00000  Uiso   1.00
O1337  O     0.27512   0.76298   0.75498   0.00000  Uiso   1.00
O1338  O     0.30328   0.84063   0.82247   0.00000  Uiso   1.00
O1339  O     0.03005   0.82603   0.67753   0.00000  Uiso   1.00
O1340  O     0.06431   0.83134   0.81439   0.00000  Uiso   1.00
O1341  O     0.26902   0.83533   0.68561   0.00000  Uiso   1.00
O1342  O     0.06223   0.79742   0.58850   0.00000  Uiso   1.00
Zn1343 Zn    0.27033   0.83954   0.75539   0.00000  Uiso   1.00
Zn1344 Zn    0.06300   0.82713   0.74460   0.00000  Uiso   1.00
C1345  C     0.34801   0.93108   0.74756   0.00000  Uiso   1.00
C1346  C     0.64558   0.82885   0.65855   0.00000  Uiso   1.00
C1347  C     0.36763   0.85267   0.89384   0.00000  Uiso   1.00
C1348  C     0.63554   0.82532   0.60497   0.00000  Uiso   1.00
C1349  C     0.36529   0.90951   0.96785   0.00000  Uiso   1.00
C1350  C     0.65835   0.79951   0.52170   0.00000  Uiso   1.00
C1351  C     0.34248   0.89271   0.92012   0.00000  Uiso   1.00
C1352  C     0.34099   0.80590   0.57208   0.00000  Uiso   1.00
C1353  C     0.41489   0.83231   0.91449   0.00000  Uiso   1.00
C1354  C     0.58420   0.84102   0.58664   0.00000  Uiso   1.00
C1355  C     0.44552   0.85784   0.95542   0.00000  Uiso   1.00
C1356  C     0.65151   0.73520   0.74957   0.00000  Uiso   1.00
C1357  C     0.57149   0.84067   0.53635   0.00000  Uiso   1.00
C1358  C     0.41798   0.89434   0.98441   0.00000  Uiso   1.00
C1359  C     0.60605   0.81449   0.50423   0.00000  Uiso   1.00
C1360  C     0.50154   0.84652   0.96920   0.00000  Uiso   1.00
C1361  C     0.52314   0.86292   0.51774   0.00000  Uiso   1.00
C1362  C     0.40332   0.74437   0.58165   0.00000  Uiso   1.00
C1363  C     0.46538   0.73691   0.59405   0.00000  Uiso   1.00
C1364  C     0.62865   0.96513   0.90410   0.00000  Uiso   1.00
C1365  C     0.57126   0.98178   0.91882   0.00000  Uiso   1.00
C1366  C     0.57150   0.96783   0.57523   0.00000  Uiso   1.00
C1367  C     0.49675   0.90220   0.54531   0.00000  Uiso   1.00
C1368  C     0.52503   0.76804   0.85812   0.00000  Uiso   1.00
C1369  C     0.43897   0.67384   0.70307   0.00000  Uiso   1.00
C1370  C     0.55134   0.98626   0.77217   0.00000  Uiso   1.00
C1371  C     0.53764   0.82082   0.93649   0.00000  Uiso   1.00
C1372  C     0.44400   0.91652   0.52864   0.00000  Uiso   1.00
C1373  C     0.58906   0.80513   0.95485   0.00000  Uiso   1.00
C1374  C     0.35595   0.98526   0.74661   0.00000  Uiso   1.00
C1375  C     0.64326   0.68042   0.74409   0.00000  Uiso   1.00
C1376  C     0.35470   0.83905   0.84131   0.00000  Uiso   1.00
H1377  H     0.42395   0.94617   0.54977   0.00000  Uiso   1.00
H1378  H     0.37600   0.72255   0.60615   0.00000  Uiso   1.00
H1379  H     0.47898   0.75552   0.63108   0.00000  Uiso   1.00
H1380  H     0.47098   0.69524   0.59347   0.00000  Uiso   1.00
H1381  H     0.49247   0.75411   0.56659   0.00000  Uiso   1.00
H1382  H     0.63789   0.97853   0.86769   0.00000  Uiso   1.00
H1383  H     0.66213   0.98572   0.93023   0.00000  Uiso   1.00
H1384  H     0.56131   0.96748   0.95485   0.00000  Uiso   1.00
H1385  H     0.57243   0.69111   0.92212   0.00000  Uiso   1.00
H1386  H     0.53730   0.96588   0.89082   0.00000  Uiso   1.00
H1387  H     0.49898   0.94735   0.61162   0.00000  Uiso   1.00
H1388  H     0.61680   0.78655   0.93000   0.00000  Uiso   1.00
H1389  H     0.55501   0.99703   0.55203   0.00000  Uiso   1.00
H1390  H     0.59213   0.98784   0.60972   0.00000  Uiso   1.00
H1391  H     0.60419   0.94758   0.55552   0.00000  Uiso   1.00
H1392  H     0.50589   0.84615   0.86954   0.00000  Uiso   1.00
H1393  H     0.56811   0.75442   0.85528   0.00000  Uiso   1.00
H1394  H     0.50594   0.76981   0.82049   0.00000  Uiso   1.00
H1395  H     0.49781   0.73994   0.87694   0.00000  Uiso   1.00
H1396  H     0.43777   0.99502   0.77806   0.00000  Uiso   1.00
H1397  H     0.47755   0.70111   0.70634   0.00000  Uiso   1.00
H1398  H     0.40930   0.68665   0.67472   0.00000  Uiso   1.00
H1399  H     0.55309   0.85234   0.61202   0.00000  Uiso   1.00
H1400  H     0.45041   0.96792   0.69111   0.00000  Uiso   1.00
H1401  H     0.56741   0.67326   0.70196   0.00000  Uiso   1.00
H1402  H     0.51575   0.95685   0.76111   0.00000  Uiso   1.00
H1403  H     0.53503   0.69039   0.78312   0.00000  Uiso   1.00
H1404  H     0.57473   0.97284   0.80410   0.00000  Uiso   1.00
H1405  H     0.42908   0.79798   0.89628   0.00000  Uiso   1.00
H1406  H     0.34339   0.93603   0.99108   0.00000  Uiso   1.00
H1407  H     0.35397   0.78418   0.99599   0.00000  Uiso   1.00
H1408  H     0.49555   0.79210   0.71300   0.00000  Uiso   1.00
H1409  H     0.50455   0.87430   0.78739   0.00000  Uiso   1.00
H1410  H     0.39320   0.72806   0.54308   0.00000  Uiso   1.00
N1411  N     0.48029   0.81883   0.73739   0.00000  Uiso   1.00
N1412  N     0.51971   0.84784   0.76260   0.00000  Uiso   1.00
N1413  N     0.52545   0.93155   0.58684   0.00000  Uiso   1.00
N1414  N     0.52884   0.81867   0.88440   0.00000  Uiso   1.00
N1415  N     0.41319   0.67406   0.74993   0.00000  Uiso   1.00
N1416  N     0.58701   0.99108   0.73122   0.00000  Uiso   1.00
O1417  O     0.63052   0.91298   0.75309   0.00000  Uiso   1.00
O1418  O     0.62633   0.91054   0.90076   0.00000  Uiso   1.00
O1419  O     0.36948   0.75369   0.74690   0.00000  Uiso   1.00
O1420  O     0.39155   0.90368   0.74501   0.00000  Uiso   1.00
O1421  O     0.60845   0.76298   0.75498   0.00000  Uiso   1.00
O1422  O     0.63662   0.84063   0.82247   0.00000  Uiso   1.00
O1423  O     0.36338   0.82603   0.67753   0.00000  Uiso   1.00
O1424  O     0.39764   0.83134   0.81439   0.00000  Uiso   1.00
O1425  O     0.60236   0.83533   0.68561   0.00000  Uiso   1.00
O1426  O     0.39556   0.79742   0.58850   0.00000  Uiso   1.00
Zn1427 Zn    0.60366   0.83954   0.75539   0.00000  Uiso   1.00
Zn1428 Zn    0.39634   0.82713   0.74460   0.00000  Uiso   1.00
C1429  C     0.68134   0.93108   0.74756   0.00000  Uiso   1.00
C1430  C     0.97891   0.82885   0.65855   0.00000  Uiso   1.00
C1431  C     0.70096   0.85267   0.89384   0.00000  Uiso   1.00
C1432  C     0.96887   0.82532   0.60497   0.00000  Uiso   1.00
C1433  C     0.69862   0.90951   0.96785   0.00000  Uiso   1.00
C1434  C     0.99168   0.79951   0.52170   0.00000  Uiso   1.00
C1435  C     0.67581   0.89271   0.92012   0.00000  Uiso   1.00
C1436  C     0.67433   0.80590   0.57208   0.00000  Uiso   1.00
C1437  C     0.74823   0.83231   0.91449   0.00000  Uiso   1.00
C1438  C     0.91753   0.84102   0.58664   0.00000  Uiso   1.00
C1439  C     0.77885   0.85784   0.95542   0.00000  Uiso   1.00
C1440  C     0.98485   0.73520   0.74957   0.00000  Uiso   1.00
C1441  C     0.90482   0.84067   0.53635   0.00000  Uiso   1.00
C1442  C     0.75131   0.89434   0.98441   0.00000  Uiso   1.00
C1443  C     0.93938   0.81449   0.50423   0.00000  Uiso   1.00
C1444  C     0.83487   0.84652   0.96920   0.00000  Uiso   1.00
C1445  C     0.85647   0.86292   0.51774   0.00000  Uiso   1.00
C1446  C     0.73665   0.74437   0.58165   0.00000  Uiso   1.00
C1447  C     0.79871   0.73691   0.59405   0.00000  Uiso   1.00
C1448  C     0.96199   0.96513   0.90410   0.00000  Uiso   1.00
C1449  C     0.90460   0.98178   0.91882   0.00000  Uiso   1.00
C1450  C     0.90483   0.96783   0.57523   0.00000  Uiso   1.00
C1451  C     0.83008   0.90220   0.54531   0.00000  Uiso   1.00
C1452  C     0.85837   0.76804   0.85812   0.00000  Uiso   1.00
C1453  C     0.77230   0.67384   0.70307   0.00000  Uiso   1.00
C1454  C     0.88468   0.98626   0.77217   0.00000  Uiso   1.00
C1455  C     0.87098   0.82082   0.93649   0.00000  Uiso   1.00
C1456  C     0.77734   0.91652   0.52864   0.00000  Uiso   1.00
C1457  C     0.92239   0.80513   0.95485   0.00000  Uiso   1.00
C1458  C     0.68928   0.98526   0.74661   0.00000  Uiso   1.00
C1459  C     0.97659   0.68042   0.74409   0.00000  Uiso   1.00
C1460  C     0.68804   0.83905   0.84131   0.00000  Uiso   1.00
H1461  H     0.75729   0.94617   0.54977   0.00000  Uiso   1.00
H1462  H     0.70934   0.72255   0.60615   0.00000  Uiso   1.00
H1463  H     0.81231   0.75552   0.63108   0.00000  Uiso   1.00
H1464  H     0.80431   0.69524   0.59347   0.00000  Uiso   1.00
H1465  H     0.82581   0.75411   0.56659   0.00000  Uiso   1.00
H1466  H     0.97122   0.97853   0.86769   0.00000  Uiso   1.00
H1467  H     0.99546   0.98572   0.93023   0.00000  Uiso   1.00
H1468  H     0.89464   0.96748   0.95485   0.00000  Uiso   1.00
H1469  H     0.90577   0.69111   0.92212   0.00000  Uiso   1.00
H1470  H     0.87064   0.96588   0.89082   0.00000  Uiso   1.00
H1471  H     0.83231   0.94735   0.61162   0.00000  Uiso   1.00
H1472  H     0.95013   0.78655   0.93000   0.00000  Uiso   1.00
H1473  H     0.88835   0.99703   0.55203   0.00000  Uiso   1.00
H1474  H     0.92546   0.98784   0.60972   0.00000  Uiso   1.00
H1475  H     0.93752   0.94758   0.55552   0.00000  Uiso   1.00
H1476  H     0.83922   0.84615   0.86954   0.00000  Uiso   1.00
H1477  H     0.90145   0.75442   0.85528   0.00000  Uiso   1.00
H1478  H     0.83927   0.76981   0.82049   0.00000  Uiso   1.00
H1479  H     0.83115   0.73994   0.87694   0.00000  Uiso   1.00
H1480  H     0.77110   0.99502   0.77806   0.00000  Uiso   1.00
H1481  H     0.81088   0.70111   0.70634   0.00000  Uiso   1.00
H1482  H     0.74263   0.68665   0.67472   0.00000  Uiso   1.00
H1483  H     0.88642   0.85234   0.61202   0.00000  Uiso   1.00
H1484  H     0.78374   0.96792   0.69111   0.00000  Uiso   1.00
H1485  H     0.90074   0.67326   0.70196   0.00000  Uiso   1.00
H1486  H     0.84909   0.95685   0.76111   0.00000  Uiso   1.00
H1487  H     0.86836   0.69039   0.78312   0.00000  Uiso   1.00
H1488  H     0.90806   0.97284   0.80410   0.00000  Uiso   1.00
H1489  H     0.76241   0.79798   0.89628   0.00000  Uiso   1.00
H1490  H     0.67672   0.93603   0.99108   0.00000  Uiso   1.00
H1491  H     0.68731   0.78418   0.99599   0.00000  Uiso   1.00
H1492  H     0.82888   0.79210   0.71300   0.00000  Uiso   1.00
H1493  H     0.83788   0.87430   0.78739   0.00000  Uiso   1.00
H1494  H     0.72653   0.72806   0.54308   0.00000  Uiso   1.00
N1495  N     0.81362   0.81883   0.73739   0.00000  Uiso   1.00
N1496  N     0.85305   0.84784   0.76260   0.00000  Uiso   1.00
N1497  N     0.85878   0.93155   0.58684   0.00000  Uiso   1.00
N1498  N     0.86217   0.81867   0.88440   0.00000  Uiso   1.00
N1499  N     0.74652   0.67406   0.74993   0.00000  Uiso   1.00
N1500  N     0.92034   0.99108   0.73122   0.00000  Uiso   1.00
O1501  O     0.96386   0.91298   0.75309   0.00000  Uiso   1.00
O1502  O     0.95967   0.91054   0.90076   0.00000  Uiso   1.00
O1503  O     0.70281   0.75369   0.74690   0.00000  Uiso   1.00
O1504  O     0.72488   0.90368   0.74501   0.00000  Uiso   1.00
O1505  O     0.94178   0.76298   0.75498   0.00000  Uiso   1.00
O1506  O     0.96995   0.84063   0.82247   0.00000  Uiso   1.00
O1507  O     0.69672   0.82603   0.67753   0.00000  Uiso   1.00
O1508  O     0.73098   0.83134   0.81439   0.00000  Uiso   1.00
O1509  O     0.93569   0.83533   0.68561   0.00000  Uiso   1.00
O1510  O     0.72889   0.79742   0.58850   0.00000  Uiso   1.00
Zn1511 Zn    0.93700   0.83954   0.75539   0.00000  Uiso   1.00
Zn1512 Zn    0.72967   0.82713   0.74460   0.00000  Uiso   1.00
loop_
_geom_bond_atom_site_label_1
_geom_bond_atom_site_label_2
_geom_bond_distance
_geom_bond_site_symmetry_2
_ccdc_geom_bond_type
C1     O76     1.302   .     A
C1     C30     1.415   .     S
C1     O241    1.275   1_455 S
C2     C4      1.467   .     S
C2     O81     1.306   .     A
C2     O163    1.300   .     S
C3     C7      1.411   .     A
C3     C9      1.388   .     A
C3     C32     1.463   .     S
C4     C10     1.393   .     A
C4     C92     1.413   .     S
C5     C7      1.409   .     A
C5     C14     1.400   .     A
C5     H62     1.083   .     S
C6     C15     1.398   .     A
C6     C92     1.403   .     S
C6     H903    1.083   1_554 S
C7     O242    1.388   1_455 S
C8     O82     1.383   .     S
C8     C172    1.413   1_455 S
C8     C174    1.403   1_455 S
C9     H61     1.077   .     S
C9     C11     1.393   .     A
C10    H55     1.080   .     S
C10    C13     1.392   .     A
C11    C14     1.413   .     A
C11    C16     1.418   .     A
C12    O77     1.305   .     A
C12    C31     1.423   .     S
C12    O159    1.275   .     S
C13    C15     1.406   .     A
C13    C17     1.412   .     A
C14    C784    1.389   .     S
C15    C785    1.386   1_554 S
C16    C27     1.434   .     A
C16    C773    1.418   .     S
C17    C23     1.428   .     A
C17    C772    1.418   1_554 S
C18    C19     1.519   .     S
C18    H34     1.112   .     S
C18    H66     1.112   .     S
C18    O82     1.411   .     S
C19    H36     1.106   .     S
C19    H37     1.110   .     S
C19    H35     1.108   .     S
C20    H38     1.108   .     S
C20    H39     1.112   .     S
C20    O74     1.418   .     S
C20    C21     1.521   .     S
C21    H40     1.111   .     S
C21    H42     1.111   .     S
C21    H293    1.109   .     S
C22    N69     1.448   .     S
C22    H47     1.110   .     S
C22    H46     1.110   .     S
C22    H45     1.111   .     S
C23    N69     1.426   .     S
C23    C28     1.394   .     A
C24    N70     1.448   .     S
C24    H51     1.111   .     S
C24    H50     1.108   .     S
C24    H49     1.109   .     S
C25    H53     1.105   .     S
C25    N71     1.447   .     S
C25    H54     1.108   .     S
C25    H560    1.110   1_545 S
C26    N72     1.444   .     S
C26    H58     1.104   .     S
C26    H60     1.104   .     S
C26    H311    1.106   .     S
C27    C29     1.395   .     A
C27    N70     1.425   .     S
C28    H33     1.084   .     S
C28    C770    1.389   1_554 S
C29    H44     1.083   .     S
C29    C771    1.386   .     S
C30    C451    1.368   1_455 S
C30    N323    1.422   .     S
C31    C618    1.368   1_545 S
C31    N576    1.425   1_545 S
C32    O80     1.304   .     A
C32    O246    1.299   1_455 S
H41    C525    1.109   1_545 S
H43    N69     1.031   .     S
H48    N70     1.030   .     S
H52    N323    1.028   .     S
H56    C277    1.110   .     S
H57    N576    1.030   1_545 S
H59    C530    1.106   1_545 S
H63    C930    1.083   1_455 S
H64    N67     1.027   .     S
H65    N68     1.028   .     S
N67    Zn84    2.030   .     S
N67    N68     1.285   .     D
N68    Zn83    2.030   .     S
N71    C534    1.422   1_545 S
N71    H556    1.028   1_545 S
N72    H309    1.030   .     S
N72    C283    1.425   .     S
O73    Zn83    1.977   .     S
O73    C85     1.275   .     S
O74    C91     1.388   .     S
O75    Zn84    1.977   .     S
O75    C180    1.275   1_455 S
O76    Zn84    2.011   .     S
O77    Zn83    2.011   .     S
O78    Zn83    1.952   .     S
O78    C116    1.299   .     S
O79    Zn84    1.952   .     S
O79    C170    1.300   1_455 S
O80    Zn84    1.902   .     S
O81    Zn83    1.902   .     S
C85    O160    1.302   .     A
C85    C114    1.415   .     S
C86    C88     1.467   .     S
C86    O165    1.306   .     A
C86    O247    1.300   .     S
C87    C91     1.411   .     A
C87    C93     1.388   .     A
C87    C116    1.463   .     S
C88    C94     1.393   .     A
C88    C176    1.413   .     S
C89    C91     1.409   .     A
C89    C98     1.400   .     A
C89    H146    1.083   .     S
C90    C99     1.398   .     A
C90    C176    1.403   .     S
C90    H987    1.083   1_554 S
C92    O166    1.383   .     S
C93    H145    1.077   .     S
C93    C95     1.393   .     A
C94    H139    1.080   .     S
C94    C97     1.392   .     A
C95    C98     1.413   .     A
C95    C100    1.418   .     A
C96    O161    1.305   .     A
C96    C115    1.423   .     S
C96    O243    1.275   .     S
C97    C99     1.406   .     A
C97    C101    1.412   .     A
C98    C868    1.389   .     S
C99    C869    1.386   1_554 S
C100   C111    1.434   .     A
C100   C857    1.418   .     S
C101   C107    1.428   .     A
C101   C856    1.418   1_554 S
C102   C103    1.519   .     S
C102   H118    1.112   .     S
C102   H150    1.112   .     S
C102   O166    1.411   .     S
C103   H120    1.106   .     S
C103   H121    1.110   .     S
C103   H119    1.108   .     S
C104   H122    1.108   .     S
C104   H123    1.112   .     S
C104   O158    1.418   .     S
C104   C105    1.521   .     S
C105   H124    1.111   .     S
C105   H126    1.111   .     S
C105   H377    1.109   .     S
C106   N153    1.448   .     S
C106   H131    1.110   .     S
C106   H130    1.110   .     S
C106   H129    1.111   .     S
C107   N153    1.426   .     S
C107   C112    1.394   .     A
C108   N154    1.448   .     S
C108   H135    1.111   .     S
C108   H134    1.108   .     S
C108   H133    1.109   .     S
C109   H137    1.105   .     S
C109   N155    1.447   .     S
C109   H138    1.108   .     S
C109   H644    1.110   1_545 S
C110   N156    1.444   .     S
C110   H142    1.104   .     S
C110   H144    1.104   .     S
C110   H395    1.106   .     S
C111   C113    1.395   .     A
C111   N154    1.425   .     S
C112   H117    1.084   .     S
C112   C854    1.389   1_554 S
C113   H128    1.083   .     S
C113   C855    1.386   .     S
C114   C283    1.368   .     S
C114   N407    1.422   .     S
C115   C702    1.368   1_545 S
C115   N660    1.425   1_545 S
C116   O164    1.304   .     A
H125   C609    1.109   1_545 S
H127   N153    1.031   .     S
H132   N154    1.030   .     S
H136   N407    1.028   .     S
H140   C361    1.110   .     S
H141   N660    1.030   1_545 S
H143   C614    1.106   1_545 S
H147   C762    1.083   .     S
H148   N151    1.027   .     S
H149   N152    1.028   .     S
N151   Zn168   2.030   .     S
N151   N152    1.285   .     D
N152   Zn167   2.030   .     S
N155   C618    1.422   1_545 S
N155   H640    1.028   1_545 S
N156   H393    1.030   .     S
N156   C367    1.425   .     S
O157   Zn167   1.977   .     S
O157   C169    1.275   .     S
O158   C175    1.388   .     S
O159   Zn168   1.977   .     S
O160   Zn168   2.011   .     S
O161   Zn167   2.011   .     S
O162   Zn167   1.952   .     S
O162   C200    1.299   .     S
O163   Zn168   1.952   .     S
O164   Zn168   1.902   .     S
O165   Zn167   1.902   .     S
C169   O244    1.302   .     A
C169   C198    1.415   .     S
C170   C172    1.467   .     S
C170   O249    1.306   .     A
C170   O79     1.300   1_655 S
C171   C175    1.411   .     A
C171   C177    1.388   .     A
C171   C200    1.463   .     S
C172   C178    1.393   .     A
C172   C8      1.413   1_655 S
C173   C175    1.409   .     A
C173   C182    1.400   .     A
C173   H230    1.083   .     S
C174   C183    1.398   .     A
C174   C8      1.403   1_655 S
C174   H819    1.083   1_654 S
C176   O250    1.383   .     S
C177   H229    1.077   .     S
C177   C179    1.393   .     A
C178   H223    1.080   .     S
C178   C181    1.392   .     A
C179   C182    1.413   .     A
C179   C184    1.418   .     A
C180   O245    1.305   .     A
C180   C199    1.423   .     S
C180   O75     1.275   1_655 S
C181   C183    1.406   .     A
C181   C185    1.412   .     A
C182   C952    1.389   .     S
C183   C953    1.386   1_554 S
C184   C195    1.434   .     A
C184   C941    1.418   .     S
C185   C191    1.428   .     A
C185   C940    1.418   1_554 S
C186   C187    1.519   .     S
C186   H202    1.112   .     S
C186   H234    1.112   .     S
C186   O250    1.411   .     S
C187   H204    1.106   .     S
C187   H205    1.110   .     S
C187   H203    1.108   .     S
C188   H206    1.108   .     S
C188   H207    1.112   .     S
C188   O242    1.418   .     S
C188   C189    1.521   .     S
C189   H208    1.111   .     S
C189   H210    1.111   .     S
C189   H461    1.109   .     S
C190   N237    1.448   .     S
C190   H215    1.110   .     S
C190   H214    1.110   .     S
C190   H213    1.111   .     S
C191   N237    1.426   .     S
C191   C196    1.394   .     A
C192   N238    1.448   .     S
C192   H219    1.111   .     S
C192   H218    1.108   .     S
C192   H217    1.109   .     S
C193   H221    1.105   .     S
C193   N239    1.447   .     S
C193   H222    1.108   .     S
C193   H728    1.110   1_545 S
C194   N240    1.444   .     S
C194   H226    1.104   .     S
C194   H228    1.104   .     S
C194   H479    1.106   .     S
C195   C197    1.395   .     A
C195   N238    1.425   .     S
C196   H201    1.084   .     S
C196   C938    1.389   1_554 S
C197   H212    1.083   .     S
C197   C939    1.386   .     S
C198   C367    1.368   .     S
C198   N491    1.422   .     S
C199   C534    1.368   1_645 S
C199   N744    1.425   1_545 S
C200   O248    1.304   .     A
H209   C693    1.109   1_545 S
H211   N237    1.031   .     S
H216   N238    1.030   .     S
H220   N491    1.028   .     S
H224   C445    1.110   .     S
H225   N744    1.030   1_545 S
H227   C698    1.106   1_545 S
H231   C846    1.083   .     S
H232   N235    1.027   .     S
H233   N236    1.028   .     S
N235   Zn252   2.030   .     S
N235   N236    1.285   .     D
N236   Zn251   2.030   .     S
N239   C702    1.422   1_545 S
N239   H724    1.028   1_545 S
N240   H477    1.030   .     S
N240   C451    1.425   .     S
O241   Zn251   1.977   .     S
O241   C1      1.275   1_655 S
O242   C7      1.388   1_655 S
O243   Zn252   1.977   .     S
O244   Zn252   2.011   .     S
O245   Zn251   2.011   .     S
O246   Zn251   1.952   .     S
O246   C32     1.299   1_655 S
O247   Zn252   1.952   .     S
O248   Zn252   1.902   .     S
O249   Zn251   1.902   .     S
C253   O328    1.302   .     A
C253   C282    1.415   .     S
C253   O493    1.275   1_455 S
C254   C256    1.467   .     S
C254   O333    1.306   .     A
C254   O415    1.300   .     S
C255   C259    1.411   .     A
C255   C261    1.388   .     A
C255   C284    1.463   .     S
C256   C262    1.393   .     A
C256   C344    1.413   .     S
C257   C259    1.409   .     A
C257   C266    1.400   .     A
C257   H314    1.083   .     S
C258   C267    1.398   .     A
C258   C344    1.403   .     S
C258   H1155   1.083   1_554 S
C259   O494    1.388   1_455 S
C260   O334    1.383   .     S
C260   C424    1.413   1_455 S
C260   C426    1.403   1_455 S
C261   H313    1.077   .     S
C261   C263    1.393   .     A
C262   H307    1.080   .     S
C262   C265    1.392   .     A
C263   C266    1.413   .     A
C263   C268    1.418   .     A
C264   O329    1.305   .     A
C264   C283    1.423   .     S
C264   O411    1.275   .     S
C265   C267    1.406   .     A
C265   C269    1.412   .     A
C266   C1036   1.389   .     S
C267   C1037   1.386   1_554 S
C268   C279    1.434   .     A
C268   C1025   1.418   .     S
C269   C275    1.428   .     A
C269   C1024   1.418   1_554 S
C270   C271    1.519   .     S
C270   H286    1.112   .     S
C270   H318    1.112   .     S
C270   O334    1.411   .     S
C271   H288    1.106   .     S
C271   H289    1.110   .     S
C271   H287    1.108   .     S
C272   H290    1.108   .     S
C272   H291    1.112   .     S
C272   O326    1.418   .     S
C272   C273    1.521   .     S
C273   H292    1.111   .     S
C273   H294    1.111   .     S
C273   H545    1.109   .     S
C274   N321    1.448   .     S
C274   H299    1.110   .     S
C274   H298    1.110   .     S
C274   H297    1.111   .     S
C275   N321    1.426   .     S
C275   C280    1.394   .     A
C276   N322    1.448   .     S
C276   H303    1.111   .     S
C276   H302    1.108   .     S
C276   H301    1.109   .     S
C277   H305    1.105   .     S
C277   N323    1.447   .     S
C277   H306    1.108   .     S
C278   N324    1.444   .     S
C278   H310    1.104   .     S
C278   H312    1.104   .     S
C278   H563    1.106   .     S
C279   C281    1.395   .     A
C279   N322    1.425   .     S
C280   H285    1.084   .     S
C280   C1022   1.389   1_554 S
C281   H296    1.083   .     S
C281   C1023   1.386   .     S
C282   C703    1.368   1_455 S
C282   N575    1.422   .     S
C284   O332    1.304   .     A
C284   O498    1.299   1_455 S
H295   N321    1.031   .     S
H300   N322    1.030   .     S
H304   N575    1.028   .     S
H308   C529    1.110   .     S
H315   C1182   1.083   1_455 S
H316   N319    1.027   .     S
H317   N320    1.028   .     S
N319   Zn336   2.030   .     S
N319   N320    1.285   .     D
N320   Zn335   2.030   .     S
N324   H561    1.030   .     S
N324   C535    1.425   .     S
O325   Zn335   1.977   .     S
O325   C337    1.275   .     S
O326   C343    1.388   .     S
O327   Zn336   1.977   .     S
O327   C432    1.275   1_455 S
O328   Zn336   2.011   .     S
O329   Zn335   2.011   .     S
O330   Zn335   1.952   .     S
O330   C368    1.299   .     S
O331   Zn336   1.952   .     S
O331   C422    1.300   1_455 S
O332   Zn336   1.902   .     S
O333   Zn335   1.902   .     S
C337   O412    1.302   .     A
C337   C366    1.415   .     S
C338   C340    1.467   .     S
C338   O417    1.306   .     A
C338   O499    1.300   .     S
C339   C343    1.411   .     A
C339   C345    1.388   .     A
C339   C368    1.463   .     S
C340   C346    1.393   .     A
C340   C428    1.413   .     S
C341   C343    1.409   .     A
C341   C350    1.400   .     A
C341   H398    1.083   .     S
C342   C351    1.398   .     A
C342   C428    1.403   .     S
C342   H1239   1.083   1_554 S
C344   O418    1.383   .     S
C345   H397    1.077   .     S
C345   C347    1.393   .     A
C346   H391    1.080   .     S
C346   C349    1.392   .     A
C347   C350    1.413   .     A
C347   C352    1.418   .     A
C348   O413    1.305   .     A
C348   C367    1.423   .     S
C348   O495    1.275   .     S
C349   C351    1.406   .     A
C349   C353    1.412   .     A
C350   C1120   1.389   .     S
C351   C1121   1.386   1_554 S
C352   C363    1.434   .     A
C352   C1109   1.418   .     S
C353   C359    1.428   .     A
C353   C1108   1.418   1_554 S
C354   C355    1.519   .     S
C354   H370    1.112   .     S
C354   H402    1.112   .     S
C354   O418    1.411   .     S
C355   H372    1.106   .     S
C355   H373    1.110   .     S
C355   H371    1.108   .     S
C356   H374    1.108   .     S
C356   H375    1.112   .     S
C356   O410    1.418   .     S
C356   C357    1.521   .     S
C357   H376    1.111   .     S
C357   H378    1.111   .     S
C357   H629    1.109   .     S
C358   N405    1.448   .     S
C358   H383    1.110   .     S
C358   H382    1.110   .     S
C358   H381    1.111   .     S
C359   N405    1.426   .     S
C359   C364    1.394   .     A
C360   N406    1.448   .     S
C360   H387    1.111   .     S
C360   H386    1.108   .     S
C360   H385    1.109   .     S
C361   H389    1.105   .     S
C361   N407    1.447   .     S
C361   H390    1.108   .     S
C362   N408    1.444   .     S
C362   H394    1.104   .     S
C362   H396    1.104   .     S
C362   H647    1.106   .     S
C363   C365    1.395   .     A
C363   N406    1.425   .     S
C364   H369    1.084   .     S
C364   C1106   1.389   1_554 S
C365   H380    1.083   .     S
C365   C1107   1.386   .     S
C366   C535    1.368   .     S
C366   N659    1.422   .     S
C368   O416    1.304   .     A
H379   N405    1.031   .     S
H384   N406    1.030   .     S
H388   N659    1.028   .     S
H392   C613    1.110   .     S
H399   C1014   1.083   .     S
H400   N403    1.027   .     S
H401   N404    1.028   .     S
N403   Zn420   2.030   .     S
N403   N404    1.285   .     D
N404   Zn419   2.030   .     S
N408   H645    1.030   .     S
N408   C619    1.425   .     S
O409   Zn419   1.977   .     S
O409   C421    1.275   .     S
O410   C427    1.388   .     S
O411   Zn420   1.977   .     S
O412   Zn420   2.011   .     S
O413   Zn419   2.011   .     S
O414   Zn419   1.952   .     S
O414   C452    1.299   .     S
O415   Zn420   1.952   .     S
O416   Zn420   1.902   .     S
O417   Zn419   1.902   .     S
C421   O496    1.302   .     A
C421   C450    1.415   .     S
C422   C424    1.467   .     S
C422   O501    1.306   .     A
C422   O331    1.300   1_655 S
C423   C427    1.411   .     A
C423   C429    1.388   .     A
C423   C452    1.463   .     S
C424   C430    1.393   .     A
C424   C260    1.413   1_655 S
C425   C427    1.409   .     A
C425   C434    1.400   .     A
C425   H482    1.083   .     S
C426   C435    1.398   .     A
C426   C260    1.403   1_655 S
C426   H1071   1.083   1_654 S
C428   O502    1.383   .     S
C429   H481    1.077   .     S
C429   C431    1.393   .     A
C430   H475    1.080   .     S
C430   C433    1.392   .     A
C431   C434    1.413   .     A
C431   C436    1.418   .     A
C432   O497    1.305   .     A
C432   C451    1.423   .     S
C432   O327    1.275   1_655 S
C433   C435    1.406   .     A
C433   C437    1.412   .     A
C434   C1204   1.389   .     S
C435   C1205   1.386   1_554 S
C436   C447    1.434   .     A
C436   C1193   1.418   .     S
C437   C443    1.428   .     A
C437   C1192   1.418   1_554 S
C438   C439    1.519   .     S
C438   H454    1.112   .     S
C438   H486    1.112   .     S
C438   O502    1.411   .     S
C439   H456    1.106   .     S
C439   H457    1.110   .     S
C439   H455    1.108   .     S
C440   H458    1.108   .     S
C440   H459    1.112   .     S
C440   O494    1.418   .     S
C440   C441    1.521   .     S
C441   H460    1.111   .     S
C441   H462    1.111   .     S
C441   H713    1.109   .     S
C442   N489    1.448   .     S
C442   H467    1.110   .     S
C442   H466    1.110   .     S
C442   H465    1.111   .     S
C443   N489    1.426   .     S
C443   C448    1.394   .     A
C444   N490    1.448   .     S
C444   H471    1.111   .     S
C444   H470    1.108   .     S
C444   H469    1.109   .     S
C445   H473    1.105   .     S
C445   N491    1.447   .     S
C445   H474    1.108   .     S
C446   N492    1.444   .     S
C446   H478    1.104   .     S
C446   H480    1.104   .     S
C446   H731    1.106   .     S
C447   C449    1.395   .     A
C447   N490    1.425   .     S
C448   H453    1.084   .     S
C448   C1190   1.389   1_554 S
C449   H464    1.083   .     S
C449   C1191   1.386   .     S
C450   C619    1.368   .     S
C450   N743    1.422   .     S
C451   C30     1.368   1_655 S
C452   O500    1.304   .     A
H463   N489    1.031   .     S
H468   N490    1.030   .     S
H472   N743    1.028   .     S
H476   C697    1.110   .     S
H483   C1098   1.083   .     S
H484   N487    1.027   .     S
H485   N488    1.028   .     S
N487   Zn504   2.030   .     S
N487   N488    1.285   .     D
N488   Zn503   2.030   .     S
N492   H729    1.030   .     S
N492   C703    1.425   .     S
O493   Zn503   1.977   .     S
O493   C253    1.275   1_655 S
O494   C259    1.388   1_655 S
O495   Zn504   1.977   .     S
O496   Zn504   2.011   .     S
O497   Zn503   2.011   .     S
O498   Zn503   1.952   .     S
O498   C284    1.299   1_655 S
O499   Zn504   1.952   .     S
O500   Zn504   1.902   .     S
O501   Zn503   1.902   .     S
C505   O580    1.302   .     A
C505   C534    1.415   .     S
C505   O745    1.275   1_455 S
C506   C508    1.467   .     S
C506   O585    1.306   .     A
C506   O667    1.300   .     S
C507   C511    1.411   .     A
C507   C513    1.388   .     A
C507   C536    1.463   .     S
C508   C514    1.393   .     A
C508   C596    1.413   .     S
C509   C511    1.409   .     A
C509   C518    1.400   .     A
C509   H566    1.083   .     S
C510   C519    1.398   .     A
C510   C596    1.403   .     S
C510   H1407   1.083   1_554 S
C511   O746    1.388   1_455 S
C512   O586    1.383   .     S
C512   C676    1.413   1_455 S
C512   C678    1.403   1_455 S
C513   H565    1.077   .     S
C513   C515    1.393   .     A
C514   H559    1.080   .     S
C514   C517    1.392   .     A
C515   C518    1.413   .     A
C515   C520    1.418   .     A
C516   O581    1.305   .     A
C516   C535    1.423   .     S
C516   O663    1.275   .     S
C517   C519    1.406   .     A
C517   C521    1.412   .     A
C518   C1288   1.389   .     S
C519   C1289   1.386   1_554 S
C520   C531    1.434   .     A
C520   C1277   1.418   .     S
C521   C527    1.428   .     A
C521   C1276   1.418   1_554 S
C522   C523    1.519   .     S
C522   H538    1.112   .     S
C522   H570    1.112   .     S
C522   O586    1.411   .     S
C523   H540    1.106   .     S
C523   H541    1.110   .     S
C523   H539    1.108   .     S
C524   H542    1.108   .     S
C524   H543    1.112   .     S
C524   O578    1.418   .     S
C524   C525    1.521   .     S
C525   H544    1.111   .     S
C525   H546    1.111   .     S
C525   H41     1.109   1_565 S
C526   N573    1.448   .     S
C526   H551    1.110   .     S
C526   H550    1.110   .     S
C526   H549    1.111   .     S
C527   N573    1.426   .     S
C527   C532    1.394   .     A
C528   N574    1.448   .     S
C528   H555    1.111   .     S
C528   H554    1.108   .     S
C528   H553    1.109   .     S
C529   H557    1.105   .     S
C529   N575    1.447   .     S
C529   H558    1.108   .     S
C530   N576    1.444   .     S
C530   H562    1.104   .     S
C530   H564    1.104   .     S
C530   H59     1.106   1_565 S
C531   C533    1.395   .     A
C531   N574    1.425   .     S
C532   H537    1.084   .     S
C532   C1274   1.389   1_554 S
C533   H548    1.083   .     S
C533   C1275   1.386   .     S
C534   C199    1.368   1_465 S
C534   N71     1.422   1_565 S
C536   O584    1.304   .     A
C536   O750    1.299   1_455 S
H547   N573    1.031   .     S
H552   N574    1.030   .     S
H556   N71     1.028   1_565 S
H560   C25     1.110   1_565 S
H567   C1434   1.083   1_455 S
H568   N571    1.027   .     S
H569   N572    1.028   .     S
N571   Zn588   2.030   .     S
N571   N572    1.285   .     D
N572   Zn587   2.030   .     S
N576   H57     1.030   1_565 S
N576   C31     1.425   1_565 S
O577   Zn587   1.977   .     S
O577   C589    1.275   .     S
O578   C595    1.388   .     S
O579   Zn588   1.977   .     S
O579   C684    1.275   1_455 S
O580   Zn588   2.011   .     S
O581   Zn587   2.011   .     S
O582   Zn587   1.952   .     S
O582   C620    1.299   .     S
O583   Zn588   1.952   .     S
O583   C674    1.300   1_455 S
O584   Zn588   1.902   .     S
O585   Zn587   1.902   .     S
C589   O664    1.302   .     A
C589   C618    1.415   .     S
C590   C592    1.467   .     S
C590   O669    1.306   .     A
C590   O751    1.300   .     S
C591   C595    1.411   .     A
C591   C597    1.388   .     A
C591   C620    1.463   .     S
C592   C598    1.393   .     A
C592   C680    1.413   .     S
C593   C595    1.409   .     A
C593   C602    1.400   .     A
C593   H650    1.083   .     S
C594   C603    1.398   .     A
C594   C680    1.403   .     S
C594   H1491   1.083   1_554 S
C596   O670    1.383   .     S
C597   H649    1.077   .     S
C597   C599    1.393   .     A
C598   H643    1.080   .     S
C598   C601    1.392   .     A
C599   C602    1.413   .     A
C599   C604    1.418   .     A
C600   O665    1.305   .     A
C600   C619    1.423   .     S
C600   O747    1.275   .     S
C601   C603    1.406   .     A
C601   C605    1.412   .     A
C602   C1372   1.389   .     S
C603   C1373   1.386   1_554 S
C604   C615    1.434   .     A
C604   C1361   1.418   .     S
C605   C611    1.428   .     A
C605   C1360   1.418   1_554 S
C606   C607    1.519   .     S
C606   H622    1.112   .     S
C606   H654    1.112   .     S
C606   O670    1.411   .     S
C607   H624    1.106   .     S
C607   H625    1.110   .     S
C607   H623    1.108   .     S
C608   H626    1.108   .     S
C608   H627    1.112   .     S
C608   O662    1.418   .     S
C608   C609    1.521   .     S
C609   H628    1.111   .     S
C609   H630    1.111   .     S
C609   H125    1.109   1_565 S
C610   N657    1.448   .     S
C610   H635    1.110   .     S
C610   H634    1.110   .     S
C610   H633    1.111   .     S
C611   N657    1.426   .     S
C611   C616    1.394   .     A
C612   N658    1.448   .     S
C612   H639    1.111   .     S
C612   H638    1.108   .     S
C612   H637    1.109   .     S
C613   H641    1.105   .     S
C613   N659    1.447   .     S
C613   H642    1.108   .     S
C614   N660    1.444   .     S
C614   H646    1.104   .     S
C614   H648    1.104   .     S
C614   H143    1.106   1_565 S
C615   C617    1.395   .     A
C615   N658    1.425   .     S
C616   H621    1.084   .     S
C616   C1358   1.389   1_554 S
C617   H632    1.083   .     S
C617   C1359   1.386   .     S
C618   C31     1.368   1_565 S
C618   N155    1.422   1_565 S
C620   O668    1.304   .     A
H631   N657    1.031   .     S
H636   N658    1.030   .     S
H640   N155    1.028   1_565 S
H644   C109    1.110   1_565 S
H651   C1266   1.083   .     S
H652   N655    1.027   .     S
H653   N656    1.028   .     S
N655   Zn672   2.030   .     S
N655   N656    1.285   .     D
N656   Zn671   2.030   .     S
N660   H141    1.030   1_565 S
N660   C115    1.425   1_565 S
O661   Zn671   1.977   .     S
O661   C673    1.275   .     S
O662   C679    1.388   .     S
O663   Zn672   1.977   .     S
O664   Zn672   2.011   .     S
O665   Zn671   2.011   .     S
O666   Zn671   1.952   .     S
O666   C704    1.299   .     S
O667   Zn672   1.952   .     S
O668   Zn672   1.902   .     S
O669   Zn671   1.902   .     S
C673   O748    1.302   .     A
C673   C702    1.415   .     S
C674   C676    1.467   .     S
C674   O753    1.306   .     A
C674   O583    1.300   1_655 S
C675   C679    1.411   .     A
C675   C681    1.388   .     A
C675   C704    1.463   .     S
C676   C682    1.393   .     A
C676   C512    1.413   1_655 S
C677   C679    1.409   .     A
C677   C686    1.400   .     A
C677   H734    1.083   .     S
C678   C687    1.398   .     A
C678   C512    1.403   1_655 S
C678   H1323   1.083   1_654 S
C680   O754    1.383   .     S
C681   H733    1.077   .     S
C681   C683    1.393   .     A
C682   H727    1.080   .     S
C682   C685    1.392   .     A
C683   C686    1.413   .     A
C683   C688    1.418   .     A
C684   O749    1.305   .     A
C684   C703    1.423   .     S
C684   O579    1.275   1_655 S
C685   C687    1.406   .     A
C685   C689    1.412   .     A
C686   C1456   1.389   .     S
C687   C1457   1.386   1_554 S
C688   C699    1.434   .     A
C688   C1445   1.418   .     S
C689   C695    1.428   .     A
C689   C1444   1.418   1_554 S
C690   C691    1.519   .     S
C690   H706    1.112   .     S
C690   H738    1.112   .     S
C690   O754    1.411   .     S
C691   H708    1.106   .     S
C691   H709    1.110   .     S
C691   H707    1.108   .     S
C692   H710    1.108   .     S
C692   H711    1.112   .     S
C692   O746    1.418   .     S
C692   C693    1.521   .     S
C693   H712    1.111   .     S
C693   H714    1.111   .     S
C693   H209    1.109   1_565 S
C694   N741    1.448   .     S
C694   H719    1.110   .     S
C694   H718    1.110   .     S
C694   H717    1.111   .     S
C695   N741    1.426   .     S
C695   C700    1.394   .     A
C696   N742    1.448   .     S
C696   H723    1.111   .     S
C696   H722    1.108   .     S
C696   H721    1.109   .     S
C697   H725    1.105   .     S
C697   N743    1.447   .     S
C697   H726    1.108   .     S
C698   N744    1.444   .     S
C698   H730    1.104   .     S
C698   H732    1.104   .     S
C698   H227    1.106   1_565 S
C699   C701    1.395   .     A
C699   N742    1.425   .     S
C700   H705    1.084   .     S
C700   C1442   1.389   1_554 S
C701   H716    1.083   .     S
C701   C1443   1.386   .     S
C702   C115    1.368   1_565 S
C702   N239    1.422   1_565 S
C703   C282    1.368   1_655 S
C704   O752    1.304   .     A
H715   N741    1.031   .     S
H720   N742    1.030   .     S
H724   N239    1.028   1_565 S
H728   C193    1.110   1_565 S
H735   C1350   1.083   .     S
H736   N739    1.027   .     S
H737   N740    1.028   .     S
N739   Zn756   2.030   .     S
N739   N740    1.285   .     D
N740   Zn755   2.030   .     S
N744   H225    1.030   1_565 S
N744   C199    1.425   1_565 S
O745   Zn755   1.977   .     S
O745   C505    1.275   1_655 S
O746   C511    1.388   1_655 S
O747   Zn756   1.977   .     S
O748   Zn756   2.011   .     S
O749   Zn755   2.011   .     S
O750   Zn755   1.952   .     S
O750   C536    1.299   1_655 S
O751   Zn756   1.952   .     S
O752   Zn756   1.902   .     S
O753   Zn755   1.902   .     S
C757   O832    1.302   .     A
C757   C786    1.415   .     S
C757   O997    1.275   1_455 S
C758   C760    1.467   .     S
C758   O837    1.306   .     A
C758   O919    1.300   .     S
C759   C763    1.411   .     A
C759   C765    1.388   .     A
C759   C788    1.463   .     S
C760   C766    1.393   .     A
C760   C848    1.413   .     S
C761   C763    1.409   .     A
C761   C770    1.400   .     A
C761   H818    1.083   .     S
C762   C771    1.398   .     A
C762   C848    1.403   .     S
C763   O998    1.388   1_455 S
C764   O838    1.383   .     S
C764   C928    1.413   1_455 S
C764   C930    1.403   1_455 S
C765   H817    1.077   .     S
C765   C767    1.393   .     A
C766   H811    1.080   .     S
C766   C769    1.392   .     A
C767   C770    1.413   .     A
C767   C772    1.418   .     A
C768   O833    1.305   .     A
C768   C787    1.423   .     S
C768   O915    1.275   .     S
C769   C771    1.406   .     A
C769   C773    1.412   .     A
C770   C28     1.389   1_556 S
C772   C783    1.434   .     A
C772   C17     1.418   1_556 S
C773   C779    1.428   .     A
C774   C775    1.519   .     S
C774   H790    1.112   .     S
C774   H822    1.112   .     S
C774   O838    1.411   .     S
C775   H792    1.106   .     S
C775   H793    1.110   .     S
C775   H791    1.108   .     S
C776   H794    1.108   .     S
C776   H795    1.112   .     S
C776   O830    1.418   .     S
C776   C777    1.521   .     S
C777   H796    1.111   .     S
C777   H798    1.111   .     S
C777   H1049   1.109   .     S
C778   N825    1.448   .     S
C778   H803    1.110   .     S
C778   H802    1.110   .     S
C778   H801    1.111   .     S
C779   N825    1.426   .     S
C779   C784    1.394   .     A
C780   N826    1.448   .     S
C780   H807    1.111   .     S
C780   H806    1.108   .     S
C780   H805    1.109   .     S
C781   H809    1.105   .     S
C781   N827    1.447   .     S
C781   H810    1.108   .     S
C781   H1316   1.110   1_545 S
C782   N828    1.444   .     S
C782   H814    1.104   .     S
C782   H816    1.104   .     S
C782   H1067   1.106   .     S
C783   C785    1.395   .     A
C783   N826    1.425   .     S
C784   H789    1.084   .     S
C785   H800    1.083   .     S
C785   C15     1.386   1_556 S
C786   C1207   1.368   1_455 S
C786   N1079   1.422   .     S
C787   C1374   1.368   1_545 S
C787   N1332   1.425   1_545 S
C788   O836    1.304   .     A
C788   O1002   1.299   1_455 S
H797   C1281   1.109   1_545 S
H799   N825    1.031   .     S
H804   N826    1.030   .     S
H808   N1079   1.028   .     S
H812   C1033   1.110   .     S
H813   N1332   1.030   1_545 S
H815   C1286   1.106   1_545 S
H819   C174    1.083   1_456 S
H820   N823    1.027   .     S
H821   N824    1.028   .     S
N823   Zn840   2.030   .     S
N823   N824    1.285   .     D
N824   Zn839   2.030   .     S
N827   C1290   1.422   1_545 S
N827   H1312   1.028   1_545 S
N828   H1065   1.030   .     S
N828   C1039   1.425   .     S
O829   Zn839   1.977   .     S
O829   C841    1.275   .     S
O830   C847    1.388   .     S
O831   Zn840   1.977   .     S
O831   C936    1.275   1_455 S
O832   Zn840   2.011   .     S
O833   Zn839   2.011   .     S
O834   Zn839   1.952   .     S
O834   C872    1.299   .     S
O835   Zn840   1.952   .     S
O835   C926    1.300   1_455 S
O836   Zn840   1.902   .     S
O837   Zn839   1.902   .     S
C841   O916    1.302   .     A
C841   C870    1.415   .     S
C842   C844    1.467   .     S
C842   O921    1.306   .     A
C842   O1003   1.300   .     S
C843   C847    1.411   .     A
C843   C849    1.388   .     A
C843   C872    1.463   .     S
C844   C850    1.393   .     A
C844   C932    1.413   .     S
C845   C847    1.409   .     A
C845   C854    1.400   .     A
C845   H902    1.083   .     S
C846   C855    1.398   .     A
C846   C932    1.403   .     S
C848   O922    1.383   .     S
C849   H901    1.077   .     S
C849   C851    1.393   .     A
C850   H895    1.080   .     S
C850   C853    1.392   .     A
C851   C854    1.413   .     A
C851   C856    1.418   .     A
C852   O917    1.305   .     A
C852   C871    1.423   .     S
C852   O999    1.275   .     S
C853   C855    1.406   .     A
C853   C857    1.412   .     A
C854   C112    1.389   1_556 S
C856   C867    1.434   .     A
C856   C101    1.418   1_556 S
C857   C863    1.428   .     A
C858   C859    1.519   .     S
C858   H874    1.112   .     S
C858   H906    1.112   .     S
C858   O922    1.411   .     S
C859   H876    1.106   .     S
C859   H877    1.110   .     S
C859   H875    1.108   .     S
C860   H878    1.108   .     S
C860   H879    1.112   .     S
C860   O914    1.418   .     S
C860   C861    1.521   .     S
C861   H880    1.111   .     S
C861   H882    1.111   .     S
C861   H1133   1.109   .     S
C862   N909    1.448   .     S
C862   H887    1.110   .     S
C862   H886    1.110   .     S
C862   H885    1.111   .     S
C863   N909    1.426   .     S
C863   C868    1.394   .     A
C864   N910    1.448   .     S
C864   H891    1.111   .     S
C864   H890    1.108   .     S
C864   H889    1.109   .     S
C865   H893    1.105   .     S
C865   N911    1.447   .     S
C865   H894    1.108   .     S
C865   H1400   1.110   1_545 S
C866   N912    1.444   .     S
C866   H898    1.104   .     S
C866   H900    1.104   .     S
C866   H1151   1.106   .     S
C867   C869    1.395   .     A
C867   N910    1.425   .     S
C868   H873    1.084   .     S
C869   H884    1.083   .     S
C869   C99     1.386   1_556 S
C870   C1039   1.368   .     S
C870   N1163   1.422   .     S
C871   C1458   1.368   1_545 S
C871   N1416   1.425   1_545 S
C872   O920    1.304   .     A
H881   C1365   1.109   1_545 S
H883   N909    1.031   .     S
H888   N910    1.030   .     S
H892   N1163   1.028   .     S
H896   C1117   1.110   .     S
H897   N1416   1.030   1_545 S
H899   C1370   1.106   1_545 S
H903   C6      1.083   1_556 S
H904   N907    1.027   .     S
H905   N908    1.028   .     S
N907   Zn924   2.030   .     S
N907   N908    1.285   .     D
N908   Zn923   2.030   .     S
N911   C1374   1.422   1_545 S
N911   H1396   1.028   1_545 S
N912   H1149   1.030   .     S
N912   C1123   1.425   .     S
O913   Zn923   1.977   .     S
O913   C925    1.275   .     S
O914   C931    1.388   .     S
O915   Zn924   1.977   .     S
O916   Zn924   2.011   .     S
O917   Zn923   2.011   .     S
O918   Zn923   1.952   .     S
O918   C956    1.299   .     S
O919   Zn924   1.952   .     S
O920   Zn924   1.902   .     S
O921   Zn923   1.902   .     S
C925   O1000   1.302   .     A
C925   C954    1.415   .     S
C926   C928    1.467   .     S
C926   O1005   1.306   .     A
C926   O835    1.300   1_655 S
C927   C931    1.411   .     A
C927   C933    1.388   .     A
C927   C956    1.463   .     S
C928   C934    1.393   .     A
C928   C764    1.413   1_655 S
C929   C931    1.409   .     A
C929   C938    1.400   .     A
C929   H986    1.083   .     S
C930   C939    1.398   .     A
C930   C764    1.403   1_655 S
C930   H63     1.083   1_655 S
C932   O1006   1.383   .     S
C933   H985    1.077   .     S
C933   C935    1.393   .     A
C934   H979    1.080   .     S
C934   C937    1.392   .     A
C935   C938    1.413   .     A
C935   C940    1.418   .     A
C936   O1001   1.305   .     A
C936   C955    1.423   .     S
C936   O831    1.275   1_655 S
C937   C939    1.406   .     A
C937   C941    1.412   .     A
C938   C196    1.389   1_556 S
C940   C951    1.434   .     A
C940   C185    1.418   1_556 S
C941   C947    1.428   .     A
C942   C943    1.519   .     S
C942   H958    1.112   .     S
C942   H990    1.112   .     S
C942   O1006   1.411   .     S
C943   H960    1.106   .     S
C943   H961    1.110   .     S
C943   H959    1.108   .     S
C944   H962    1.108   .     S
C944   H963    1.112   .     S
C944   O998    1.418   .     S
C944   C945    1.521   .     S
C945   H964    1.111   .     S
C945   H966    1.111   .     S
C945   H1217   1.109   .     S
C946   N993    1.448   .     S
C946   H971    1.110   .     S
C946   H970    1.110   .     S
C946   H969    1.111   .     S
C947   N993    1.426   .     S
C947   C952    1.394   .     A
C948   N994    1.448   .     S
C948   H975    1.111   .     S
C948   H974    1.108   .     S
C948   H973    1.109   .     S
C949   H977    1.105   .     S
C949   N995    1.447   .     S
C949   H978    1.108   .     S
C949   H1484   1.110   1_545 S
C950   N996    1.444   .     S
C950   H982    1.104   .     S
C950   H984    1.104   .     S
C950   H1235   1.106   .     S
C951   C953    1.395   .     A
C951   N994    1.425   .     S
C952   H957    1.084   .     S
C953   H968    1.083   .     S
C953   C183    1.386   1_556 S
C954   C1123   1.368   .     S
C954   N1247   1.422   .     S
C955   C1290   1.368   1_645 S
C955   N1500   1.425   1_545 S
C956   O1004   1.304   .     A
H965   C1449   1.109   1_545 S
H967   N993    1.031   .     S
H972   N994    1.030   .     S
H976   N1247   1.028   .     S
H980   C1201   1.110   .     S
H981   N1500   1.030   1_545 S
H983   C1454   1.106   1_545 S
H987   C90     1.083   1_556 S
H988   N991    1.027   .     S
H989   N992    1.028   .     S
N991   Zn1008  2.030   .     S
N991   N992    1.285   .     D
N992   Zn1007  2.030   .     S
N995   C1458   1.422   1_545 S
N995   H1480   1.028   1_545 S
N996   H1233   1.030   .     S
N996   C1207   1.425   .     S
O997   Zn1007  1.977   .     S
O997   C757    1.275   1_655 S
O998   C763    1.388   1_655 S
O999   Zn1008  1.977   .     S
O1000  Zn1008  2.011   .     S
O1001  Zn1007  2.011   .     S
O1002  Zn1007  1.952   .     S
O1002  C788    1.299   1_655 S
O1003  Zn1008  1.952   .     S
O1004  Zn1008  1.902   .     S
O1005  Zn1007  1.902   .     S
C1009  O1084   1.302   .     A
C1009  C1038   1.415   .     S
C1009  O1249   1.275   1_455 S
C1010  C1012   1.467   .     S
C1010  O1089   1.306   .     A
C1010  O1171   1.300   .     S
C1011  C1015   1.411   .     A
C1011  C1017   1.388   .     A
C1011  C1040   1.463   .     S
C1012  C1018   1.393   .     A
C1012  C1100   1.413   .     S
C1013  C1015   1.409   .     A
C1013  C1022   1.400   .     A
C1013  H1070   1.083   .     S
C1014  C1023   1.398   .     A
C1014  C1100   1.403   .     S
C1015  O1250   1.388   1_455 S
C1016  O1090   1.383   .     S
C1016  C1180   1.413   1_455 S
C1016  C1182   1.403   1_455 S
C1017  H1069   1.077   .     S
C1017  C1019   1.393   .     A
C1018  H1063   1.080   .     S
C1018  C1021   1.392   .     A
C1019  C1022   1.413   .     A
C1019  C1024   1.418   .     A
C1020  O1085   1.305   .     A
C1020  C1039   1.423   .     S
C1020  O1167   1.275   .     S
C1021  C1023   1.406   .     A
C1021  C1025   1.412   .     A
C1022  C280    1.389   1_556 S
C1024  C1035   1.434   .     A
C1024  C269    1.418   1_556 S
C1025  C1031   1.428   .     A
C1026  C1027   1.519   .     S
C1026  H1042   1.112   .     S
C1026  H1074   1.112   .     S
C1026  O1090   1.411   .     S
C1027  H1044   1.106   .     S
C1027  H1045   1.110   .     S
C1027  H1043   1.108   .     S
C1028  H1046   1.108   .     S
C1028  H1047   1.112   .     S
C1028  O1082   1.418   .     S
C1028  C1029   1.521   .     S
C1029  H1048   1.111   .     S
C1029  H1050   1.111   .     S
C1029  H1301   1.109   .     S
C1030  N1077   1.448   .     S
C1030  H1055   1.110   .     S
C1030  H1054   1.110   .     S
C1030  H1053   1.111   .     S
C1031  N1077   1.426   .     S
C1031  C1036   1.394   .     A
C1032  N1078   1.448   .     S
C1032  H1059   1.111   .     S
C1032  H1058   1.108   .     S
C1032  H1057   1.109   .     S
C1033  H1061   1.105   .     S
C1033  N1079   1.447   .     S
C1033  H1062   1.108   .     S
C1034  N1080   1.444   .     S
C1034  H1066   1.104   .     S
C1034  H1068   1.104   .     S
C1034  H1319   1.106   .     S
C1035  C1037   1.395   .     A
C1035  N1078   1.425   .     S
C1036  H1041   1.084   .     S
C1037  H1052   1.083   .     S
C1037  C267    1.386   1_556 S
C1038  C1459   1.368   1_455 S
C1038  N1331   1.422   .     S
C1040  O1088   1.304   .     A
C1040  O1254   1.299   1_455 S
H1051  N1077   1.031   .     S
H1056  N1078   1.030   .     S
H1060  N1331   1.028   .     S
H1064  C1285   1.110   .     S
H1071  C426    1.083   1_456 S
H1072  N1075   1.027   .     S
H1073  N1076   1.028   .     S
N1075  Zn1092  2.030   .     S
N1075  N1076   1.285   .     D
N1076  Zn1091  2.030   .     S
N1080  H1317   1.030   .     S
N1080  C1291   1.425   .     S
O1081  Zn1091  1.977   .     S
O1081  C1093   1.275   .     S
O1082  C1099   1.388   .     S
O1083  Zn1092  1.977   .     S
O1083  C1188   1.275   1_455 S
O1084  Zn1092  2.011   .     S
O1085  Zn1091  2.011   .     S
O1086  Zn1091  1.952   .     S
O1086  C1124   1.299   .     S
O1087  Zn1092  1.952   .     S
O1087  C1178   1.300   1_455 S
O1088  Zn1092  1.902   .     S
O1089  Zn1091  1.902   .     S
C1093  O1168   1.302   .     A
C1093  C1122   1.415   .     S
C1094  C1096   1.467   .     S
C1094  O1173   1.306   .     A
C1094  O1255   1.300   .     S
C1095  C1099   1.411   .     A
C1095  C1101   1.388   .     A
C1095  C1124   1.463   .     S
C1096  C1102   1.393   .     A
C1096  C1184   1.413   .     S
C1097  C1099   1.409   .     A
C1097  C1106   1.400   .     A
C1097  H1154   1.083   .     S
C1098  C1107   1.398   .     A
C1098  C1184   1.403   .     S
C1100  O1174   1.383   .     S
C1101  H1153   1.077   .     S
C1101  C1103   1.393   .     A
C1102  H1147   1.080   .     S
C1102  C1105   1.392   .     A
C1103  C1106   1.413   .     A
C1103  C1108   1.418   .     A
C1104  O1169   1.305   .     A
C1104  C1123   1.423   .     S
C1104  O1251   1.275   .     S
C1105  C1107   1.406   .     A
C1105  C1109   1.412   .     A
C1106  C364    1.389   1_556 S
C1108  C1119   1.434   .     A
C1108  C353    1.418   1_556 S
C1109  C1115   1.428   .     A
C1110  C1111   1.519   .     S
C1110  H1126   1.112   .     S
C1110  H1158   1.112   .     S
C1110  O1174   1.411   .     S
C1111  H1128   1.106   .     S
C1111  H1129   1.110   .     S
C1111  H1127   1.108   .     S
C1112  H1130   1.108   .     S
C1112  H1131   1.112   .     S
C1112  O1166   1.418   .     S
C1112  C1113   1.521   .     S
C1113  H1132   1.111   .     S
C1113  H1134   1.111   .     S
C1113  H1385   1.109   .     S
C1114  N1161   1.448   .     S
C1114  H1139   1.110   .     S
C1114  H1138   1.110   .     S
C1114  H1137   1.111   .     S
C1115  N1161   1.426   .     S
C1115  C1120   1.394   .     A
C1116  N1162   1.448   .     S
C1116  H1143   1.111   .     S
C1116  H1142   1.108   .     S
C1116  H1141   1.109   .     S
C1117  H1145   1.105   .     S
C1117  N1163   1.447   .     S
C1117  H1146   1.108   .     S
C1118  N1164   1.444   .     S
C1118  H1150   1.104   .     S
C1118  H1152   1.104   .     S
C1118  H1403   1.106   .     S
C1119  C1121   1.395   .     A
C1119  N1162   1.425   .     S
C1120  H1125   1.084   .     S
C1121  H1136   1.083   .     S
C1121  C351    1.386   1_556 S
C1122  C1291   1.368   .     S
C1122  N1415   1.422   .     S
C1124  O1172   1.304   .     A
H1135  N1161   1.031   .     S
H1140  N1162   1.030   .     S
H1144  N1415   1.028   .     S
H1148  C1369   1.110   .     S
H1155  C258    1.083   1_556 S
H1156  N1159   1.027   .     S
H1157  N1160   1.028   .     S
N1159  Zn1176  2.030   .     S
N1159  N1160   1.285   .     D
N1160  Zn1175  2.030   .     S
N1164  H1401   1.030   .     S
N1164  C1375   1.425   .     S
O1165  Zn1175  1.977   .     S
O1165  C1177   1.275   .     S
O1166  C1183   1.388   .     S
O1167  Zn1176  1.977   .     S
O1168  Zn1176  2.011   .     S
O1169  Zn1175  2.011   .     S
O1170  Zn1175  1.952   .     S
O1170  C1208   1.299   .     S
O1171  Zn1176  1.952   .     S
O1172  Zn1176  1.902   .     S
O1173  Zn1175  1.902   .     S
C1177  O1252   1.302   .     A
C1177  C1206   1.415   .     S
C1178  C1180   1.467   .     S
C1178  O1257   1.306   .     A
C1178  O1087   1.300   1_655 S
C1179  C1183   1.411   .     A
C1179  C1185   1.388   .     A
C1179  C1208   1.463   .     S
C1180  C1186   1.393   .     A
C1180  C1016   1.413   1_655 S
C1181  C1183   1.409   .     A
C1181  C1190   1.400   .     A
C1181  H1238   1.083   .     S
C1182  C1191   1.398   .     A
C1182  C1016   1.403   1_655 S
C1182  H315    1.083   1_655 S
C1184  O1258   1.383   .     S
C1185  H1237   1.077   .     S
C1185  C1187   1.393   .     A
C1186  H1231   1.080   .     S
C1186  C1189   1.392   .     A
C1187  C1190   1.413   .     A
C1187  C1192   1.418   .     A
C1188  O1253   1.305   .     A
C1188  C1207   1.423   .     S
C1188  O1083   1.275   1_655 S
C1189  C1191   1.406   .     A
C1189  C1193   1.412   .     A
C1190  C448    1.389   1_556 S
C1192  C1203   1.434   .     A
C1192  C437    1.418   1_556 S
C1193  C1199   1.428   .     A
C1194  C1195   1.519   .     S
C1194  H1210   1.112   .     S
C1194  H1242   1.112   .     S
C1194  O1258   1.411   .     S
C1195  H1212   1.106   .     S
C1195  H1213   1.110   .     S
C1195  H1211   1.108   .     S
C1196  H1214   1.108   .     S
C1196  H1215   1.112   .     S
C1196  O1250   1.418   .     S
C1196  C1197   1.521   .     S
C1197  H1216   1.111   .     S
C1197  H1218   1.111   .     S
C1197  H1469   1.109   .     S
C1198  N1245   1.448   .     S
C1198  H1223   1.110   .     S
C1198  H1222   1.110   .     S
C1198  H1221   1.111   .     S
C1199  N1245   1.426   .     S
C1199  C1204   1.394   .     A
C1200  N1246   1.448   .     S
C1200  H1227   1.111   .     S
C1200  H1226   1.108   .     S
C1200  H1225   1.109   .     S
C1201  H1229   1.105   .     S
C1201  N1247   1.447   .     S
C1201  H1230   1.108   .     S
C1202  N1248   1.444   .     S
C1202  H1234   1.104   .     S
C1202  H1236   1.104   .     S
C1202  H1487   1.106   .     S
C1203  C1205   1.395   .     A
C1203  N1246   1.425   .     S
C1204  H1209   1.084   .     S
C1205  H1220   1.083   .     S
C1205  C435    1.386   1_556 S
C1206  C1375   1.368   .     S
C1206  N1499   1.422   .     S
C1207  C786    1.368   1_655 S
C1208  O1256   1.304   .     A
H1219  N1245   1.031   .     S
H1224  N1246   1.030   .     S
H1228  N1499   1.028   .     S
H1232  C1453   1.110   .     S
H1239  C342    1.083   1_556 S
H1240  N1243   1.027   .     S
H1241  N1244   1.028   .     S
N1243  Zn1260  2.030   .     S
N1243  N1244   1.285   .     D
N1244  Zn1259  2.030   .     S
N1248  H1485   1.030   .     S
N1248  C1459   1.425   .     S
O1249  Zn1259  1.977   .     S
O1249  C1009   1.275   1_655 S
O1250  C1015   1.388   1_655 S
O1251  Zn1260  1.977   .     S
O1252  Zn1260  2.011   .     S
O1253  Zn1259  2.011   .     S
O1254  Zn1259  1.952   .     S
O1254  C1040   1.299   1_655 S
O1255  Zn1260  1.952   .     S
O1256  Zn1260  1.902   .     S
O1257  Zn1259  1.902   .     S
C1261  O1336   1.302   .     A
C1261  C1290   1.415   .     S
C1261  O1501   1.275   1_455 S
C1262  C1264   1.467   .     S
C1262  O1341   1.306   .     A
C1262  O1423   1.300   .     S
C1263  C1267   1.411   .     A
C1263  C1269   1.388   .     A
C1263  C1292   1.463   .     S
C1264  C1270   1.393   .     A
C1264  C1352   1.413   .     S
C1265  C1267   1.409   .     A
C1265  C1274   1.400   .     A
C1265  H1322   1.083   .     S
C1266  C1275   1.398   .     A
C1266  C1352   1.403   .     S
C1267  O1502   1.388   1_455 S
C1268  O1342   1.383   .     S
C1268  C1432   1.413   1_455 S
C1268  C1434   1.403   1_455 S
C1269  H1321   1.077   .     S
C1269  C1271   1.393   .     A
C1270  H1315   1.080   .     S
C1270  C1273   1.392   .     A
C1271  C1274   1.413   .     A
C1271  C1276   1.418   .     A
C1272  O1337   1.305   .     A
C1272  C1291   1.423   .     S
C1272  O1419   1.275   .     S
C1273  C1275   1.406   .     A
C1273  C1277   1.412   .     A
C1274  C532    1.389   1_556 S
C1276  C1287   1.434   .     A
C1276  C521    1.418   1_556 S
C1277  C1283   1.428   .     A
C1278  C1279   1.519   .     S
C1278  H1294   1.112   .     S
C1278  H1326   1.112   .     S
C1278  O1342   1.411   .     S
C1279  H1296   1.106   .     S
C1279  H1297   1.110   .     S
C1279  H1295   1.108   .     S
C1280  H1298   1.108   .     S
C1280  H1299   1.112   .     S
C1280  O1334   1.418   .     S
C1280  C1281   1.521   .     S
C1281  H1300   1.111   .     S
C1281  H1302   1.111   .     S
C1281  H797    1.109   1_565 S
C1282  N1329   1.448   .     S
C1282  H1307   1.110   .     S
C1282  H1306   1.110   .     S
C1282  H1305   1.111   .     S
C1283  N1329   1.426   .     S
C1283  C1288   1.394   .     A
C1284  N1330   1.448   .     S
C1284  H1311   1.111   .     S
C1284  H1310   1.108   .     S
C1284  H1309   1.109   .     S
C1285  H1313   1.105   .     S
C1285  N1331   1.447   .     S
C1285  H1314   1.108   .     S
C1286  N1332   1.444   .     S
C1286  H1318   1.104   .     S
C1286  H1320   1.104   .     S
C1286  H815    1.106   1_565 S
C1287  C1289   1.395   .     A
C1287  N1330   1.425   .     S
C1288  H1293   1.084   .     S
C1289  H1304   1.083   .     S
C1289  C519    1.386   1_556 S
C1290  C955    1.368   1_465 S
C1290  N827    1.422   1_565 S
C1292  O1340   1.304   .     A
C1292  O1506   1.299   1_455 S
H1303  N1329   1.031   .     S
H1308  N1330   1.030   .     S
H1312  N827    1.028   1_565 S
H1316  C781    1.110   1_565 S
H1323  C678    1.083   1_456 S
H1324  N1327   1.027   .     S
H1325  N1328   1.028   .     S
N1327  Zn1344  2.030   .     S
N1327  N1328   1.285   .     D
N1328  Zn1343  2.030   .     S
N1332  H813    1.030   1_565 S
N1332  C787    1.425   1_565 S
O1333  Zn1343  1.977   .     S
O1333  C1345   1.275   .     S
O1334  C1351   1.388   .     S
O1335  Zn1344  1.977   .     S
O1335  C1440   1.275   1_455 S
O1336  Zn1344  2.011   .     S
O1337  Zn1343  2.011   .     S
O1338  Zn1343  1.952   .     S
O1338  C1376   1.299   .     S
O1339  Zn1344  1.952   .     S
O1339  C1430   1.300   1_455 S
O1340  Zn1344  1.902   .     S
O1341  Zn1343  1.902   .     S
C1345  O1420   1.302   .     A
C1345  C1374   1.415   .     S
C1346  C1348   1.467   .     S
C1346  O1425   1.306   .     A
C1346  O1507   1.300   .     S
C1347  C1351   1.411   .     A
C1347  C1353   1.388   .     A
C1347  C1376   1.463   .     S
C1348  C1354   1.393   .     A
C1348  C1436   1.413   .     S
C1349  C1351   1.409   .     A
C1349  C1358   1.400   .     A
C1349  H1406   1.083   .     S
C1350  C1359   1.398   .     A
C1350  C1436   1.403   .     S
C1352  O1426   1.383   .     S
C1353  H1405   1.077   .     S
C1353  C1355   1.393   .     A
C1354  H1399   1.080   .     S
C1354  C1357   1.392   .     A
C1355  C1358   1.413   .     A
C1355  C1360   1.418   .     A
C1356  O1421   1.305   .     A
C1356  C1375   1.423   .     S
C1356  O1503   1.275   .     S
C1357  C1359   1.406   .     A
C1357  C1361   1.412   .     A
C1358  C616    1.389   1_556 S
C1360  C1371   1.434   .     A
C1360  C605    1.418   1_556 S
C1361  C1367   1.428   .     A
C1362  C1363   1.519   .     S
C1362  H1378   1.112   .     S
C1362  H1410   1.112   .     S
C1362  O1426   1.411   .     S
C1363  H1380   1.106   .     S
C1363  H1381   1.110   .     S
C1363  H1379   1.108   .     S
C1364  H1382   1.108   .     S
C1364  H1383   1.112   .     S
C1364  O1418   1.418   .     S
C1364  C1365   1.521   .     S
C1365  H1384   1.111   .     S
C1365  H1386   1.111   .     S
C1365  H881    1.109   1_565 S
C1366  N1413   1.448   .     S
C1366  H1391   1.110   .     S
C1366  H1390   1.110   .     S
C1366  H1389   1.111   .     S
C1367  N1413   1.426   .     S
C1367  C1372   1.394   .     A
C1368  N1414   1.448   .     S
C1368  H1395   1.111   .     S
C1368  H1394   1.108   .     S
C1368  H1393   1.109   .     S
C1369  H1397   1.105   .     S
C1369  N1415   1.447   .     S
C1369  H1398   1.108   .     S
C1370  N1416   1.444   .     S
C1370  H1402   1.104   .     S
C1370  H1404   1.104   .     S
C1370  H899    1.106   1_565 S
C1371  C1373   1.395   .     A
C1371  N1414   1.425   .     S
C1372  H1377   1.084   .     S
C1373  H1388   1.083   .     S
C1373  C603    1.386   1_556 S
C1374  C787    1.368   1_565 S
C1374  N911    1.422   1_565 S
C1376  O1424   1.304   .     A
H1387  N1413   1.031   .     S
H1392  N1414   1.030   .     S
H1396  N911    1.028   1_565 S
H1400  C865    1.110   1_565 S
H1407  C510    1.083   1_556 S
H1408  N1411   1.027   .     S
H1409  N1412   1.028   .     S
N1411  Zn1428  2.030   .     S
N1411  N1412   1.285   .     D
N1412  Zn1427  2.030   .     S
N1416  H897    1.030   1_565 S
N1416  C871    1.425   1_565 S
O1417  Zn1427  1.977   .     S
O1417  C1429   1.275   .     S
O1418  C1435   1.388   .     S
O1419  Zn1428  1.977   .     S
O1420  Zn1428  2.011   .     S
O1421  Zn1427  2.011   .     S
O1422  Zn1427  1.952   .     S
O1422  C1460   1.299   .     S
O1423  Zn1428  1.952   .     S
O1424  Zn1428  1.902   .     S
O1425  Zn1427  1.902   .     S
C1429  O1504   1.302   .     A
C1429  C1458   1.415   .     S
C1430  C1432   1.467   .     S
C1430  O1509   1.306   .     A
C1430  O1339   1.300   1_655 S
C1431  C1435   1.411   .     A
C1431  C1437   1.388   .     A
C1431  C1460   1.463   .     S
C1432  C1438   1.393   .     A
C1432  C1268   1.413   1_655 S
C1433  C1435   1.409   .     A
C1433  C1442   1.400   .     A
C1433  H1490   1.083   .     S
C1434  C1443   1.398   .     A
C1434  C1268   1.403   1_655 S
C1434  H567    1.083   1_655 S
C1436  O1510   1.383   .     S
C1437  H1489   1.077   .     S
C1437  C1439   1.393   .     A
C1438  H1483   1.080   .     S
C1438  C1441   1.392   .     A
C1439  C1442   1.413   .     A
C1439  C1444   1.418   .     A
C1440  O1505   1.305   .     A
C1440  C1459   1.423   .     S
C1440  O1335   1.275   1_655 S
C1441  C1443   1.406   .     A
C1441  C1445   1.412   .     A
C1442  C700    1.389   1_556 S
C1444  C1455   1.434   .     A
C1444  C689    1.418   1_556 S
C1445  C1451   1.428   .     A
C1446  C1447   1.519   .     S
C1446  H1462   1.112   .     S
C1446  H1494   1.112   .     S
C1446  O1510   1.411   .     S
C1447  H1464   1.106   .     S
C1447  H1465   1.110   .     S
C1447  H1463   1.108   .     S
C1448  H1466   1.108   .     S
C1448  H1467   1.112   .     S
C1448  O1502   1.418   .     S
C1448  C1449   1.521   .     S
C1449  H1468   1.111   .     S
C1449  H1470   1.111   .     S
C1449  H965    1.109   1_565 S
C1450  N1497   1.448   .     S
C1450  H1475   1.110   .     S
C1450  H1474   1.110   .     S
C1450  H1473   1.111   .     S
C1451  N1497   1.426   .     S
C1451  C1456   1.394   .     A
C1452  N1498   1.448   .     S
C1452  H1479   1.111   .     S
C1452  H1478   1.108   .     S
C1452  H1477   1.109   .     S
C1453  H1481   1.105   .     S
C1453  N1499   1.447   .     S
C1453  H1482   1.108   .     S
C1454  N1500   1.444   .     S
C1454  H1486   1.104   .     S
C1454  H1488   1.104   .     S
C1454  H983    1.106   1_565 S
C1455  C1457   1.395   .     A
C1455  N1498   1.425   .     S
C1456  H1461   1.084   .     S
C1457  H1472   1.083   .     S
C1457  C687    1.386   1_556 S
C1458  C871    1.368   1_565 S
C1458  N995    1.422   1_565 S
C1459  C1038   1.368   1_655 S
C1460  O1508   1.304   .     A
H1471  N1497   1.031   .     S
H1476  N1498   1.030   .     S
H1480  N995    1.028   1_565 S
H1484  C949    1.110   1_565 S
H1491  C594    1.083   1_556 S
H1492  N1495   1.027   .     S
H1493  N1496   1.028   .     S
N1495  Zn1512  2.030   .     S
N1495  N1496   1.285   .     D
N1496  Zn1511  2.030   .     S
N1500  H981    1.030   1_565 S
N1500  C955    1.425   1_565 S
O1501  Zn1511  1.977   .     S
O1501  C1261   1.275   1_655 S
O1502  C1267   1.388   1_655 S
O1503  Zn1512  1.977   .     S
O1504  Zn1512  2.011   .     S
O1505  Zn1511  2.011   .     S
O1506  Zn1511  1.952   .     S
O1506  C1292   1.299   1_655 S
O1507  Zn1512  1.952   .     S
O1508  Zn1512  1.902   .     S
O1509  Zn1511  1.902   .     S
