data_str_m2_o10_o16_pcu_sym.75
_audit_creation_date              2020-01-03
_audit_creation_method            'Materials Studio'
_symmetry_space_group_name_H-M    'P1'
_symmetry_Int_Tables_number       1
_symmetry_cell_setting            triclinic
loop_
_symmetry_equiv_pos_as_xyz
  x,y,z
_cell_length_a                    22.3488
_cell_length_b                    26.0751
_cell_length_c                    26.7970
_cell_angle_alpha                 94.4057
_cell_angle_beta                  77.4111
_cell_angle_gamma                 103.2840
loop_
_atom_site_label
_atom_site_type_symbol
_atom_site_fract_x
_atom_site_fract_y
_atom_site_fract_z
_atom_site_U_iso_or_equiv
_atom_site_adp_type
_atom_site_occupancy
C1     C     0.18178   0.26673   0.25160   0.00000  Uiso   1.00
C2     C     0.11136   0.16363   0.40377   0.00000  Uiso   1.00
C3     C     0.19022   0.32275   0.25242   0.00000  Uiso   1.00
C4     C     0.13292   0.16536   0.34737   0.00000  Uiso   1.00
C5     C     0.14299   0.01058   0.24790   0.00000  Uiso   1.00
C6     C     0.15150   0.06660   0.24854   0.00000  Uiso   1.00
C7     C     0.20052   0.17030   0.15298   0.00000  Uiso   1.00
C8     C     0.29247   0.22586   0.02681   0.00000  Uiso   1.00
C9     C     0.22086   0.17861   0.09790   0.00000  Uiso   1.00
C10    C     0.04926   0.13716   0.42507   0.00000  Uiso   1.00
C11    C     0.03242   0.12747   0.47747   0.00000  Uiso   1.00
C12    C     0.13896   0.16775   0.48809   0.00000  Uiso   1.00
C13    C     0.07657   0.14124   0.00818   0.00000  Uiso   1.00
C14    C     0.15434   0.18339   0.43652   0.00000  Uiso   1.00
C15    C     0.18625   0.18036   0.01788   0.00000  Uiso   1.00
C16    C     0.24578   0.21260   0.49752   0.00000  Uiso   1.00
C17    C     0.25729   0.23272   0.44888   0.00000  Uiso   1.00
C18    C     0.21189   0.21922   0.41927   0.00000  Uiso   1.00
C19    C     0.17613   0.16203   0.06752   0.00000  Uiso   1.00
C20    C     0.27990   0.20929   0.07701   0.00000  Uiso   1.00
Cu21   Cu    0.10710   0.16105   0.24436   0.00000  Uiso   1.00
Cu22   Cu    0.22623   0.17228   0.25565   0.00000  Uiso   1.00
H23    H     0.31508   0.22243   0.10007   0.00000  Uiso   1.00
H24    H     0.23569   0.01334   0.25668   0.00000  Uiso   1.00
H25    H     0.30967   0.23297   0.31495   0.00000  Uiso   1.00
H26    H     0.29832   0.10325   0.41532   0.00000  Uiso   1.00
H27    H     0.09752   0.31999   0.24366   0.00000  Uiso   1.00
H28    H     0.32977   0.12728   0.21022   0.00000  Uiso   1.00
H29    H     0.30145   0.25936   0.43371   0.00000  Uiso   1.00
H30    H     0.00468   0.25044   0.01140   0.00000  Uiso   1.00
H31    H     0.13300   0.13556   0.08423   0.00000  Uiso   1.00
H32    H     0.05952   0.13200   0.04796   0.00000  Uiso   1.00
H33    H     0.31826   0.10778   0.49460   0.00000  Uiso   1.00
H34    H     0.22183   0.23864   0.38330   0.00000  Uiso   1.00
N35    N     0.31574   0.18074   0.26416   0.00000  Uiso   1.00
N36    N     0.01759   0.15259   0.23584   0.00000  Uiso   1.00
O37    O     0.12797   0.23807   0.24633   0.00000  Uiso   1.00
O38    O     0.00605   0.12017   0.39414   0.00000  Uiso   1.00
O39    O     0.22858   0.24755   0.25587   0.00000  Uiso   1.00
O40    O     0.09181   0.15960   0.31840   0.00000  Uiso   1.00
O41    O     0.19242   0.16908   0.32793   0.00000  Uiso   1.00
O42    O     0.10476   0.08578   0.24414   0.00000  Uiso   1.00
O43    O     0.20536   0.09526   0.25367   0.00000  Uiso   1.00
O44    O     0.14092   0.16425   0.17207   0.00000  Uiso   1.00
O45    O     0.24152   0.17373   0.18161   0.00000  Uiso   1.00
O46    O     0.00900   0.21388   0.29780   0.00000  Uiso   1.00
C47    C     0.51511   0.26673   0.25160   0.00000  Uiso   1.00
C48    C     0.44469   0.16363   0.40377   0.00000  Uiso   1.00
C49    C     0.52356   0.32275   0.25242   0.00000  Uiso   1.00
C50    C     0.46626   0.16536   0.34737   0.00000  Uiso   1.00
C51    C     0.47632   0.01058   0.24790   0.00000  Uiso   1.00
C52    C     0.48483   0.06660   0.24854   0.00000  Uiso   1.00
C53    C     0.53386   0.17030   0.15298   0.00000  Uiso   1.00
C54    C     0.62580   0.22586   0.02681   0.00000  Uiso   1.00
C55    C     0.55419   0.17861   0.09790   0.00000  Uiso   1.00
C56    C     0.38259   0.13716   0.42507   0.00000  Uiso   1.00
C57    C     0.36575   0.12747   0.47747   0.00000  Uiso   1.00
C58    C     0.47229   0.16775   0.48809   0.00000  Uiso   1.00
C59    C     0.40990   0.14124   0.00818   0.00000  Uiso   1.00
C60    C     0.48768   0.18339   0.43652   0.00000  Uiso   1.00
C61    C     0.51958   0.18036   0.01788   0.00000  Uiso   1.00
C62    C     0.57911   0.21260   0.49752   0.00000  Uiso   1.00
C63    C     0.59062   0.23272   0.44888   0.00000  Uiso   1.00
C64    C     0.54523   0.21922   0.41927   0.00000  Uiso   1.00
C65    C     0.50946   0.16203   0.06752   0.00000  Uiso   1.00
C66    C     0.61323   0.20929   0.07701   0.00000  Uiso   1.00
Cu67   Cu    0.44043   0.16105   0.24436   0.00000  Uiso   1.00
Cu68   Cu    0.55957   0.17228   0.25565   0.00000  Uiso   1.00
H69    H     0.64841   0.22243   0.10007   0.00000  Uiso   1.00
H70    H     0.56902   0.01334   0.25668   0.00000  Uiso   1.00
H71    H     0.64300   0.23297   0.31495   0.00000  Uiso   1.00
H72    H     0.63166   0.10325   0.41532   0.00000  Uiso   1.00
H73    H     0.43085   0.31999   0.24366   0.00000  Uiso   1.00
H74    H     0.66311   0.12728   0.21022   0.00000  Uiso   1.00
H75    H     0.63478   0.25936   0.43371   0.00000  Uiso   1.00
H76    H     0.33801   0.25044   0.01140   0.00000  Uiso   1.00
H77    H     0.46634   0.13556   0.08423   0.00000  Uiso   1.00
H78    H     0.39286   0.13200   0.04796   0.00000  Uiso   1.00
H79    H     0.65160   0.10778   0.49460   0.00000  Uiso   1.00
H80    H     0.55516   0.23864   0.38330   0.00000  Uiso   1.00
N81    N     0.64908   0.18074   0.26416   0.00000  Uiso   1.00
N82    N     0.35092   0.15259   0.23584   0.00000  Uiso   1.00
O83    O     0.46131   0.23807   0.24633   0.00000  Uiso   1.00
O84    O     0.33938   0.12017   0.39414   0.00000  Uiso   1.00
O85    O     0.56191   0.24755   0.25587   0.00000  Uiso   1.00
O86    O     0.42515   0.15960   0.31840   0.00000  Uiso   1.00
O87    O     0.52575   0.16908   0.32793   0.00000  Uiso   1.00
O88    O     0.43809   0.08578   0.24414   0.00000  Uiso   1.00
O89    O     0.53869   0.09526   0.25367   0.00000  Uiso   1.00
O90    O     0.47425   0.16425   0.17207   0.00000  Uiso   1.00
O91    O     0.57485   0.17373   0.18161   0.00000  Uiso   1.00
O92    O     0.34233   0.21388   0.29780   0.00000  Uiso   1.00
C93    C     0.84844   0.26673   0.25160   0.00000  Uiso   1.00
C94    C     0.77803   0.16363   0.40377   0.00000  Uiso   1.00
C95    C     0.85689   0.32275   0.25242   0.00000  Uiso   1.00
C96    C     0.79959   0.16536   0.34737   0.00000  Uiso   1.00
C97    C     0.80966   0.01058   0.24790   0.00000  Uiso   1.00
C98    C     0.81817   0.06660   0.24854   0.00000  Uiso   1.00
C99    C     0.86719   0.17030   0.15298   0.00000  Uiso   1.00
C100   C     0.95914   0.22586   0.02681   0.00000  Uiso   1.00
C101   C     0.88753   0.17861   0.09790   0.00000  Uiso   1.00
C102   C     0.71592   0.13716   0.42507   0.00000  Uiso   1.00
C103   C     0.69909   0.12747   0.47747   0.00000  Uiso   1.00
C104   C     0.80563   0.16775   0.48809   0.00000  Uiso   1.00
C105   C     0.74323   0.14124   0.00818   0.00000  Uiso   1.00
C106   C     0.82101   0.18339   0.43652   0.00000  Uiso   1.00
C107   C     0.85292   0.18036   0.01788   0.00000  Uiso   1.00
C108   C     0.91244   0.21260   0.49752   0.00000  Uiso   1.00
C109   C     0.92395   0.23272   0.44888   0.00000  Uiso   1.00
C110   C     0.87856   0.21922   0.41927   0.00000  Uiso   1.00
C111   C     0.84279   0.16203   0.06752   0.00000  Uiso   1.00
C112   C     0.94656   0.20929   0.07701   0.00000  Uiso   1.00
Cu113  Cu    0.77377   0.16105   0.24436   0.00000  Uiso   1.00
Cu114  Cu    0.89290   0.17228   0.25565   0.00000  Uiso   1.00
H115   H     0.98174   0.22243   0.10007   0.00000  Uiso   1.00
H116   H     0.90235   0.01334   0.25668   0.00000  Uiso   1.00
H117   H     0.97633   0.23297   0.31495   0.00000  Uiso   1.00
H118   H     0.96499   0.10325   0.41532   0.00000  Uiso   1.00
H119   H     0.76418   0.31999   0.24366   0.00000  Uiso   1.00
H120   H     0.99644   0.12728   0.21022   0.00000  Uiso   1.00
H121   H     0.96812   0.25936   0.43371   0.00000  Uiso   1.00
H122   H     0.67135   0.25044   0.01140   0.00000  Uiso   1.00
H123   H     0.79967   0.13556   0.08423   0.00000  Uiso   1.00
H124   H     0.72619   0.13200   0.04796   0.00000  Uiso   1.00
H125   H     0.98493   0.10778   0.49460   0.00000  Uiso   1.00
H126   H     0.88850   0.23864   0.38330   0.00000  Uiso   1.00
N127   N     0.98241   0.18074   0.26416   0.00000  Uiso   1.00
N128   N     0.68426   0.15259   0.23584   0.00000  Uiso   1.00
O129   O     0.79464   0.23807   0.24633   0.00000  Uiso   1.00
O130   O     0.67271   0.12017   0.39414   0.00000  Uiso   1.00
O131   O     0.89524   0.24755   0.25587   0.00000  Uiso   1.00
O132   O     0.75848   0.15960   0.31840   0.00000  Uiso   1.00
O133   O     0.85908   0.16908   0.32793   0.00000  Uiso   1.00
O134   O     0.77142   0.08578   0.24414   0.00000  Uiso   1.00
O135   O     0.87203   0.09526   0.25367   0.00000  Uiso   1.00
O136   O     0.80758   0.16425   0.17207   0.00000  Uiso   1.00
O137   O     0.90819   0.17373   0.18161   0.00000  Uiso   1.00
O138   O     0.67567   0.21388   0.29780   0.00000  Uiso   1.00
C139   C     0.18178   0.60007   0.25160   0.00000  Uiso   1.00
C140   C     0.11136   0.49696   0.40377   0.00000  Uiso   1.00
C141   C     0.19022   0.65608   0.25242   0.00000  Uiso   1.00
C142   C     0.13292   0.49870   0.34737   0.00000  Uiso   1.00
C143   C     0.14299   0.34391   0.24790   0.00000  Uiso   1.00
C144   C     0.15150   0.39993   0.24854   0.00000  Uiso   1.00
C145   C     0.20052   0.50364   0.15298   0.00000  Uiso   1.00
C146   C     0.29247   0.55919   0.02681   0.00000  Uiso   1.00
C147   C     0.22086   0.51195   0.09790   0.00000  Uiso   1.00
C148   C     0.04926   0.47049   0.42507   0.00000  Uiso   1.00
C149   C     0.03242   0.46080   0.47747   0.00000  Uiso   1.00
C150   C     0.13896   0.50108   0.48809   0.00000  Uiso   1.00
C151   C     0.07657   0.47458   0.00818   0.00000  Uiso   1.00
C152   C     0.15434   0.51672   0.43652   0.00000  Uiso   1.00
C153   C     0.18625   0.51369   0.01788   0.00000  Uiso   1.00
C154   C     0.24578   0.54593   0.49752   0.00000  Uiso   1.00
C155   C     0.25729   0.56605   0.44888   0.00000  Uiso   1.00
C156   C     0.21189   0.55255   0.41927   0.00000  Uiso   1.00
C157   C     0.17613   0.49536   0.06752   0.00000  Uiso   1.00
C158   C     0.27990   0.54263   0.07701   0.00000  Uiso   1.00
Cu159  Cu    0.10710   0.49439   0.24436   0.00000  Uiso   1.00
Cu160  Cu    0.22623   0.50561   0.25565   0.00000  Uiso   1.00
H161   H     0.31508   0.55576   0.10007   0.00000  Uiso   1.00
H162   H     0.23569   0.34667   0.25668   0.00000  Uiso   1.00
H163   H     0.30967   0.56630   0.31495   0.00000  Uiso   1.00
H164   H     0.29832   0.43659   0.41532   0.00000  Uiso   1.00
H165   H     0.09752   0.65332   0.24366   0.00000  Uiso   1.00
H166   H     0.32977   0.46061   0.21022   0.00000  Uiso   1.00
H167   H     0.30145   0.59269   0.43371   0.00000  Uiso   1.00
H168   H     0.00468   0.58377   0.01140   0.00000  Uiso   1.00
H169   H     0.13300   0.46889   0.08423   0.00000  Uiso   1.00
H170   H     0.05952   0.46533   0.04796   0.00000  Uiso   1.00
H171   H     0.31826   0.44112   0.49460   0.00000  Uiso   1.00
H172   H     0.22183   0.57198   0.38330   0.00000  Uiso   1.00
N173   N     0.31574   0.51407   0.26416   0.00000  Uiso   1.00
N174   N     0.01759   0.48593   0.23584   0.00000  Uiso   1.00
O175   O     0.12797   0.57141   0.24633   0.00000  Uiso   1.00
O176   O     0.00605   0.45351   0.39414   0.00000  Uiso   1.00
O177   O     0.22858   0.58089   0.25587   0.00000  Uiso   1.00
O178   O     0.09181   0.49293   0.31840   0.00000  Uiso   1.00
O179   O     0.19242   0.50241   0.32793   0.00000  Uiso   1.00
O180   O     0.10476   0.41911   0.24414   0.00000  Uiso   1.00
O181   O     0.20536   0.42859   0.25367   0.00000  Uiso   1.00
O182   O     0.14092   0.49759   0.17207   0.00000  Uiso   1.00
O183   O     0.24152   0.50707   0.18161   0.00000  Uiso   1.00
O184   O     0.00900   0.54721   0.29780   0.00000  Uiso   1.00
C185   C     0.51511   0.60007   0.25160   0.00000  Uiso   1.00
C186   C     0.44469   0.49696   0.40377   0.00000  Uiso   1.00
C187   C     0.52356   0.65608   0.25242   0.00000  Uiso   1.00
C188   C     0.46626   0.49870   0.34737   0.00000  Uiso   1.00
C189   C     0.47632   0.34391   0.24790   0.00000  Uiso   1.00
C190   C     0.48483   0.39993   0.24854   0.00000  Uiso   1.00
C191   C     0.53386   0.50364   0.15298   0.00000  Uiso   1.00
C192   C     0.62580   0.55919   0.02681   0.00000  Uiso   1.00
C193   C     0.55419   0.51195   0.09790   0.00000  Uiso   1.00
C194   C     0.38259   0.47049   0.42507   0.00000  Uiso   1.00
C195   C     0.36575   0.46080   0.47747   0.00000  Uiso   1.00
C196   C     0.47229   0.50108   0.48809   0.00000  Uiso   1.00
C197   C     0.40990   0.47458   0.00818   0.00000  Uiso   1.00
C198   C     0.48768   0.51672   0.43652   0.00000  Uiso   1.00
C199   C     0.51958   0.51369   0.01788   0.00000  Uiso   1.00
C200   C     0.57911   0.54593   0.49752   0.00000  Uiso   1.00
C201   C     0.59062   0.56605   0.44888   0.00000  Uiso   1.00
C202   C     0.54523   0.55255   0.41927   0.00000  Uiso   1.00
C203   C     0.50946   0.49536   0.06752   0.00000  Uiso   1.00
C204   C     0.61323   0.54263   0.07701   0.00000  Uiso   1.00
Cu205  Cu    0.44043   0.49439   0.24436   0.00000  Uiso   1.00
Cu206  Cu    0.55957   0.50561   0.25565   0.00000  Uiso   1.00
H207   H     0.64841   0.55576   0.10007   0.00000  Uiso   1.00
H208   H     0.56902   0.34667   0.25668   0.00000  Uiso   1.00
H209   H     0.64300   0.56630   0.31495   0.00000  Uiso   1.00
H210   H     0.63166   0.43659   0.41532   0.00000  Uiso   1.00
H211   H     0.43085   0.65332   0.24366   0.00000  Uiso   1.00
H212   H     0.66311   0.46061   0.21022   0.00000  Uiso   1.00
H213   H     0.63478   0.59269   0.43371   0.00000  Uiso   1.00
H214   H     0.33801   0.58377   0.01140   0.00000  Uiso   1.00
H215   H     0.46634   0.46889   0.08423   0.00000  Uiso   1.00
H216   H     0.39286   0.46533   0.04796   0.00000  Uiso   1.00
H217   H     0.65160   0.44112   0.49460   0.00000  Uiso   1.00
H218   H     0.55516   0.57198   0.38330   0.00000  Uiso   1.00
N219   N     0.64908   0.51407   0.26416   0.00000  Uiso   1.00
N220   N     0.35092   0.48593   0.23584   0.00000  Uiso   1.00
O221   O     0.46131   0.57141   0.24633   0.00000  Uiso   1.00
O222   O     0.33938   0.45351   0.39414   0.00000  Uiso   1.00
O223   O     0.56191   0.58089   0.25587   0.00000  Uiso   1.00
O224   O     0.42515   0.49293   0.31840   0.00000  Uiso   1.00
O225   O     0.52575   0.50241   0.32793   0.00000  Uiso   1.00
O226   O     0.43809   0.41911   0.24414   0.00000  Uiso   1.00
O227   O     0.53869   0.42859   0.25367   0.00000  Uiso   1.00
O228   O     0.47425   0.49759   0.17207   0.00000  Uiso   1.00
O229   O     0.57485   0.50707   0.18161   0.00000  Uiso   1.00
O230   O     0.34233   0.54721   0.29780   0.00000  Uiso   1.00
C231   C     0.84844   0.60007   0.25160   0.00000  Uiso   1.00
C232   C     0.77803   0.49696   0.40377   0.00000  Uiso   1.00
C233   C     0.85689   0.65608   0.25242   0.00000  Uiso   1.00
C234   C     0.79959   0.49870   0.34737   0.00000  Uiso   1.00
C235   C     0.80966   0.34391   0.24790   0.00000  Uiso   1.00
C236   C     0.81817   0.39993   0.24854   0.00000  Uiso   1.00
C237   C     0.86719   0.50364   0.15298   0.00000  Uiso   1.00
C238   C     0.95914   0.55919   0.02681   0.00000  Uiso   1.00
C239   C     0.88753   0.51195   0.09790   0.00000  Uiso   1.00
C240   C     0.71592   0.47049   0.42507   0.00000  Uiso   1.00
C241   C     0.69909   0.46080   0.47747   0.00000  Uiso   1.00
C242   C     0.80563   0.50108   0.48809   0.00000  Uiso   1.00
C243   C     0.74323   0.47458   0.00818   0.00000  Uiso   1.00
C244   C     0.82101   0.51672   0.43652   0.00000  Uiso   1.00
C245   C     0.85292   0.51369   0.01788   0.00000  Uiso   1.00
C246   C     0.91244   0.54593   0.49752   0.00000  Uiso   1.00
C247   C     0.92395   0.56605   0.44888   0.00000  Uiso   1.00
C248   C     0.87856   0.55255   0.41927   0.00000  Uiso   1.00
C249   C     0.84279   0.49536   0.06752   0.00000  Uiso   1.00
C250   C     0.94656   0.54263   0.07701   0.00000  Uiso   1.00
Cu251  Cu    0.77377   0.49439   0.24436   0.00000  Uiso   1.00
Cu252  Cu    0.89290   0.50561   0.25565   0.00000  Uiso   1.00
H253   H     0.98174   0.55576   0.10007   0.00000  Uiso   1.00
H254   H     0.90235   0.34667   0.25668   0.00000  Uiso   1.00
H255   H     0.97633   0.56630   0.31495   0.00000  Uiso   1.00
H256   H     0.96499   0.43659   0.41532   0.00000  Uiso   1.00
H257   H     0.76418   0.65332   0.24366   0.00000  Uiso   1.00
H258   H     0.99644   0.46061   0.21022   0.00000  Uiso   1.00
H259   H     0.96812   0.59269   0.43371   0.00000  Uiso   1.00
H260   H     0.67135   0.58377   0.01140   0.00000  Uiso   1.00
H261   H     0.79967   0.46889   0.08423   0.00000  Uiso   1.00
H262   H     0.72619   0.46533   0.04796   0.00000  Uiso   1.00
H263   H     0.98493   0.44112   0.49460   0.00000  Uiso   1.00
H264   H     0.88850   0.57198   0.38330   0.00000  Uiso   1.00
N265   N     0.98241   0.51407   0.26416   0.00000  Uiso   1.00
N266   N     0.68426   0.48593   0.23584   0.00000  Uiso   1.00
O267   O     0.79464   0.57141   0.24633   0.00000  Uiso   1.00
O268   O     0.67271   0.45351   0.39414   0.00000  Uiso   1.00
O269   O     0.89524   0.58089   0.25587   0.00000  Uiso   1.00
O270   O     0.75848   0.49293   0.31840   0.00000  Uiso   1.00
O271   O     0.85908   0.50241   0.32793   0.00000  Uiso   1.00
O272   O     0.77142   0.41911   0.24414   0.00000  Uiso   1.00
O273   O     0.87203   0.42859   0.25367   0.00000  Uiso   1.00
O274   O     0.80758   0.49759   0.17207   0.00000  Uiso   1.00
O275   O     0.90819   0.50707   0.18161   0.00000  Uiso   1.00
O276   O     0.67567   0.54721   0.29780   0.00000  Uiso   1.00
C277   C     0.18178   0.93340   0.25160   0.00000  Uiso   1.00
C278   C     0.11136   0.83030   0.40377   0.00000  Uiso   1.00
C279   C     0.19022   0.98941   0.25242   0.00000  Uiso   1.00
C280   C     0.13292   0.83203   0.34737   0.00000  Uiso   1.00
C281   C     0.14299   0.67725   0.24790   0.00000  Uiso   1.00
C282   C     0.15150   0.73327   0.24854   0.00000  Uiso   1.00
C283   C     0.20052   0.83697   0.15298   0.00000  Uiso   1.00
C284   C     0.29247   0.89253   0.02681   0.00000  Uiso   1.00
C285   C     0.22086   0.84528   0.09790   0.00000  Uiso   1.00
C286   C     0.04926   0.80383   0.42507   0.00000  Uiso   1.00
C287   C     0.03242   0.79414   0.47747   0.00000  Uiso   1.00
C288   C     0.13896   0.83442   0.48809   0.00000  Uiso   1.00
C289   C     0.07657   0.80791   0.00818   0.00000  Uiso   1.00
C290   C     0.15434   0.85006   0.43652   0.00000  Uiso   1.00
C291   C     0.18625   0.84702   0.01788   0.00000  Uiso   1.00
C292   C     0.24578   0.87927   0.49752   0.00000  Uiso   1.00
C293   C     0.25729   0.89938   0.44888   0.00000  Uiso   1.00
C294   C     0.21189   0.88588   0.41927   0.00000  Uiso   1.00
C295   C     0.17613   0.82870   0.06752   0.00000  Uiso   1.00
C296   C     0.27990   0.87596   0.07701   0.00000  Uiso   1.00
Cu297  Cu    0.10710   0.82772   0.24436   0.00000  Uiso   1.00
Cu298  Cu    0.22623   0.83895   0.25565   0.00000  Uiso   1.00
H299   H     0.31508   0.88909   0.10007   0.00000  Uiso   1.00
H300   H     0.23569   0.68000   0.25668   0.00000  Uiso   1.00
H301   H     0.30967   0.89963   0.31495   0.00000  Uiso   1.00
H302   H     0.29832   0.76992   0.41532   0.00000  Uiso   1.00
H303   H     0.09752   0.98666   0.24366   0.00000  Uiso   1.00
H304   H     0.32977   0.79394   0.21022   0.00000  Uiso   1.00
H305   H     0.30145   0.92603   0.43371   0.00000  Uiso   1.00
H306   H     0.00468   0.91711   0.01140   0.00000  Uiso   1.00
H307   H     0.13300   0.80223   0.08423   0.00000  Uiso   1.00
H308   H     0.05952   0.79866   0.04796   0.00000  Uiso   1.00
H309   H     0.31826   0.77445   0.49460   0.00000  Uiso   1.00
H310   H     0.22183   0.90531   0.38330   0.00000  Uiso   1.00
N311   N     0.31574   0.84741   0.26416   0.00000  Uiso   1.00
N312   N     0.01759   0.81926   0.23584   0.00000  Uiso   1.00
O313   O     0.12797   0.90474   0.24633   0.00000  Uiso   1.00
O314   O     0.00605   0.78684   0.39414   0.00000  Uiso   1.00
O315   O     0.22858   0.91422   0.25587   0.00000  Uiso   1.00
O316   O     0.09181   0.82627   0.31840   0.00000  Uiso   1.00
O317   O     0.19242   0.83575   0.32793   0.00000  Uiso   1.00
O318   O     0.10476   0.75245   0.24414   0.00000  Uiso   1.00
O319   O     0.20536   0.76193   0.25367   0.00000  Uiso   1.00
O320   O     0.14092   0.83092   0.17207   0.00000  Uiso   1.00
O321   O     0.24152   0.84040   0.18161   0.00000  Uiso   1.00
O322   O     0.00900   0.88055   0.29780   0.00000  Uiso   1.00
C323   C     0.51511   0.93340   0.25160   0.00000  Uiso   1.00
C324   C     0.44469   0.83030   0.40377   0.00000  Uiso   1.00
C325   C     0.52356   0.98941   0.25242   0.00000  Uiso   1.00
C326   C     0.46626   0.83203   0.34737   0.00000  Uiso   1.00
C327   C     0.47632   0.67725   0.24790   0.00000  Uiso   1.00
C328   C     0.48483   0.73327   0.24854   0.00000  Uiso   1.00
C329   C     0.53386   0.83697   0.15298   0.00000  Uiso   1.00
C330   C     0.62580   0.89253   0.02681   0.00000  Uiso   1.00
C331   C     0.55419   0.84528   0.09790   0.00000  Uiso   1.00
C332   C     0.38259   0.80383   0.42507   0.00000  Uiso   1.00
C333   C     0.36575   0.79414   0.47747   0.00000  Uiso   1.00
C334   C     0.47229   0.83442   0.48809   0.00000  Uiso   1.00
C335   C     0.40990   0.80791   0.00818   0.00000  Uiso   1.00
C336   C     0.48768   0.85006   0.43652   0.00000  Uiso   1.00
C337   C     0.51958   0.84702   0.01788   0.00000  Uiso   1.00
C338   C     0.57911   0.87927   0.49752   0.00000  Uiso   1.00
C339   C     0.59062   0.89938   0.44888   0.00000  Uiso   1.00
C340   C     0.54523   0.88588   0.41927   0.00000  Uiso   1.00
C341   C     0.50946   0.82870   0.06752   0.00000  Uiso   1.00
C342   C     0.61323   0.87596   0.07701   0.00000  Uiso   1.00
Cu343  Cu    0.44043   0.82772   0.24436   0.00000  Uiso   1.00
Cu344  Cu    0.55957   0.83895   0.25565   0.00000  Uiso   1.00
H345   H     0.64841   0.88909   0.10007   0.00000  Uiso   1.00
H346   H     0.56902   0.68000   0.25668   0.00000  Uiso   1.00
H347   H     0.64300   0.89963   0.31495   0.00000  Uiso   1.00
H348   H     0.63166   0.76992   0.41532   0.00000  Uiso   1.00
H349   H     0.43085   0.98666   0.24366   0.00000  Uiso   1.00
H350   H     0.66311   0.79394   0.21022   0.00000  Uiso   1.00
H351   H     0.63478   0.92603   0.43371   0.00000  Uiso   1.00
H352   H     0.33801   0.91711   0.01140   0.00000  Uiso   1.00
H353   H     0.46634   0.80223   0.08423   0.00000  Uiso   1.00
H354   H     0.39286   0.79866   0.04796   0.00000  Uiso   1.00
H355   H     0.65160   0.77445   0.49460   0.00000  Uiso   1.00
H356   H     0.55516   0.90531   0.38330   0.00000  Uiso   1.00
N357   N     0.64908   0.84741   0.26416   0.00000  Uiso   1.00
N358   N     0.35092   0.81926   0.23584   0.00000  Uiso   1.00
O359   O     0.46131   0.90474   0.24633   0.00000  Uiso   1.00
O360   O     0.33938   0.78684   0.39414   0.00000  Uiso   1.00
O361   O     0.56191   0.91422   0.25587   0.00000  Uiso   1.00
O362   O     0.42515   0.82627   0.31840   0.00000  Uiso   1.00
O363   O     0.52575   0.83575   0.32793   0.00000  Uiso   1.00
O364   O     0.43809   0.75245   0.24414   0.00000  Uiso   1.00
O365   O     0.53869   0.76193   0.25367   0.00000  Uiso   1.00
O366   O     0.47425   0.83092   0.17207   0.00000  Uiso   1.00
O367   O     0.57485   0.84040   0.18161   0.00000  Uiso   1.00
O368   O     0.34233   0.88055   0.29780   0.00000  Uiso   1.00
C369   C     0.84844   0.93340   0.25160   0.00000  Uiso   1.00
C370   C     0.77803   0.83030   0.40377   0.00000  Uiso   1.00
C371   C     0.85689   0.98941   0.25242   0.00000  Uiso   1.00
C372   C     0.79959   0.83203   0.34737   0.00000  Uiso   1.00
C373   C     0.80966   0.67725   0.24790   0.00000  Uiso   1.00
C374   C     0.81817   0.73327   0.24854   0.00000  Uiso   1.00
C375   C     0.86719   0.83697   0.15298   0.00000  Uiso   1.00
C376   C     0.95914   0.89253   0.02681   0.00000  Uiso   1.00
C377   C     0.88753   0.84528   0.09790   0.00000  Uiso   1.00
C378   C     0.71592   0.80383   0.42507   0.00000  Uiso   1.00
C379   C     0.69909   0.79414   0.47747   0.00000  Uiso   1.00
C380   C     0.80563   0.83442   0.48809   0.00000  Uiso   1.00
C381   C     0.74323   0.80791   0.00818   0.00000  Uiso   1.00
C382   C     0.82101   0.85006   0.43652   0.00000  Uiso   1.00
C383   C     0.85292   0.84702   0.01788   0.00000  Uiso   1.00
C384   C     0.91244   0.87927   0.49752   0.00000  Uiso   1.00
C385   C     0.92395   0.89938   0.44888   0.00000  Uiso   1.00
C386   C     0.87856   0.88588   0.41927   0.00000  Uiso   1.00
C387   C     0.84279   0.82870   0.06752   0.00000  Uiso   1.00
C388   C     0.94656   0.87596   0.07701   0.00000  Uiso   1.00
Cu389  Cu    0.77377   0.82772   0.24436   0.00000  Uiso   1.00
Cu390  Cu    0.89290   0.83895   0.25565   0.00000  Uiso   1.00
H391   H     0.98174   0.88909   0.10007   0.00000  Uiso   1.00
H392   H     0.90235   0.68000   0.25668   0.00000  Uiso   1.00
H393   H     0.97633   0.89963   0.31495   0.00000  Uiso   1.00
H394   H     0.96499   0.76992   0.41532   0.00000  Uiso   1.00
H395   H     0.76418   0.98666   0.24366   0.00000  Uiso   1.00
H396   H     0.99644   0.79394   0.21022   0.00000  Uiso   1.00
H397   H     0.96812   0.92603   0.43371   0.00000  Uiso   1.00
H398   H     0.67135   0.91711   0.01140   0.00000  Uiso   1.00
H399   H     0.79967   0.80223   0.08423   0.00000  Uiso   1.00
H400   H     0.72619   0.79866   0.04796   0.00000  Uiso   1.00
H401   H     0.98493   0.77445   0.49460   0.00000  Uiso   1.00
H402   H     0.88850   0.90531   0.38330   0.00000  Uiso   1.00
N403   N     0.98241   0.84741   0.26416   0.00000  Uiso   1.00
N404   N     0.68426   0.81926   0.23584   0.00000  Uiso   1.00
O405   O     0.79464   0.90474   0.24633   0.00000  Uiso   1.00
O406   O     0.67271   0.78684   0.39414   0.00000  Uiso   1.00
O407   O     0.89524   0.91422   0.25587   0.00000  Uiso   1.00
O408   O     0.75848   0.82627   0.31840   0.00000  Uiso   1.00
O409   O     0.85908   0.83575   0.32793   0.00000  Uiso   1.00
O410   O     0.77142   0.75245   0.24414   0.00000  Uiso   1.00
O411   O     0.87203   0.76193   0.25367   0.00000  Uiso   1.00
O412   O     0.80758   0.83092   0.17207   0.00000  Uiso   1.00
O413   O     0.90819   0.84040   0.18161   0.00000  Uiso   1.00
O414   O     0.67567   0.88055   0.29780   0.00000  Uiso   1.00
C415   C     0.18178   0.26673   0.75160   0.00000  Uiso   1.00
C416   C     0.11136   0.16363   0.90377   0.00000  Uiso   1.00
C417   C     0.19022   0.32275   0.75242   0.00000  Uiso   1.00
C418   C     0.13292   0.16536   0.84737   0.00000  Uiso   1.00
C419   C     0.14299   0.01058   0.74790   0.00000  Uiso   1.00
C420   C     0.15150   0.06660   0.74854   0.00000  Uiso   1.00
C421   C     0.20052   0.17030   0.65298   0.00000  Uiso   1.00
C422   C     0.29247   0.22586   0.52681   0.00000  Uiso   1.00
C423   C     0.22086   0.17861   0.59790   0.00000  Uiso   1.00
C424   C     0.04926   0.13716   0.92507   0.00000  Uiso   1.00
C425   C     0.03242   0.12747   0.97747   0.00000  Uiso   1.00
C426   C     0.13896   0.16775   0.98809   0.00000  Uiso   1.00
C427   C     0.07657   0.14124   0.50818   0.00000  Uiso   1.00
C428   C     0.15434   0.18339   0.93652   0.00000  Uiso   1.00
C429   C     0.18625   0.18036   0.51788   0.00000  Uiso   1.00
C430   C     0.24578   0.21260   0.99752   0.00000  Uiso   1.00
C431   C     0.25729   0.23272   0.94888   0.00000  Uiso   1.00
C432   C     0.21189   0.21922   0.91927   0.00000  Uiso   1.00
C433   C     0.17613   0.16203   0.56752   0.00000  Uiso   1.00
C434   C     0.27990   0.20929   0.57701   0.00000  Uiso   1.00
Cu435  Cu    0.10710   0.16105   0.74436   0.00000  Uiso   1.00
Cu436  Cu    0.22623   0.17228   0.75565   0.00000  Uiso   1.00
H437   H     0.31508   0.22243   0.60007   0.00000  Uiso   1.00
H438   H     0.23569   0.01334   0.75668   0.00000  Uiso   1.00
H439   H     0.30967   0.23297   0.81495   0.00000  Uiso   1.00
H440   H     0.29832   0.10325   0.91532   0.00000  Uiso   1.00
H441   H     0.09752   0.31999   0.74366   0.00000  Uiso   1.00
H442   H     0.32977   0.12728   0.71022   0.00000  Uiso   1.00
H443   H     0.30145   0.25936   0.93371   0.00000  Uiso   1.00
H444   H     0.00468   0.25044   0.51140   0.00000  Uiso   1.00
H445   H     0.13300   0.13556   0.58423   0.00000  Uiso   1.00
H446   H     0.05952   0.13200   0.54796   0.00000  Uiso   1.00
H447   H     0.31826   0.10778   0.99460   0.00000  Uiso   1.00
H448   H     0.22183   0.23864   0.88330   0.00000  Uiso   1.00
N449   N     0.31574   0.18074   0.76416   0.00000  Uiso   1.00
N450   N     0.01759   0.15259   0.73584   0.00000  Uiso   1.00
O451   O     0.12797   0.23807   0.74633   0.00000  Uiso   1.00
O452   O     0.00605   0.12017   0.89414   0.00000  Uiso   1.00
O453   O     0.22858   0.24755   0.75587   0.00000  Uiso   1.00
O454   O     0.09181   0.15960   0.81840   0.00000  Uiso   1.00
O455   O     0.19242   0.16908   0.82793   0.00000  Uiso   1.00
O456   O     0.10476   0.08578   0.74414   0.00000  Uiso   1.00
O457   O     0.20536   0.09526   0.75367   0.00000  Uiso   1.00
O458   O     0.14092   0.16425   0.67207   0.00000  Uiso   1.00
O459   O     0.24152   0.17373   0.68161   0.00000  Uiso   1.00
O460   O     0.00900   0.21388   0.79780   0.00000  Uiso   1.00
C461   C     0.51511   0.26673   0.75160   0.00000  Uiso   1.00
C462   C     0.44469   0.16363   0.90377   0.00000  Uiso   1.00
C463   C     0.52356   0.32275   0.75242   0.00000  Uiso   1.00
C464   C     0.46626   0.16536   0.84737   0.00000  Uiso   1.00
C465   C     0.47632   0.01058   0.74790   0.00000  Uiso   1.00
C466   C     0.48483   0.06660   0.74854   0.00000  Uiso   1.00
C467   C     0.53386   0.17030   0.65298   0.00000  Uiso   1.00
C468   C     0.62580   0.22586   0.52681   0.00000  Uiso   1.00
C469   C     0.55419   0.17861   0.59790   0.00000  Uiso   1.00
C470   C     0.38259   0.13716   0.92507   0.00000  Uiso   1.00
C471   C     0.36575   0.12747   0.97747   0.00000  Uiso   1.00
C472   C     0.47229   0.16775   0.98809   0.00000  Uiso   1.00
C473   C     0.40990   0.14124   0.50818   0.00000  Uiso   1.00
C474   C     0.48768   0.18339   0.93652   0.00000  Uiso   1.00
C475   C     0.51958   0.18036   0.51788   0.00000  Uiso   1.00
C476   C     0.57911   0.21260   0.99752   0.00000  Uiso   1.00
C477   C     0.59062   0.23272   0.94888   0.00000  Uiso   1.00
C478   C     0.54523   0.21922   0.91927   0.00000  Uiso   1.00
C479   C     0.50946   0.16203   0.56752   0.00000  Uiso   1.00
C480   C     0.61323   0.20929   0.57701   0.00000  Uiso   1.00
Cu481  Cu    0.44043   0.16105   0.74436   0.00000  Uiso   1.00
Cu482  Cu    0.55957   0.17228   0.75565   0.00000  Uiso   1.00
H483   H     0.64841   0.22243   0.60007   0.00000  Uiso   1.00
H484   H     0.56902   0.01334   0.75668   0.00000  Uiso   1.00
H485   H     0.64300   0.23297   0.81495   0.00000  Uiso   1.00
H486   H     0.63166   0.10325   0.91532   0.00000  Uiso   1.00
H487   H     0.43085   0.31999   0.74366   0.00000  Uiso   1.00
H488   H     0.66311   0.12728   0.71022   0.00000  Uiso   1.00
H489   H     0.63478   0.25936   0.93371   0.00000  Uiso   1.00
H490   H     0.33801   0.25044   0.51140   0.00000  Uiso   1.00
H491   H     0.46634   0.13556   0.58423   0.00000  Uiso   1.00
H492   H     0.39286   0.13200   0.54796   0.00000  Uiso   1.00
H493   H     0.65160   0.10778   0.99460   0.00000  Uiso   1.00
H494   H     0.55516   0.23864   0.88330   0.00000  Uiso   1.00
N495   N     0.64908   0.18074   0.76416   0.00000  Uiso   1.00
N496   N     0.35092   0.15259   0.73584   0.00000  Uiso   1.00
O497   O     0.46131   0.23807   0.74633   0.00000  Uiso   1.00
O498   O     0.33938   0.12017   0.89414   0.00000  Uiso   1.00
O499   O     0.56191   0.24755   0.75587   0.00000  Uiso   1.00
O500   O     0.42515   0.15960   0.81840   0.00000  Uiso   1.00
O501   O     0.52575   0.16908   0.82793   0.00000  Uiso   1.00
O502   O     0.43809   0.08578   0.74414   0.00000  Uiso   1.00
O503   O     0.53869   0.09526   0.75367   0.00000  Uiso   1.00
O504   O     0.47425   0.16425   0.67207   0.00000  Uiso   1.00
O505   O     0.57485   0.17373   0.68161   0.00000  Uiso   1.00
O506   O     0.34233   0.21388   0.79780   0.00000  Uiso   1.00
C507   C     0.84844   0.26673   0.75160   0.00000  Uiso   1.00
C508   C     0.77803   0.16363   0.90377   0.00000  Uiso   1.00
C509   C     0.85689   0.32275   0.75242   0.00000  Uiso   1.00
C510   C     0.79959   0.16536   0.84737   0.00000  Uiso   1.00
C511   C     0.80966   0.01058   0.74790   0.00000  Uiso   1.00
C512   C     0.81817   0.06660   0.74854   0.00000  Uiso   1.00
C513   C     0.86719   0.17030   0.65298   0.00000  Uiso   1.00
C514   C     0.95914   0.22586   0.52681   0.00000  Uiso   1.00
C515   C     0.88753   0.17861   0.59790   0.00000  Uiso   1.00
C516   C     0.71592   0.13716   0.92507   0.00000  Uiso   1.00
C517   C     0.69909   0.12747   0.97747   0.00000  Uiso   1.00
C518   C     0.80563   0.16775   0.98809   0.00000  Uiso   1.00
C519   C     0.74323   0.14124   0.50818   0.00000  Uiso   1.00
C520   C     0.82101   0.18339   0.93652   0.00000  Uiso   1.00
C521   C     0.85292   0.18036   0.51788   0.00000  Uiso   1.00
C522   C     0.91244   0.21260   0.99752   0.00000  Uiso   1.00
C523   C     0.92395   0.23272   0.94888   0.00000  Uiso   1.00
C524   C     0.87856   0.21922   0.91927   0.00000  Uiso   1.00
C525   C     0.84279   0.16203   0.56752   0.00000  Uiso   1.00
C526   C     0.94656   0.20929   0.57701   0.00000  Uiso   1.00
Cu527  Cu    0.77377   0.16105   0.74436   0.00000  Uiso   1.00
Cu528  Cu    0.89290   0.17228   0.75565   0.00000  Uiso   1.00
H529   H     0.98174   0.22243   0.60007   0.00000  Uiso   1.00
H530   H     0.90235   0.01334   0.75668   0.00000  Uiso   1.00
H531   H     0.97633   0.23297   0.81495   0.00000  Uiso   1.00
H532   H     0.96499   0.10325   0.91532   0.00000  Uiso   1.00
H533   H     0.76418   0.31999   0.74366   0.00000  Uiso   1.00
H534   H     0.99644   0.12728   0.71022   0.00000  Uiso   1.00
H535   H     0.96812   0.25936   0.93371   0.00000  Uiso   1.00
H536   H     0.67135   0.25044   0.51140   0.00000  Uiso   1.00
H537   H     0.79967   0.13556   0.58423   0.00000  Uiso   1.00
H538   H     0.72619   0.13200   0.54796   0.00000  Uiso   1.00
H539   H     0.98493   0.10778   0.99460   0.00000  Uiso   1.00
H540   H     0.88850   0.23864   0.88330   0.00000  Uiso   1.00
N541   N     0.98241   0.18074   0.76416   0.00000  Uiso   1.00
N542   N     0.68426   0.15259   0.73584   0.00000  Uiso   1.00
O543   O     0.79464   0.23807   0.74633   0.00000  Uiso   1.00
O544   O     0.67271   0.12017   0.89414   0.00000  Uiso   1.00
O545   O     0.89524   0.24755   0.75587   0.00000  Uiso   1.00
O546   O     0.75848   0.15960   0.81840   0.00000  Uiso   1.00
O547   O     0.85908   0.16908   0.82793   0.00000  Uiso   1.00
O548   O     0.77142   0.08578   0.74414   0.00000  Uiso   1.00
O549   O     0.87203   0.09526   0.75367   0.00000  Uiso   1.00
O550   O     0.80758   0.16425   0.67207   0.00000  Uiso   1.00
O551   O     0.90819   0.17373   0.68161   0.00000  Uiso   1.00
O552   O     0.67567   0.21388   0.79780   0.00000  Uiso   1.00
C553   C     0.18178   0.60007   0.75160   0.00000  Uiso   1.00
C554   C     0.11136   0.49696   0.90377   0.00000  Uiso   1.00
C555   C     0.19022   0.65608   0.75242   0.00000  Uiso   1.00
C556   C     0.13292   0.49870   0.84737   0.00000  Uiso   1.00
C557   C     0.14299   0.34391   0.74790   0.00000  Uiso   1.00
C558   C     0.15150   0.39993   0.74854   0.00000  Uiso   1.00
C559   C     0.20052   0.50364   0.65298   0.00000  Uiso   1.00
C560   C     0.29247   0.55919   0.52681   0.00000  Uiso   1.00
C561   C     0.22086   0.51195   0.59790   0.00000  Uiso   1.00
C562   C     0.04926   0.47049   0.92507   0.00000  Uiso   1.00
C563   C     0.03242   0.46080   0.97747   0.00000  Uiso   1.00
C564   C     0.13896   0.50108   0.98809   0.00000  Uiso   1.00
C565   C     0.07657   0.47458   0.50818   0.00000  Uiso   1.00
C566   C     0.15434   0.51672   0.93652   0.00000  Uiso   1.00
C567   C     0.18625   0.51369   0.51788   0.00000  Uiso   1.00
C568   C     0.24578   0.54593   0.99752   0.00000  Uiso   1.00
C569   C     0.25729   0.56605   0.94888   0.00000  Uiso   1.00
C570   C     0.21189   0.55255   0.91927   0.00000  Uiso   1.00
C571   C     0.17613   0.49536   0.56752   0.00000  Uiso   1.00
C572   C     0.27990   0.54263   0.57701   0.00000  Uiso   1.00
Cu573  Cu    0.10710   0.49439   0.74436   0.00000  Uiso   1.00
Cu574  Cu    0.22623   0.50561   0.75565   0.00000  Uiso   1.00
H575   H     0.31508   0.55576   0.60007   0.00000  Uiso   1.00
H576   H     0.23569   0.34667   0.75668   0.00000  Uiso   1.00
H577   H     0.30967   0.56630   0.81495   0.00000  Uiso   1.00
H578   H     0.29832   0.43659   0.91532   0.00000  Uiso   1.00
H579   H     0.09752   0.65332   0.74366   0.00000  Uiso   1.00
H580   H     0.32977   0.46061   0.71022   0.00000  Uiso   1.00
H581   H     0.30145   0.59269   0.93371   0.00000  Uiso   1.00
H582   H     0.00468   0.58377   0.51140   0.00000  Uiso   1.00
H583   H     0.13300   0.46889   0.58423   0.00000  Uiso   1.00
H584   H     0.05952   0.46533   0.54796   0.00000  Uiso   1.00
H585   H     0.31826   0.44112   0.99460   0.00000  Uiso   1.00
H586   H     0.22183   0.57198   0.88330   0.00000  Uiso   1.00
N587   N     0.31574   0.51407   0.76416   0.00000  Uiso   1.00
N588   N     0.01759   0.48593   0.73584   0.00000  Uiso   1.00
O589   O     0.12797   0.57141   0.74633   0.00000  Uiso   1.00
O590   O     0.00605   0.45351   0.89414   0.00000  Uiso   1.00
O591   O     0.22858   0.58089   0.75587   0.00000  Uiso   1.00
O592   O     0.09181   0.49293   0.81840   0.00000  Uiso   1.00
O593   O     0.19242   0.50241   0.82793   0.00000  Uiso   1.00
O594   O     0.10476   0.41911   0.74414   0.00000  Uiso   1.00
O595   O     0.20536   0.42859   0.75367   0.00000  Uiso   1.00
O596   O     0.14092   0.49759   0.67207   0.00000  Uiso   1.00
O597   O     0.24152   0.50707   0.68161   0.00000  Uiso   1.00
O598   O     0.00900   0.54721   0.79780   0.00000  Uiso   1.00
C599   C     0.51511   0.60007   0.75160   0.00000  Uiso   1.00
C600   C     0.44469   0.49696   0.90377   0.00000  Uiso   1.00
C601   C     0.52356   0.65608   0.75242   0.00000  Uiso   1.00
C602   C     0.46626   0.49870   0.84737   0.00000  Uiso   1.00
C603   C     0.47632   0.34391   0.74790   0.00000  Uiso   1.00
C604   C     0.48483   0.39993   0.74854   0.00000  Uiso   1.00
C605   C     0.53386   0.50364   0.65298   0.00000  Uiso   1.00
C606   C     0.62580   0.55919   0.52681   0.00000  Uiso   1.00
C607   C     0.55419   0.51195   0.59790   0.00000  Uiso   1.00
C608   C     0.38259   0.47049   0.92507   0.00000  Uiso   1.00
C609   C     0.36575   0.46080   0.97747   0.00000  Uiso   1.00
C610   C     0.47229   0.50108   0.98809   0.00000  Uiso   1.00
C611   C     0.40990   0.47458   0.50818   0.00000  Uiso   1.00
C612   C     0.48768   0.51672   0.93652   0.00000  Uiso   1.00
C613   C     0.51958   0.51369   0.51788   0.00000  Uiso   1.00
C614   C     0.57911   0.54593   0.99752   0.00000  Uiso   1.00
C615   C     0.59062   0.56605   0.94888   0.00000  Uiso   1.00
C616   C     0.54523   0.55255   0.91927   0.00000  Uiso   1.00
C617   C     0.50946   0.49536   0.56752   0.00000  Uiso   1.00
C618   C     0.61323   0.54263   0.57701   0.00000  Uiso   1.00
Cu619  Cu    0.44043   0.49439   0.74436   0.00000  Uiso   1.00
Cu620  Cu    0.55957   0.50561   0.75565   0.00000  Uiso   1.00
H621   H     0.64841   0.55576   0.60007   0.00000  Uiso   1.00
H622   H     0.56902   0.34667   0.75668   0.00000  Uiso   1.00
H623   H     0.64300   0.56630   0.81495   0.00000  Uiso   1.00
H624   H     0.63166   0.43659   0.91532   0.00000  Uiso   1.00
H625   H     0.43085   0.65332   0.74366   0.00000  Uiso   1.00
H626   H     0.66311   0.46061   0.71022   0.00000  Uiso   1.00
H627   H     0.63478   0.59269   0.93371   0.00000  Uiso   1.00
H628   H     0.33801   0.58377   0.51140   0.00000  Uiso   1.00
H629   H     0.46634   0.46889   0.58423   0.00000  Uiso   1.00
H630   H     0.39286   0.46533   0.54796   0.00000  Uiso   1.00
H631   H     0.65160   0.44112   0.99460   0.00000  Uiso   1.00
H632   H     0.55516   0.57198   0.88330   0.00000  Uiso   1.00
N633   N     0.64908   0.51407   0.76416   0.00000  Uiso   1.00
N634   N     0.35092   0.48593   0.73584   0.00000  Uiso   1.00
O635   O     0.46131   0.57141   0.74633   0.00000  Uiso   1.00
O636   O     0.33938   0.45351   0.89414   0.00000  Uiso   1.00
O637   O     0.56191   0.58089   0.75587   0.00000  Uiso   1.00
O638   O     0.42515   0.49293   0.81840   0.00000  Uiso   1.00
O639   O     0.52575   0.50241   0.82793   0.00000  Uiso   1.00
O640   O     0.43809   0.41911   0.74414   0.00000  Uiso   1.00
O641   O     0.53869   0.42859   0.75367   0.00000  Uiso   1.00
O642   O     0.47425   0.49759   0.67207   0.00000  Uiso   1.00
O643   O     0.57485   0.50707   0.68161   0.00000  Uiso   1.00
O644   O     0.34233   0.54721   0.79780   0.00000  Uiso   1.00
C645   C     0.84844   0.60007   0.75160   0.00000  Uiso   1.00
C646   C     0.77803   0.49696   0.90377   0.00000  Uiso   1.00
C647   C     0.85689   0.65608   0.75242   0.00000  Uiso   1.00
C648   C     0.79959   0.49870   0.84737   0.00000  Uiso   1.00
C649   C     0.80966   0.34391   0.74790   0.00000  Uiso   1.00
C650   C     0.81817   0.39993   0.74854   0.00000  Uiso   1.00
C651   C     0.86719   0.50364   0.65298   0.00000  Uiso   1.00
C652   C     0.95914   0.55919   0.52681   0.00000  Uiso   1.00
C653   C     0.88753   0.51195   0.59790   0.00000  Uiso   1.00
C654   C     0.71592   0.47049   0.92507   0.00000  Uiso   1.00
C655   C     0.69909   0.46080   0.97747   0.00000  Uiso   1.00
C656   C     0.80563   0.50108   0.98809   0.00000  Uiso   1.00
C657   C     0.74323   0.47458   0.50818   0.00000  Uiso   1.00
C658   C     0.82101   0.51672   0.93652   0.00000  Uiso   1.00
C659   C     0.85292   0.51369   0.51788   0.00000  Uiso   1.00
C660   C     0.91244   0.54593   0.99752   0.00000  Uiso   1.00
C661   C     0.92395   0.56605   0.94888   0.00000  Uiso   1.00
C662   C     0.87856   0.55255   0.91927   0.00000  Uiso   1.00
C663   C     0.84279   0.49536   0.56752   0.00000  Uiso   1.00
C664   C     0.94656   0.54263   0.57701   0.00000  Uiso   1.00
Cu665  Cu    0.77377   0.49439   0.74436   0.00000  Uiso   1.00
Cu666  Cu    0.89290   0.50561   0.75565   0.00000  Uiso   1.00
H667   H     0.98174   0.55576   0.60007   0.00000  Uiso   1.00
H668   H     0.90235   0.34667   0.75668   0.00000  Uiso   1.00
H669   H     0.97633   0.56630   0.81495   0.00000  Uiso   1.00
H670   H     0.96499   0.43659   0.91532   0.00000  Uiso   1.00
H671   H     0.76418   0.65332   0.74366   0.00000  Uiso   1.00
H672   H     0.99644   0.46061   0.71022   0.00000  Uiso   1.00
H673   H     0.96812   0.59269   0.93371   0.00000  Uiso   1.00
H674   H     0.67135   0.58377   0.51140   0.00000  Uiso   1.00
H675   H     0.79967   0.46889   0.58423   0.00000  Uiso   1.00
H676   H     0.72619   0.46533   0.54796   0.00000  Uiso   1.00
H677   H     0.98493   0.44112   0.99460   0.00000  Uiso   1.00
H678   H     0.88850   0.57198   0.88330   0.00000  Uiso   1.00
N679   N     0.98241   0.51407   0.76416   0.00000  Uiso   1.00
N680   N     0.68426   0.48593   0.73584   0.00000  Uiso   1.00
O681   O     0.79464   0.57141   0.74633   0.00000  Uiso   1.00
O682   O     0.67271   0.45351   0.89414   0.00000  Uiso   1.00
O683   O     0.89524   0.58089   0.75587   0.00000  Uiso   1.00
O684   O     0.75848   0.49293   0.81840   0.00000  Uiso   1.00
O685   O     0.85908   0.50241   0.82793   0.00000  Uiso   1.00
O686   O     0.77142   0.41911   0.74414   0.00000  Uiso   1.00
O687   O     0.87203   0.42859   0.75367   0.00000  Uiso   1.00
O688   O     0.80758   0.49759   0.67207   0.00000  Uiso   1.00
O689   O     0.90819   0.50707   0.68161   0.00000  Uiso   1.00
O690   O     0.67567   0.54721   0.79780   0.00000  Uiso   1.00
C691   C     0.18178   0.93340   0.75160   0.00000  Uiso   1.00
C692   C     0.11136   0.83030   0.90377   0.00000  Uiso   1.00
C693   C     0.19022   0.98941   0.75242   0.00000  Uiso   1.00
C694   C     0.13292   0.83203   0.84737   0.00000  Uiso   1.00
C695   C     0.14299   0.67725   0.74790   0.00000  Uiso   1.00
C696   C     0.15150   0.73327   0.74854   0.00000  Uiso   1.00
C697   C     0.20052   0.83697   0.65298   0.00000  Uiso   1.00
C698   C     0.29247   0.89253   0.52681   0.00000  Uiso   1.00
C699   C     0.22086   0.84528   0.59790   0.00000  Uiso   1.00
C700   C     0.04926   0.80383   0.92507   0.00000  Uiso   1.00
C701   C     0.03242   0.79414   0.97747   0.00000  Uiso   1.00
C702   C     0.13896   0.83442   0.98809   0.00000  Uiso   1.00
C703   C     0.07657   0.80791   0.50818   0.00000  Uiso   1.00
C704   C     0.15434   0.85006   0.93652   0.00000  Uiso   1.00
C705   C     0.18625   0.84702   0.51788   0.00000  Uiso   1.00
C706   C     0.24578   0.87927   0.99752   0.00000  Uiso   1.00
C707   C     0.25729   0.89938   0.94888   0.00000  Uiso   1.00
C708   C     0.21189   0.88588   0.91927   0.00000  Uiso   1.00
C709   C     0.17613   0.82870   0.56752   0.00000  Uiso   1.00
C710   C     0.27990   0.87596   0.57701   0.00000  Uiso   1.00
Cu711  Cu    0.10710   0.82772   0.74436   0.00000  Uiso   1.00
Cu712  Cu    0.22623   0.83895   0.75565   0.00000  Uiso   1.00
H713   H     0.31508   0.88909   0.60007   0.00000  Uiso   1.00
H714   H     0.23569   0.68000   0.75668   0.00000  Uiso   1.00
H715   H     0.30967   0.89963   0.81495   0.00000  Uiso   1.00
H716   H     0.29832   0.76992   0.91532   0.00000  Uiso   1.00
H717   H     0.09752   0.98666   0.74366   0.00000  Uiso   1.00
H718   H     0.32977   0.79394   0.71022   0.00000  Uiso   1.00
H719   H     0.30145   0.92603   0.93371   0.00000  Uiso   1.00
H720   H     0.00468   0.91711   0.51140   0.00000  Uiso   1.00
H721   H     0.13300   0.80223   0.58423   0.00000  Uiso   1.00
H722   H     0.05952   0.79866   0.54796   0.00000  Uiso   1.00
H723   H     0.31826   0.77445   0.99460   0.00000  Uiso   1.00
H724   H     0.22183   0.90531   0.88330   0.00000  Uiso   1.00
N725   N     0.31574   0.84741   0.76416   0.00000  Uiso   1.00
N726   N     0.01759   0.81926   0.73584   0.00000  Uiso   1.00
O727   O     0.12797   0.90474   0.74633   0.00000  Uiso   1.00
O728   O     0.00605   0.78684   0.89414   0.00000  Uiso   1.00
O729   O     0.22858   0.91422   0.75587   0.00000  Uiso   1.00
O730   O     0.09181   0.82627   0.81840   0.00000  Uiso   1.00
O731   O     0.19242   0.83575   0.82793   0.00000  Uiso   1.00
O732   O     0.10476   0.75245   0.74414   0.00000  Uiso   1.00
O733   O     0.20536   0.76193   0.75367   0.00000  Uiso   1.00
O734   O     0.14092   0.83092   0.67207   0.00000  Uiso   1.00
O735   O     0.24152   0.84040   0.68161   0.00000  Uiso   1.00
O736   O     0.00900   0.88055   0.79780   0.00000  Uiso   1.00
C737   C     0.51511   0.93340   0.75160   0.00000  Uiso   1.00
C738   C     0.44469   0.83030   0.90377   0.00000  Uiso   1.00
C739   C     0.52356   0.98941   0.75242   0.00000  Uiso   1.00
C740   C     0.46626   0.83203   0.84737   0.00000  Uiso   1.00
C741   C     0.47632   0.67725   0.74790   0.00000  Uiso   1.00
C742   C     0.48483   0.73327   0.74854   0.00000  Uiso   1.00
C743   C     0.53386   0.83697   0.65298   0.00000  Uiso   1.00
C744   C     0.62580   0.89253   0.52681   0.00000  Uiso   1.00
C745   C     0.55419   0.84528   0.59790   0.00000  Uiso   1.00
C746   C     0.38259   0.80383   0.92507   0.00000  Uiso   1.00
C747   C     0.36575   0.79414   0.97747   0.00000  Uiso   1.00
C748   C     0.47229   0.83442   0.98809   0.00000  Uiso   1.00
C749   C     0.40990   0.80791   0.50818   0.00000  Uiso   1.00
C750   C     0.48768   0.85006   0.93652   0.00000  Uiso   1.00
C751   C     0.51958   0.84702   0.51788   0.00000  Uiso   1.00
C752   C     0.57911   0.87927   0.99752   0.00000  Uiso   1.00
C753   C     0.59062   0.89938   0.94888   0.00000  Uiso   1.00
C754   C     0.54523   0.88588   0.91927   0.00000  Uiso   1.00
C755   C     0.50946   0.82870   0.56752   0.00000  Uiso   1.00
C756   C     0.61323   0.87596   0.57701   0.00000  Uiso   1.00
Cu757  Cu    0.44043   0.82772   0.74436   0.00000  Uiso   1.00
Cu758  Cu    0.55957   0.83895   0.75565   0.00000  Uiso   1.00
H759   H     0.64841   0.88909   0.60007   0.00000  Uiso   1.00
H760   H     0.56902   0.68000   0.75668   0.00000  Uiso   1.00
H761   H     0.64300   0.89963   0.81495   0.00000  Uiso   1.00
H762   H     0.63166   0.76992   0.91532   0.00000  Uiso   1.00
H763   H     0.43085   0.98666   0.74366   0.00000  Uiso   1.00
H764   H     0.66311   0.79394   0.71022   0.00000  Uiso   1.00
H765   H     0.63478   0.92603   0.93371   0.00000  Uiso   1.00
H766   H     0.33801   0.91711   0.51140   0.00000  Uiso   1.00
H767   H     0.46634   0.80223   0.58423   0.00000  Uiso   1.00
H768   H     0.39286   0.79866   0.54796   0.00000  Uiso   1.00
H769   H     0.65160   0.77445   0.99460   0.00000  Uiso   1.00
H770   H     0.55516   0.90531   0.88330   0.00000  Uiso   1.00
N771   N     0.64908   0.84741   0.76416   0.00000  Uiso   1.00
N772   N     0.35092   0.81926   0.73584   0.00000  Uiso   1.00
O773   O     0.46131   0.90474   0.74633   0.00000  Uiso   1.00
O774   O     0.33938   0.78684   0.89414   0.00000  Uiso   1.00
O775   O     0.56191   0.91422   0.75587   0.00000  Uiso   1.00
O776   O     0.42515   0.82627   0.81840   0.00000  Uiso   1.00
O777   O     0.52575   0.83575   0.82793   0.00000  Uiso   1.00
O778   O     0.43809   0.75245   0.74414   0.00000  Uiso   1.00
O779   O     0.53869   0.76193   0.75367   0.00000  Uiso   1.00
O780   O     0.47425   0.83092   0.67207   0.00000  Uiso   1.00
O781   O     0.57485   0.84040   0.68161   0.00000  Uiso   1.00
O782   O     0.34233   0.88055   0.79780   0.00000  Uiso   1.00
C783   C     0.84844   0.93340   0.75160   0.00000  Uiso   1.00
C784   C     0.77803   0.83030   0.90377   0.00000  Uiso   1.00
C785   C     0.85689   0.98941   0.75242   0.00000  Uiso   1.00
C786   C     0.79959   0.83203   0.84737   0.00000  Uiso   1.00
C787   C     0.80966   0.67725   0.74790   0.00000  Uiso   1.00
C788   C     0.81817   0.73327   0.74854   0.00000  Uiso   1.00
C789   C     0.86719   0.83697   0.65298   0.00000  Uiso   1.00
C790   C     0.95914   0.89253   0.52681   0.00000  Uiso   1.00
C791   C     0.88753   0.84528   0.59790   0.00000  Uiso   1.00
C792   C     0.71592   0.80383   0.92507   0.00000  Uiso   1.00
C793   C     0.69909   0.79414   0.97747   0.00000  Uiso   1.00
C794   C     0.80563   0.83442   0.98809   0.00000  Uiso   1.00
C795   C     0.74323   0.80791   0.50818   0.00000  Uiso   1.00
C796   C     0.82101   0.85006   0.93652   0.00000  Uiso   1.00
C797   C     0.85292   0.84702   0.51788   0.00000  Uiso   1.00
C798   C     0.91244   0.87927   0.99752   0.00000  Uiso   1.00
C799   C     0.92395   0.89938   0.94888   0.00000  Uiso   1.00
C800   C     0.87856   0.88588   0.91927   0.00000  Uiso   1.00
C801   C     0.84279   0.82870   0.56752   0.00000  Uiso   1.00
C802   C     0.94656   0.87596   0.57701   0.00000  Uiso   1.00
Cu803  Cu    0.77377   0.82772   0.74436   0.00000  Uiso   1.00
Cu804  Cu    0.89290   0.83895   0.75565   0.00000  Uiso   1.00
H805   H     0.98174   0.88909   0.60007   0.00000  Uiso   1.00
H806   H     0.90235   0.68000   0.75668   0.00000  Uiso   1.00
H807   H     0.97633   0.89963   0.81495   0.00000  Uiso   1.00
H808   H     0.96499   0.76992   0.91532   0.00000  Uiso   1.00
H809   H     0.76418   0.98666   0.74366   0.00000  Uiso   1.00
H810   H     0.99644   0.79394   0.71022   0.00000  Uiso   1.00
H811   H     0.96812   0.92603   0.93371   0.00000  Uiso   1.00
H812   H     0.67135   0.91711   0.51140   0.00000  Uiso   1.00
H813   H     0.79967   0.80223   0.58423   0.00000  Uiso   1.00
H814   H     0.72619   0.79866   0.54796   0.00000  Uiso   1.00
H815   H     0.98493   0.77445   0.99460   0.00000  Uiso   1.00
H816   H     0.88850   0.90531   0.88330   0.00000  Uiso   1.00
N817   N     0.98241   0.84741   0.76416   0.00000  Uiso   1.00
N818   N     0.68426   0.81926   0.73584   0.00000  Uiso   1.00
O819   O     0.79464   0.90474   0.74633   0.00000  Uiso   1.00
O820   O     0.67271   0.78684   0.89414   0.00000  Uiso   1.00
O821   O     0.89524   0.91422   0.75587   0.00000  Uiso   1.00
O822   O     0.75848   0.82627   0.81840   0.00000  Uiso   1.00
O823   O     0.85908   0.83575   0.82793   0.00000  Uiso   1.00
O824   O     0.77142   0.75245   0.74414   0.00000  Uiso   1.00
O825   O     0.87203   0.76193   0.75367   0.00000  Uiso   1.00
O826   O     0.80758   0.83092   0.67207   0.00000  Uiso   1.00
O827   O     0.90819   0.84040   0.68161   0.00000  Uiso   1.00
O828   O     0.67567   0.88055   0.79780   0.00000  Uiso   1.00
loop_
_geom_bond_atom_site_label_1
_geom_bond_atom_site_label_2
_geom_bond_distance
_geom_bond_site_symmetry_2
_ccdc_geom_bond_type
C1     O37     1.292   .     A
C1     O39     1.288   .     A
C1     C3      1.428   .     S
C2     C4      1.484   .     S
C2     C14     1.424   .     A
C2     C10     1.415   .     A
C3     C143    1.329   .     S
C3     H162    1.088   .     S
C4     O41     1.302   .     A
C4     O40     1.303   .     A
C5     C6      1.428   .     S
C5     C279    1.329   1_545 S
C5     H303    1.088   1_545 S
C6     O43     1.292   .     A
C6     O42     1.288   .     A
C7     O44     1.296   .     A
C7     O45     1.302   .     A
C7     C9      1.464   .     S
C8     C20     1.394   .     A
C8     C430    1.405   1_554 S
C8     H76     1.084   .     S
C9     C20     1.399   .     A
C9     C19     1.397   .     A
C10    O38     1.383   .     S
C10    C11     1.399   .     A
C11    C427    1.388   .     S
C11    H125    1.083   1_455 S
C12    C14     1.418   .     A
C12    C427    1.414   .     S
C12    C429    1.425   .     S
C13    H32     1.077   .     S
C13    C426    1.414   1_554 S
C13    C425    1.388   1_554 S
C14    C18     1.413   .     A
C15    C19     1.402   .     A
C15    C426    1.425   1_554 S
C15    C430    1.419   1_554 S
C16    C17     1.392   .     A
C16    C429    1.419   .     S
C16    C422    1.405   .     S
C17    C18     1.388   .     A
C17    H29     1.084   .     S
C18    H34     1.079   .     S
C19    H31     1.077   .     S
C20    H23     1.083   .     S
Cu21   O44     1.920   .     S
Cu21   N36     2.023   .     S
Cu21   O40     1.940   .     S
Cu21   Cu22    2.692   .     S
Cu21   O42     1.951   .     S
Cu21   O37     1.954   .     S
Cu22   N35     2.023   .     S
Cu22   O39     1.951   .     S
Cu22   O41     1.920   .     S
Cu22   O45     1.940   .     S
Cu22   O43     1.954   .     S
H24    C279    1.088   1_545 S
H25    O92     0.989   .     S
H26    O84     0.992   .     S
H27    C143    1.088   .     S
H28    N82     1.029   .     S
H30    C100    1.084   1_455 S
H33    C57     1.083   .     S
N35    N82     1.285   .     S
N35    O92     1.338   .     S
N36    N127    1.285   1_455 S
N36    H120    1.029   1_455 S
O38    H118    0.992   1_455 S
O46    N127    1.338   1_455 S
O46    H117    0.989   1_455 S
C47    O83     1.292   .     A
C47    O85     1.288   .     A
C47    C49     1.428   .     S
C48    C50     1.484   .     S
C48    C60     1.424   .     A
C48    C56     1.415   .     A
C49    C189    1.329   .     S
C49    H208    1.088   .     S
C50    O87     1.302   .     A
C50    O86     1.303   .     A
C51    C52     1.428   .     S
C51    C325    1.329   1_545 S
C51    H349    1.088   1_545 S
C52    O89     1.292   .     A
C52    O88     1.288   .     A
C53    O90     1.296   .     A
C53    O91     1.302   .     A
C53    C55     1.464   .     S
C54    C66     1.394   .     A
C54    C476    1.405   1_554 S
C54    H122    1.084   .     S
C55    C66     1.399   .     A
C55    C65     1.397   .     A
C56    O84     1.383   .     S
C56    C57     1.399   .     A
C57    C473    1.388   .     S
C58    C60     1.418   .     A
C58    C473    1.414   .     S
C58    C475    1.425   .     S
C59    H78     1.077   .     S
C59    C472    1.414   1_554 S
C59    C471    1.388   1_554 S
C60    C64     1.413   .     A
C61    C65     1.402   .     A
C61    C472    1.425   1_554 S
C61    C476    1.419   1_554 S
C62    C63     1.392   .     A
C62    C475    1.419   .     S
C62    C468    1.405   .     S
C63    C64     1.388   .     A
C63    H75     1.084   .     S
C64    H80     1.079   .     S
C65    H77     1.077   .     S
C66    H69     1.083   .     S
Cu67   O90     1.920   .     S
Cu67   N82     2.023   .     S
Cu67   O86     1.940   .     S
Cu67   Cu68    2.692   .     S
Cu67   O88     1.951   .     S
Cu67   O83     1.954   .     S
Cu68   N81     2.023   .     S
Cu68   O85     1.951   .     S
Cu68   O87     1.920   .     S
Cu68   O91     1.940   .     S
Cu68   O89     1.954   .     S
H70    C325    1.088   1_545 S
H71    O138    0.989   .     S
H72    O130    0.992   .     S
H73    C189    1.088   .     S
H74    N128    1.029   .     S
H79    C103    1.083   .     S
N81    N128    1.285   .     S
N81    O138    1.338   .     S
C93    O129    1.292   .     A
C93    O131    1.288   .     A
C93    C95     1.428   .     S
C94    C96     1.484   .     S
C94    C106    1.424   .     A
C94    C102    1.415   .     A
C95    C235    1.329   .     S
C95    H254    1.088   .     S
C96    O133    1.302   .     A
C96    O132    1.303   .     A
C97    C98     1.428   .     S
C97    C371    1.329   1_545 S
C97    H395    1.088   1_545 S
C98    O135    1.292   .     A
C98    O134    1.288   .     A
C99    O136    1.296   .     A
C99    O137    1.302   .     A
C99    C101    1.464   .     S
C100   C112    1.394   .     A
C100   C522    1.405   1_554 S
C100   H30     1.084   1_655 S
C101   C112    1.399   .     A
C101   C111    1.397   .     A
C102   O130    1.383   .     S
C102   C103    1.399   .     A
C103   C519    1.388   .     S
C104   C106    1.418   .     A
C104   C519    1.414   .     S
C104   C521    1.425   .     S
C105   H124    1.077   .     S
C105   C518    1.414   1_554 S
C105   C517    1.388   1_554 S
C106   C110    1.413   .     A
C107   C111    1.402   .     A
C107   C518    1.425   1_554 S
C107   C522    1.419   1_554 S
C108   C109    1.392   .     A
C108   C521    1.419   .     S
C108   C514    1.405   .     S
C109   C110    1.388   .     A
C109   H121    1.084   .     S
C110   H126    1.079   .     S
C111   H123    1.077   .     S
C112   H115    1.083   .     S
Cu113  O136    1.920   .     S
Cu113  N128    2.023   .     S
Cu113  O132    1.940   .     S
Cu113  Cu114   2.692   .     S
Cu113  O134    1.951   .     S
Cu113  O129    1.954   .     S
Cu114  N127    2.023   .     S
Cu114  O131    1.951   .     S
Cu114  O133    1.920   .     S
Cu114  O137    1.940   .     S
Cu114  O135    1.954   .     S
H116   C371    1.088   1_545 S
H117   O46     0.989   1_655 S
H118   O38     0.992   1_655 S
H119   C235    1.088   .     S
H120   N36     1.029   1_655 S
H125   C11     1.083   1_655 S
N127   N36     1.285   1_655 S
N127   O46     1.338   1_655 S
C139   O175    1.292   .     A
C139   O177    1.288   .     A
C139   C141    1.428   .     S
C140   C142    1.484   .     S
C140   C152    1.424   .     A
C140   C148    1.415   .     A
C141   C281    1.329   .     S
C141   H300    1.088   .     S
C142   O179    1.302   .     A
C142   O178    1.303   .     A
C143   C144    1.428   .     S
C144   O181    1.292   .     A
C144   O180    1.288   .     A
C145   O182    1.296   .     A
C145   O183    1.302   .     A
C145   C147    1.464   .     S
C146   C158    1.394   .     A
C146   C568    1.405   1_554 S
C146   H214    1.084   .     S
C147   C158    1.399   .     A
C147   C157    1.397   .     A
C148   O176    1.383   .     S
C148   C149    1.399   .     A
C149   C565    1.388   .     S
C149   H263    1.083   1_455 S
C150   C152    1.418   .     A
C150   C565    1.414   .     S
C150   C567    1.425   .     S
C151   H170    1.077   .     S
C151   C564    1.414   1_554 S
C151   C563    1.388   1_554 S
C152   C156    1.413   .     A
C153   C157    1.402   .     A
C153   C564    1.425   1_554 S
C153   C568    1.419   1_554 S
C154   C155    1.392   .     A
C154   C567    1.419   .     S
C154   C560    1.405   .     S
C155   C156    1.388   .     A
C155   H167    1.084   .     S
C156   H172    1.079   .     S
C157   H169    1.077   .     S
C158   H161    1.083   .     S
Cu159  O182    1.920   .     S
Cu159  N174    2.023   .     S
Cu159  O178    1.940   .     S
Cu159  Cu160   2.692   .     S
Cu159  O180    1.951   .     S
Cu159  O175    1.954   .     S
Cu160  N173    2.023   .     S
Cu160  O177    1.951   .     S
Cu160  O179    1.920   .     S
Cu160  O183    1.940   .     S
Cu160  O181    1.954   .     S
H163   O230    0.989   .     S
H164   O222    0.992   .     S
H165   C281    1.088   .     S
H166   N220    1.029   .     S
H168   C238    1.084   1_455 S
H171   C195    1.083   .     S
N173   N220    1.285   .     S
N173   O230    1.338   .     S
N174   N265    1.285   1_455 S
N174   H258    1.029   1_455 S
O176   H256    0.992   1_455 S
O184   N265    1.338   1_455 S
O184   H255    0.989   1_455 S
C185   O221    1.292   .     A
C185   O223    1.288   .     A
C185   C187    1.428   .     S
C186   C188    1.484   .     S
C186   C198    1.424   .     A
C186   C194    1.415   .     A
C187   C327    1.329   .     S
C187   H346    1.088   .     S
C188   O225    1.302   .     A
C188   O224    1.303   .     A
C189   C190    1.428   .     S
C190   O227    1.292   .     A
C190   O226    1.288   .     A
C191   O228    1.296   .     A
C191   O229    1.302   .     A
C191   C193    1.464   .     S
C192   C204    1.394   .     A
C192   C614    1.405   1_554 S
C192   H260    1.084   .     S
C193   C204    1.399   .     A
C193   C203    1.397   .     A
C194   O222    1.383   .     S
C194   C195    1.399   .     A
C195   C611    1.388   .     S
C196   C198    1.418   .     A
C196   C611    1.414   .     S
C196   C613    1.425   .     S
C197   H216    1.077   .     S
C197   C610    1.414   1_554 S
C197   C609    1.388   1_554 S
C198   C202    1.413   .     A
C199   C203    1.402   .     A
C199   C610    1.425   1_554 S
C199   C614    1.419   1_554 S
C200   C201    1.392   .     A
C200   C613    1.419   .     S
C200   C606    1.405   .     S
C201   C202    1.388   .     A
C201   H213    1.084   .     S
C202   H218    1.079   .     S
C203   H215    1.077   .     S
C204   H207    1.083   .     S
Cu205  O228    1.920   .     S
Cu205  N220    2.023   .     S
Cu205  O224    1.940   .     S
Cu205  Cu206   2.692   .     S
Cu205  O226    1.951   .     S
Cu205  O221    1.954   .     S
Cu206  N219    2.023   .     S
Cu206  O223    1.951   .     S
Cu206  O225    1.920   .     S
Cu206  O229    1.940   .     S
Cu206  O227    1.954   .     S
H209   O276    0.989   .     S
H210   O268    0.992   .     S
H211   C327    1.088   .     S
H212   N266    1.029   .     S
H217   C241    1.083   .     S
N219   N266    1.285   .     S
N219   O276    1.338   .     S
C231   O267    1.292   .     A
C231   O269    1.288   .     A
C231   C233    1.428   .     S
C232   C234    1.484   .     S
C232   C244    1.424   .     A
C232   C240    1.415   .     A
C233   C373    1.329   .     S
C233   H392    1.088   .     S
C234   O271    1.302   .     A
C234   O270    1.303   .     A
C235   C236    1.428   .     S
C236   O273    1.292   .     A
C236   O272    1.288   .     A
C237   O274    1.296   .     A
C237   O275    1.302   .     A
C237   C239    1.464   .     S
C238   C250    1.394   .     A
C238   C660    1.405   1_554 S
C238   H168    1.084   1_655 S
C239   C250    1.399   .     A
C239   C249    1.397   .     A
C240   O268    1.383   .     S
C240   C241    1.399   .     A
C241   C657    1.388   .     S
C242   C244    1.418   .     A
C242   C657    1.414   .     S
C242   C659    1.425   .     S
C243   H262    1.077   .     S
C243   C656    1.414   1_554 S
C243   C655    1.388   1_554 S
C244   C248    1.413   .     A
C245   C249    1.402   .     A
C245   C656    1.425   1_554 S
C245   C660    1.419   1_554 S
C246   C247    1.392   .     A
C246   C659    1.419   .     S
C246   C652    1.405   .     S
C247   C248    1.388   .     A
C247   H259    1.084   .     S
C248   H264    1.079   .     S
C249   H261    1.077   .     S
C250   H253    1.083   .     S
Cu251  O274    1.920   .     S
Cu251  N266    2.023   .     S
Cu251  O270    1.940   .     S
Cu251  Cu252   2.692   .     S
Cu251  O272    1.951   .     S
Cu251  O267    1.954   .     S
Cu252  N265    2.023   .     S
Cu252  O269    1.951   .     S
Cu252  O271    1.920   .     S
Cu252  O275    1.940   .     S
Cu252  O273    1.954   .     S
H255   O184    0.989   1_655 S
H256   O176    0.992   1_655 S
H257   C373    1.088   .     S
H258   N174    1.029   1_655 S
H263   C149    1.083   1_655 S
N265   N174    1.285   1_655 S
N265   O184    1.338   1_655 S
C277   O313    1.292   .     A
C277   O315    1.288   .     A
C277   C279    1.428   .     S
C278   C280    1.484   .     S
C278   C290    1.424   .     A
C278   C286    1.415   .     A
C279   C5      1.329   1_565 S
C279   H24     1.088   1_565 S
C280   O317    1.302   .     A
C280   O316    1.303   .     A
C281   C282    1.428   .     S
C282   O319    1.292   .     A
C282   O318    1.288   .     A
C283   O320    1.296   .     A
C283   O321    1.302   .     A
C283   C285    1.464   .     S
C284   C296    1.394   .     A
C284   C706    1.405   1_554 S
C284   H352    1.084   .     S
C285   C296    1.399   .     A
C285   C295    1.397   .     A
C286   O314    1.383   .     S
C286   C287    1.399   .     A
C287   C703    1.388   .     S
C287   H401    1.083   1_455 S
C288   C290    1.418   .     A
C288   C703    1.414   .     S
C288   C705    1.425   .     S
C289   H308    1.077   .     S
C289   C702    1.414   1_554 S
C289   C701    1.388   1_554 S
C290   C294    1.413   .     A
C291   C295    1.402   .     A
C291   C702    1.425   1_554 S
C291   C706    1.419   1_554 S
C292   C293    1.392   .     A
C292   C705    1.419   .     S
C292   C698    1.405   .     S
C293   C294    1.388   .     A
C293   H305    1.084   .     S
C294   H310    1.079   .     S
C295   H307    1.077   .     S
C296   H299    1.083   .     S
Cu297  O320    1.920   .     S
Cu297  N312    2.023   .     S
Cu297  O316    1.940   .     S
Cu297  Cu298   2.692   .     S
Cu297  O318    1.951   .     S
Cu297  O313    1.954   .     S
Cu298  N311    2.023   .     S
Cu298  O315    1.951   .     S
Cu298  O317    1.920   .     S
Cu298  O321    1.940   .     S
Cu298  O319    1.954   .     S
H301   O368    0.989   .     S
H302   O360    0.992   .     S
H303   C5      1.088   1_565 S
H304   N358    1.029   .     S
H306   C376    1.084   1_455 S
H309   C333    1.083   .     S
N311   N358    1.285   .     S
N311   O368    1.338   .     S
N312   N403    1.285   1_455 S
N312   H396    1.029   1_455 S
O314   H394    0.992   1_455 S
O322   N403    1.338   1_455 S
O322   H393    0.989   1_455 S
C323   O359    1.292   .     A
C323   O361    1.288   .     A
C323   C325    1.428   .     S
C324   C326    1.484   .     S
C324   C336    1.424   .     A
C324   C332    1.415   .     A
C325   C51     1.329   1_565 S
C325   H70     1.088   1_565 S
C326   O363    1.302   .     A
C326   O362    1.303   .     A
C327   C328    1.428   .     S
C328   O365    1.292   .     A
C328   O364    1.288   .     A
C329   O366    1.296   .     A
C329   O367    1.302   .     A
C329   C331    1.464   .     S
C330   C342    1.394   .     A
C330   C752    1.405   1_554 S
C330   H398    1.084   .     S
C331   C342    1.399   .     A
C331   C341    1.397   .     A
C332   O360    1.383   .     S
C332   C333    1.399   .     A
C333   C749    1.388   .     S
C334   C336    1.418   .     A
C334   C749    1.414   .     S
C334   C751    1.425   .     S
C335   H354    1.077   .     S
C335   C748    1.414   1_554 S
C335   C747    1.388   1_554 S
C336   C340    1.413   .     A
C337   C341    1.402   .     A
C337   C748    1.425   1_554 S
C337   C752    1.419   1_554 S
C338   C339    1.392   .     A
C338   C751    1.419   .     S
C338   C744    1.405   .     S
C339   C340    1.388   .     A
C339   H351    1.084   .     S
C340   H356    1.079   .     S
C341   H353    1.077   .     S
C342   H345    1.083   .     S
Cu343  O366    1.920   .     S
Cu343  N358    2.023   .     S
Cu343  O362    1.940   .     S
Cu343  Cu344   2.692   .     S
Cu343  O364    1.951   .     S
Cu343  O359    1.954   .     S
Cu344  N357    2.023   .     S
Cu344  O361    1.951   .     S
Cu344  O363    1.920   .     S
Cu344  O367    1.940   .     S
Cu344  O365    1.954   .     S
H347   O414    0.989   .     S
H348   O406    0.992   .     S
H349   C51     1.088   1_565 S
H350   N404    1.029   .     S
H355   C379    1.083   .     S
N357   N404    1.285   .     S
N357   O414    1.338   .     S
C369   O405    1.292   .     A
C369   O407    1.288   .     A
C369   C371    1.428   .     S
C370   C372    1.484   .     S
C370   C382    1.424   .     A
C370   C378    1.415   .     A
C371   C97     1.329   1_565 S
C371   H116    1.088   1_565 S
C372   O409    1.302   .     A
C372   O408    1.303   .     A
C373   C374    1.428   .     S
C374   O411    1.292   .     A
C374   O410    1.288   .     A
C375   O412    1.296   .     A
C375   O413    1.302   .     A
C375   C377    1.464   .     S
C376   C388    1.394   .     A
C376   C798    1.405   1_554 S
C376   H306    1.084   1_655 S
C377   C388    1.399   .     A
C377   C387    1.397   .     A
C378   O406    1.383   .     S
C378   C379    1.399   .     A
C379   C795    1.388   .     S
C380   C382    1.418   .     A
C380   C795    1.414   .     S
C380   C797    1.425   .     S
C381   H400    1.077   .     S
C381   C794    1.414   1_554 S
C381   C793    1.388   1_554 S
C382   C386    1.413   .     A
C383   C387    1.402   .     A
C383   C794    1.425   1_554 S
C383   C798    1.419   1_554 S
C384   C385    1.392   .     A
C384   C797    1.419   .     S
C384   C790    1.405   .     S
C385   C386    1.388   .     A
C385   H397    1.084   .     S
C386   H402    1.079   .     S
C387   H399    1.077   .     S
C388   H391    1.083   .     S
Cu389  O412    1.920   .     S
Cu389  N404    2.023   .     S
Cu389  O408    1.940   .     S
Cu389  Cu390   2.692   .     S
Cu389  O410    1.951   .     S
Cu389  O405    1.954   .     S
Cu390  N403    2.023   .     S
Cu390  O407    1.951   .     S
Cu390  O409    1.920   .     S
Cu390  O413    1.940   .     S
Cu390  O411    1.954   .     S
H393   O322    0.989   1_655 S
H394   O314    0.992   1_655 S
H395   C97     1.088   1_565 S
H396   N312    1.029   1_655 S
H401   C287    1.083   1_655 S
N403   N312    1.285   1_655 S
N403   O322    1.338   1_655 S
C415   O451    1.292   .     A
C415   O453    1.288   .     A
C415   C417    1.428   .     S
C416   C418    1.484   .     S
C416   C428    1.424   .     A
C416   C424    1.415   .     A
C417   C557    1.329   .     S
C417   H576    1.088   .     S
C418   O455    1.302   .     A
C418   O454    1.303   .     A
C419   C420    1.428   .     S
C419   C693    1.329   1_545 S
C419   H717    1.088   1_545 S
C420   O457    1.292   .     A
C420   O456    1.288   .     A
C421   O458    1.296   .     A
C421   O459    1.302   .     A
C421   C423    1.464   .     S
C422   C434    1.394   .     A
C422   H490    1.084   .     S
C423   C434    1.399   .     A
C423   C433    1.397   .     A
C424   O452    1.383   .     S
C424   C425    1.399   .     A
C425   C13     1.388   1_556 S
C425   H539    1.083   1_455 S
C426   C428    1.418   .     A
C426   C13     1.414   1_556 S
C426   C15     1.425   1_556 S
C427   H446    1.077   .     S
C428   C432    1.413   .     A
C429   C433    1.402   .     A
C430   C431    1.392   .     A
C430   C15     1.419   1_556 S
C430   C8      1.405   1_556 S
C431   C432    1.388   .     A
C431   H443    1.084   .     S
C432   H448    1.079   .     S
C433   H445    1.077   .     S
C434   H437    1.083   .     S
Cu435  O458    1.920   .     S
Cu435  N450    2.023   .     S
Cu435  O454    1.940   .     S
Cu435  Cu436   2.692   .     S
Cu435  O456    1.951   .     S
Cu435  O451    1.954   .     S
Cu436  N449    2.023   .     S
Cu436  O453    1.951   .     S
Cu436  O455    1.920   .     S
Cu436  O459    1.940   .     S
Cu436  O457    1.954   .     S
H438   C693    1.088   1_545 S
H439   O506    0.989   .     S
H440   O498    0.992   .     S
H441   C557    1.088   .     S
H442   N496    1.029   .     S
H444   C514    1.084   1_455 S
H447   C471    1.083   .     S
N449   N496    1.285   .     S
N449   O506    1.338   .     S
N450   N541    1.285   1_455 S
N450   H534    1.029   1_455 S
O452   H532    0.992   1_455 S
O460   N541    1.338   1_455 S
O460   H531    0.989   1_455 S
C461   O497    1.292   .     A
C461   O499    1.288   .     A
C461   C463    1.428   .     S
C462   C464    1.484   .     S
C462   C474    1.424   .     A
C462   C470    1.415   .     A
C463   C603    1.329   .     S
C463   H622    1.088   .     S
C464   O501    1.302   .     A
C464   O500    1.303   .     A
C465   C466    1.428   .     S
C465   C739    1.329   1_545 S
C465   H763    1.088   1_545 S
C466   O503    1.292   .     A
C466   O502    1.288   .     A
C467   O504    1.296   .     A
C467   O505    1.302   .     A
C467   C469    1.464   .     S
C468   C480    1.394   .     A
C468   H536    1.084   .     S
C469   C480    1.399   .     A
C469   C479    1.397   .     A
C470   O498    1.383   .     S
C470   C471    1.399   .     A
C471   C59     1.388   1_556 S
C472   C474    1.418   .     A
C472   C59     1.414   1_556 S
C472   C61     1.425   1_556 S
C473   H492    1.077   .     S
C474   C478    1.413   .     A
C475   C479    1.402   .     A
C476   C477    1.392   .     A
C476   C61     1.419   1_556 S
C476   C54     1.405   1_556 S
C477   C478    1.388   .     A
C477   H489    1.084   .     S
C478   H494    1.079   .     S
C479   H491    1.077   .     S
C480   H483    1.083   .     S
Cu481  O504    1.920   .     S
Cu481  N496    2.023   .     S
Cu481  O500    1.940   .     S
Cu481  Cu482   2.692   .     S
Cu481  O502    1.951   .     S
Cu481  O497    1.954   .     S
Cu482  N495    2.023   .     S
Cu482  O499    1.951   .     S
Cu482  O501    1.920   .     S
Cu482  O505    1.940   .     S
Cu482  O503    1.954   .     S
H484   C739    1.088   1_545 S
H485   O552    0.989   .     S
H486   O544    0.992   .     S
H487   C603    1.088   .     S
H488   N542    1.029   .     S
H493   C517    1.083   .     S
N495   N542    1.285   .     S
N495   O552    1.338   .     S
C507   O543    1.292   .     A
C507   O545    1.288   .     A
C507   C509    1.428   .     S
C508   C510    1.484   .     S
C508   C520    1.424   .     A
C508   C516    1.415   .     A
C509   C649    1.329   .     S
C509   H668    1.088   .     S
C510   O547    1.302   .     A
C510   O546    1.303   .     A
C511   C512    1.428   .     S
C511   C785    1.329   1_545 S
C511   H809    1.088   1_545 S
C512   O549    1.292   .     A
C512   O548    1.288   .     A
C513   O550    1.296   .     A
C513   O551    1.302   .     A
C513   C515    1.464   .     S
C514   C526    1.394   .     A
C514   H444    1.084   1_655 S
C515   C526    1.399   .     A
C515   C525    1.397   .     A
C516   O544    1.383   .     S
C516   C517    1.399   .     A
C517   C105    1.388   1_556 S
C518   C520    1.418   .     A
C518   C105    1.414   1_556 S
C518   C107    1.425   1_556 S
C519   H538    1.077   .     S
C520   C524    1.413   .     A
C521   C525    1.402   .     A
C522   C523    1.392   .     A
C522   C107    1.419   1_556 S
C522   C100    1.405   1_556 S
C523   C524    1.388   .     A
C523   H535    1.084   .     S
C524   H540    1.079   .     S
C525   H537    1.077   .     S
C526   H529    1.083   .     S
Cu527  O550    1.920   .     S
Cu527  N542    2.023   .     S
Cu527  O546    1.940   .     S
Cu527  Cu528   2.692   .     S
Cu527  O548    1.951   .     S
Cu527  O543    1.954   .     S
Cu528  N541    2.023   .     S
Cu528  O545    1.951   .     S
Cu528  O547    1.920   .     S
Cu528  O551    1.940   .     S
Cu528  O549    1.954   .     S
H530   C785    1.088   1_545 S
H531   O460    0.989   1_655 S
H532   O452    0.992   1_655 S
H533   C649    1.088   .     S
H534   N450    1.029   1_655 S
H539   C425    1.083   1_655 S
N541   N450    1.285   1_655 S
N541   O460    1.338   1_655 S
C553   O589    1.292   .     A
C553   O591    1.288   .     A
C553   C555    1.428   .     S
C554   C556    1.484   .     S
C554   C566    1.424   .     A
C554   C562    1.415   .     A
C555   C695    1.329   .     S
C555   H714    1.088   .     S
C556   O593    1.302   .     A
C556   O592    1.303   .     A
C557   C558    1.428   .     S
C558   O595    1.292   .     A
C558   O594    1.288   .     A
C559   O596    1.296   .     A
C559   O597    1.302   .     A
C559   C561    1.464   .     S
C560   C572    1.394   .     A
C560   H628    1.084   .     S
C561   C572    1.399   .     A
C561   C571    1.397   .     A
C562   O590    1.383   .     S
C562   C563    1.399   .     A
C563   C151    1.388   1_556 S
C563   H677    1.083   1_455 S
C564   C566    1.418   .     A
C564   C151    1.414   1_556 S
C564   C153    1.425   1_556 S
C565   H584    1.077   .     S
C566   C570    1.413   .     A
C567   C571    1.402   .     A
C568   C569    1.392   .     A
C568   C153    1.419   1_556 S
C568   C146    1.405   1_556 S
C569   C570    1.388   .     A
C569   H581    1.084   .     S
C570   H586    1.079   .     S
C571   H583    1.077   .     S
C572   H575    1.083   .     S
Cu573  O596    1.920   .     S
Cu573  N588    2.023   .     S
Cu573  O592    1.940   .     S
Cu573  Cu574   2.692   .     S
Cu573  O594    1.951   .     S
Cu573  O589    1.954   .     S
Cu574  N587    2.023   .     S
Cu574  O591    1.951   .     S
Cu574  O593    1.920   .     S
Cu574  O597    1.940   .     S
Cu574  O595    1.954   .     S
H577   O644    0.989   .     S
H578   O636    0.992   .     S
H579   C695    1.088   .     S
H580   N634    1.029   .     S
H582   C652    1.084   1_455 S
H585   C609    1.083   .     S
N587   N634    1.285   .     S
N587   O644    1.338   .     S
N588   N679    1.285   1_455 S
N588   H672    1.029   1_455 S
O590   H670    0.992   1_455 S
O598   N679    1.338   1_455 S
O598   H669    0.989   1_455 S
C599   O635    1.292   .     A
C599   O637    1.288   .     A
C599   C601    1.428   .     S
C600   C602    1.484   .     S
C600   C612    1.424   .     A
C600   C608    1.415   .     A
C601   C741    1.329   .     S
C601   H760    1.088   .     S
C602   O639    1.302   .     A
C602   O638    1.303   .     A
C603   C604    1.428   .     S
C604   O641    1.292   .     A
C604   O640    1.288   .     A
C605   O642    1.296   .     A
C605   O643    1.302   .     A
C605   C607    1.464   .     S
C606   C618    1.394   .     A
C606   H674    1.084   .     S
C607   C618    1.399   .     A
C607   C617    1.397   .     A
C608   O636    1.383   .     S
C608   C609    1.399   .     A
C609   C197    1.388   1_556 S
C610   C612    1.418   .     A
C610   C197    1.414   1_556 S
C610   C199    1.425   1_556 S
C611   H630    1.077   .     S
C612   C616    1.413   .     A
C613   C617    1.402   .     A
C614   C615    1.392   .     A
C614   C199    1.419   1_556 S
C614   C192    1.405   1_556 S
C615   C616    1.388   .     A
C615   H627    1.084   .     S
C616   H632    1.079   .     S
C617   H629    1.077   .     S
C618   H621    1.083   .     S
Cu619  O642    1.920   .     S
Cu619  N634    2.023   .     S
Cu619  O638    1.940   .     S
Cu619  Cu620   2.692   .     S
Cu619  O640    1.951   .     S
Cu619  O635    1.954   .     S
Cu620  N633    2.023   .     S
Cu620  O637    1.951   .     S
Cu620  O639    1.920   .     S
Cu620  O643    1.940   .     S
Cu620  O641    1.954   .     S
H623   O690    0.989   .     S
H624   O682    0.992   .     S
H625   C741    1.088   .     S
H626   N680    1.029   .     S
H631   C655    1.083   .     S
N633   N680    1.285   .     S
N633   O690    1.338   .     S
C645   O681    1.292   .     A
C645   O683    1.288   .     A
C645   C647    1.428   .     S
C646   C648    1.484   .     S
C646   C658    1.424   .     A
C646   C654    1.415   .     A
C647   C787    1.329   .     S
C647   H806    1.088   .     S
C648   O685    1.302   .     A
C648   O684    1.303   .     A
C649   C650    1.428   .     S
C650   O687    1.292   .     A
C650   O686    1.288   .     A
C651   O688    1.296   .     A
C651   O689    1.302   .     A
C651   C653    1.464   .     S
C652   C664    1.394   .     A
C652   H582    1.084   1_655 S
C653   C664    1.399   .     A
C653   C663    1.397   .     A
C654   O682    1.383   .     S
C654   C655    1.399   .     A
C655   C243    1.388   1_556 S
C656   C658    1.418   .     A
C656   C243    1.414   1_556 S
C656   C245    1.425   1_556 S
C657   H676    1.077   .     S
C658   C662    1.413   .     A
C659   C663    1.402   .     A
C660   C661    1.392   .     A
C660   C245    1.419   1_556 S
C660   C238    1.405   1_556 S
C661   C662    1.388   .     A
C661   H673    1.084   .     S
C662   H678    1.079   .     S
C663   H675    1.077   .     S
C664   H667    1.083   .     S
Cu665  O688    1.920   .     S
Cu665  N680    2.023   .     S
Cu665  O684    1.940   .     S
Cu665  Cu666   2.692   .     S
Cu665  O686    1.951   .     S
Cu665  O681    1.954   .     S
Cu666  N679    2.023   .     S
Cu666  O683    1.951   .     S
Cu666  O685    1.920   .     S
Cu666  O689    1.940   .     S
Cu666  O687    1.954   .     S
H669   O598    0.989   1_655 S
H670   O590    0.992   1_655 S
H671   C787    1.088   .     S
H672   N588    1.029   1_655 S
H677   C563    1.083   1_655 S
N679   N588    1.285   1_655 S
N679   O598    1.338   1_655 S
C691   O727    1.292   .     A
C691   O729    1.288   .     A
C691   C693    1.428   .     S
C692   C694    1.484   .     S
C692   C704    1.424   .     A
C692   C700    1.415   .     A
C693   C419    1.329   1_565 S
C693   H438    1.088   1_565 S
C694   O731    1.302   .     A
C694   O730    1.303   .     A
C695   C696    1.428   .     S
C696   O733    1.292   .     A
C696   O732    1.288   .     A
C697   O734    1.296   .     A
C697   O735    1.302   .     A
C697   C699    1.464   .     S
C698   C710    1.394   .     A
C698   H766    1.084   .     S
C699   C710    1.399   .     A
C699   C709    1.397   .     A
C700   O728    1.383   .     S
C700   C701    1.399   .     A
C701   C289    1.388   1_556 S
C701   H815    1.083   1_455 S
C702   C704    1.418   .     A
C702   C289    1.414   1_556 S
C702   C291    1.425   1_556 S
C703   H722    1.077   .     S
C704   C708    1.413   .     A
C705   C709    1.402   .     A
C706   C707    1.392   .     A
C706   C291    1.419   1_556 S
C706   C284    1.405   1_556 S
C707   C708    1.388   .     A
C707   H719    1.084   .     S
C708   H724    1.079   .     S
C709   H721    1.077   .     S
C710   H713    1.083   .     S
Cu711  O734    1.920   .     S
Cu711  N726    2.023   .     S
Cu711  O730    1.940   .     S
Cu711  Cu712   2.692   .     S
Cu711  O732    1.951   .     S
Cu711  O727    1.954   .     S
Cu712  N725    2.023   .     S
Cu712  O729    1.951   .     S
Cu712  O731    1.920   .     S
Cu712  O735    1.940   .     S
Cu712  O733    1.954   .     S
H715   O782    0.989   .     S
H716   O774    0.992   .     S
H717   C419    1.088   1_565 S
H718   N772    1.029   .     S
H720   C790    1.084   1_455 S
H723   C747    1.083   .     S
N725   N772    1.285   .     S
N725   O782    1.338   .     S
N726   N817    1.285   1_455 S
N726   H810    1.029   1_455 S
O728   H808    0.992   1_455 S
O736   N817    1.338   1_455 S
O736   H807    0.989   1_455 S
C737   O773    1.292   .     A
C737   O775    1.288   .     A
C737   C739    1.428   .     S
C738   C740    1.484   .     S
C738   C750    1.424   .     A
C738   C746    1.415   .     A
C739   C465    1.329   1_565 S
C739   H484    1.088   1_565 S
C740   O777    1.302   .     A
C740   O776    1.303   .     A
C741   C742    1.428   .     S
C742   O779    1.292   .     A
C742   O778    1.288   .     A
C743   O780    1.296   .     A
C743   O781    1.302   .     A
C743   C745    1.464   .     S
C744   C756    1.394   .     A
C744   H812    1.084   .     S
C745   C756    1.399   .     A
C745   C755    1.397   .     A
C746   O774    1.383   .     S
C746   C747    1.399   .     A
C747   C335    1.388   1_556 S
C748   C750    1.418   .     A
C748   C335    1.414   1_556 S
C748   C337    1.425   1_556 S
C749   H768    1.077   .     S
C750   C754    1.413   .     A
C751   C755    1.402   .     A
C752   C753    1.392   .     A
C752   C337    1.419   1_556 S
C752   C330    1.405   1_556 S
C753   C754    1.388   .     A
C753   H765    1.084   .     S
C754   H770    1.079   .     S
C755   H767    1.077   .     S
C756   H759    1.083   .     S
Cu757  O780    1.920   .     S
Cu757  N772    2.023   .     S
Cu757  O776    1.940   .     S
Cu757  Cu758   2.692   .     S
Cu757  O778    1.951   .     S
Cu757  O773    1.954   .     S
Cu758  N771    2.023   .     S
Cu758  O775    1.951   .     S
Cu758  O777    1.920   .     S
Cu758  O781    1.940   .     S
Cu758  O779    1.954   .     S
H761   O828    0.989   .     S
H762   O820    0.992   .     S
H763   C465    1.088   1_565 S
H764   N818    1.029   .     S
H769   C793    1.083   .     S
N771   N818    1.285   .     S
N771   O828    1.338   .     S
C783   O819    1.292   .     A
C783   O821    1.288   .     A
C783   C785    1.428   .     S
C784   C786    1.484   .     S
C784   C796    1.424   .     A
C784   C792    1.415   .     A
C785   C511    1.329   1_565 S
C785   H530    1.088   1_565 S
C786   O823    1.302   .     A
C786   O822    1.303   .     A
C787   C788    1.428   .     S
C788   O825    1.292   .     A
C788   O824    1.288   .     A
C789   O826    1.296   .     A
C789   O827    1.302   .     A
C789   C791    1.464   .     S
C790   C802    1.394   .     A
C790   H720    1.084   1_655 S
C791   C802    1.399   .     A
C791   C801    1.397   .     A
C792   O820    1.383   .     S
C792   C793    1.399   .     A
C793   C381    1.388   1_556 S
C794   C796    1.418   .     A
C794   C381    1.414   1_556 S
C794   C383    1.425   1_556 S
C795   H814    1.077   .     S
C796   C800    1.413   .     A
C797   C801    1.402   .     A
C798   C799    1.392   .     A
C798   C383    1.419   1_556 S
C798   C376    1.405   1_556 S
C799   C800    1.388   .     A
C799   H811    1.084   .     S
C800   H816    1.079   .     S
C801   H813    1.077   .     S
C802   H805    1.083   .     S
Cu803  O826    1.920   .     S
Cu803  N818    2.023   .     S
Cu803  O822    1.940   .     S
Cu803  Cu804   2.692   .     S
Cu803  O824    1.951   .     S
Cu803  O819    1.954   .     S
Cu804  N817    2.023   .     S
Cu804  O821    1.951   .     S
Cu804  O823    1.920   .     S
Cu804  O827    1.940   .     S
Cu804  O825    1.954   .     S
H807   O736    0.989   1_655 S
H808   O728    0.992   1_655 S
H809   C511    1.088   1_565 S
H810   N726    1.029   1_655 S
H815   C701    1.083   1_655 S
N817   N726    1.285   1_655 S
N817   O736    1.338   1_655 S
