data_str_m2_o1_o18_pcu_sym.160
_audit_creation_date              2020-01-03
_audit_creation_method            'Materials Studio'
_symmetry_space_group_name_H-M    'P1'
_symmetry_Int_Tables_number       1
_symmetry_cell_setting            triclinic
loop_
_symmetry_equiv_pos_as_xyz
  x,y,z
_cell_length_a                    29.2012
_cell_length_b                    32.6363
_cell_length_c                    32.1045
_cell_angle_alpha                 85.1613
_cell_angle_beta                  71.3876
_cell_angle_gamma                 90.1921
loop_
_atom_site_label
_atom_site_type_symbol
_atom_site_fract_x
_atom_site_fract_y
_atom_site_fract_z
_atom_site_U_iso_or_equiv
_atom_site_adp_type
_atom_site_occupancy
C1     C     0.00069   0.08773   0.24843   0.00000  Uiso   1.00
C2     C     0.33269   0.24564   0.25140   0.00000  Uiso   1.00
C3     C     0.18347   0.21959   0.02755   0.00000  Uiso   1.00
C4     C     0.13759   0.16818   0.45314   0.00000  Uiso   1.00
C5     C     0.23403   0.22249   0.00494   0.00000  Uiso   1.00
C6     C     0.09696   0.14558   0.48001   0.00000  Uiso   1.00
C7     C     0.29067   0.02122   0.25854   0.00000  Uiso   1.00
C8     C     0.04271   0.31227   0.24087   0.00000  Uiso   1.00
C9     C     0.28842   0.31199   0.26215   0.00000  Uiso   1.00
C10    C     0.04496   0.02151   0.23690   0.00000  Uiso   1.00
C11    C     0.33186   0.29034   0.25227   0.00000  Uiso   1.00
C12    C     0.00152   0.04311   0.24720   0.00000  Uiso   1.00
C13    C     0.18180   0.13806   0.27606   0.00000  Uiso   1.00
C14    C     0.15157   0.19516   0.22386   0.00000  Uiso   1.00
C15    C     0.13325   0.13757   0.27559   0.00000  Uiso   1.00
C16    C     0.20041   0.19517   0.22352   0.00000  Uiso   1.00
C17    C     0.30505   0.16646   0.33565   0.00000  Uiso   1.00
C18    C     0.02816   0.16525   0.16445   0.00000  Uiso   1.00
C19    C     0.28808   0.17135   0.38364   0.00000  Uiso   1.00
C20    C     0.04480   0.16143   0.11604   0.00000  Uiso   1.00
C21    C     0.30385   0.19404   0.44792   0.00000  Uiso   1.00
C22    C     0.03271   0.13633   0.05061   0.00000  Uiso   1.00
C23    C     0.31990   0.17733   0.40690   0.00000  Uiso   1.00
C24    C     0.01423   0.14317   0.09552   0.00000  Uiso   1.00
C25    C     0.24012   0.16409   0.40853   0.00000  Uiso   1.00
C26    C     0.09296   0.17358   0.09038   0.00000  Uiso   1.00
C27    C     0.22110   0.18257   0.44868   0.00000  Uiso   1.00
C28    C     0.10792   0.17459   0.04373   0.00000  Uiso   1.00
C29    C     0.25344   0.20043   0.46735   0.00000  Uiso   1.00
C30    C     0.07872   0.15251   0.02476   0.00000  Uiso   1.00
C31    C     0.17121   0.18087   0.47202   0.00000  Uiso   1.00
C32    C     0.15435   0.19097   0.01581   0.00000  Uiso   1.00
Cu33   Cu    0.04689   0.16667   0.25000   0.00000  Uiso   1.00
Cu34   Cu    0.28645   0.16666   0.25000   0.00000  Uiso   1.00
H35    H     0.25718   0.03708   0.26530   0.00000  Uiso   1.00
H36    H     0.07619   0.29647   0.23420   0.00000  Uiso   1.00
N37    N     0.11736   0.16668   0.24999   0.00000  Uiso   1.00
N38    N     0.21597   0.16666   0.25001   0.00000  Uiso   1.00
O39    O     0.03958   0.10655   0.25000   0.00000  Uiso   1.00
O40    O     0.29375   0.22678   0.25000   0.00000  Uiso   1.00
O41    O     0.29372   0.10654   0.25001   0.00000  Uiso   1.00
O42    O     0.03961   0.22679   0.25000   0.00000  Uiso   1.00
O43    O     0.01852   0.16668   0.31492   0.00000  Uiso   1.00
O44    O     0.31481   0.16666   0.18509   0.00000  Uiso   1.00
O45    O     0.27267   0.16667   0.31492   0.00000  Uiso   1.00
O46    O     0.06067   0.16667   0.18508   0.00000  Uiso   1.00
O47    O     0.26409   0.24874   0.01668   0.00000  Uiso   1.00
H48    H     0.24796   0.25544   0.04735   0.00000  Uiso   1.00
O49    O     0.08305   0.10992   0.46665   0.00000  Uiso   1.00
H50    H     0.10854   0.10311   0.43941   0.00000  Uiso   1.00
O51    O     0.12596   0.18026   0.11179   0.00000  Uiso   1.00
H52    H     0.15667   0.16758   0.09583   0.00000  Uiso   1.00
O53    O     0.21595   0.13297   0.39711   0.00000  Uiso   1.00
H54    H     0.20002   0.11476   0.42432   0.00000  Uiso   1.00
I55    I     0.27341   0.12326   0.12960   0.00000  Uiso   1.00
I56    I     0.03815   0.13178   0.39768   0.00000  Uiso   1.00
O57    O     0.00382   0.19919   0.46950   0.00000  Uiso   1.00
H58    H     0.32028   0.19546   0.00169   0.00000  Uiso   1.00
O59    O     0.00489   0.11648   0.03033   0.00000  Uiso   1.00
H60    H     0.32089   0.09277   0.05053   0.00000  Uiso   1.00
I61    I     0.14910   0.27033   0.06146   0.00000  Uiso   1.00
I62    I     0.14014   0.19661   0.38994   0.00000  Uiso   1.00
I63    I     0.21687   0.28553   0.28668   0.00000  Uiso   1.00
I64    I     0.11634   0.04825   0.21063   0.00000  Uiso   1.00
I65    I     0.19675   0.09273   0.32090   0.00000  Uiso   1.00
I66    I     0.13607   0.24061   0.17984   0.00000  Uiso   1.00
O67    O     0.10349   0.10586   0.30092   0.00000  Uiso   1.00
H68    H     0.06994   0.11292   0.30526   0.00000  Uiso   1.00
O69    O     0.23093   0.22530   0.19571   0.00000  Uiso   1.00
H70    H     0.26434   0.21939   0.19330   0.00000  Uiso   1.00
C71    C     0.33402   0.08773   0.24843   0.00000  Uiso   1.00
C72    C     0.66602   0.24564   0.25140   0.00000  Uiso   1.00
C73    C     0.51681   0.21959   0.02755   0.00000  Uiso   1.00
C74    C     0.47093   0.16818   0.45314   0.00000  Uiso   1.00
C75    C     0.56737   0.22249   0.00494   0.00000  Uiso   1.00
C76    C     0.43029   0.14558   0.48001   0.00000  Uiso   1.00
C77    C     0.62400   0.02122   0.25854   0.00000  Uiso   1.00
C78    C     0.37604   0.31227   0.24087   0.00000  Uiso   1.00
C79    C     0.62176   0.31199   0.26215   0.00000  Uiso   1.00
C80    C     0.37829   0.02151   0.23690   0.00000  Uiso   1.00
C81    C     0.66520   0.29034   0.25227   0.00000  Uiso   1.00
C82    C     0.33485   0.04311   0.24720   0.00000  Uiso   1.00
C83    C     0.51513   0.13806   0.27606   0.00000  Uiso   1.00
C84    C     0.48490   0.19516   0.22386   0.00000  Uiso   1.00
C85    C     0.46658   0.13757   0.27559   0.00000  Uiso   1.00
C86    C     0.53374   0.19517   0.22352   0.00000  Uiso   1.00
C87    C     0.63838   0.16646   0.33565   0.00000  Uiso   1.00
C88    C     0.36150   0.16525   0.16445   0.00000  Uiso   1.00
C89    C     0.62142   0.17135   0.38364   0.00000  Uiso   1.00
C90    C     0.37813   0.16143   0.11604   0.00000  Uiso   1.00
C91    C     0.63718   0.19404   0.44792   0.00000  Uiso   1.00
C92    C     0.36604   0.13633   0.05061   0.00000  Uiso   1.00
C93    C     0.65323   0.17733   0.40690   0.00000  Uiso   1.00
C94    C     0.34756   0.14317   0.09552   0.00000  Uiso   1.00
C95    C     0.57346   0.16409   0.40853   0.00000  Uiso   1.00
C96    C     0.42629   0.17358   0.09038   0.00000  Uiso   1.00
C97    C     0.55443   0.18257   0.44868   0.00000  Uiso   1.00
C98    C     0.44126   0.17459   0.04373   0.00000  Uiso   1.00
C99    C     0.58677   0.20043   0.46735   0.00000  Uiso   1.00
C100   C     0.41206   0.15251   0.02476   0.00000  Uiso   1.00
C101   C     0.50454   0.18087   0.47202   0.00000  Uiso   1.00
C102   C     0.48768   0.19097   0.01581   0.00000  Uiso   1.00
Cu103  Cu    0.38022   0.16667   0.25000   0.00000  Uiso   1.00
Cu104  Cu    0.61978   0.16666   0.25000   0.00000  Uiso   1.00
H105   H     0.59052   0.03708   0.26530   0.00000  Uiso   1.00
H106   H     0.40953   0.29647   0.23420   0.00000  Uiso   1.00
N107   N     0.45069   0.16668   0.24999   0.00000  Uiso   1.00
N108   N     0.54931   0.16666   0.25001   0.00000  Uiso   1.00
O109   O     0.37291   0.10655   0.25000   0.00000  Uiso   1.00
O110   O     0.62709   0.22678   0.25000   0.00000  Uiso   1.00
O111   O     0.62706   0.10654   0.25001   0.00000  Uiso   1.00
O112   O     0.37294   0.22679   0.25000   0.00000  Uiso   1.00
O113   O     0.35186   0.16668   0.31492   0.00000  Uiso   1.00
O114   O     0.64814   0.16666   0.18509   0.00000  Uiso   1.00
O115   O     0.60600   0.16667   0.31492   0.00000  Uiso   1.00
O116   O     0.39400   0.16667   0.18508   0.00000  Uiso   1.00
O117   O     0.59742   0.24874   0.01668   0.00000  Uiso   1.00
H118   H     0.58129   0.25544   0.04735   0.00000  Uiso   1.00
O119   O     0.41639   0.10992   0.46665   0.00000  Uiso   1.00
H120   H     0.44187   0.10311   0.43941   0.00000  Uiso   1.00
O121   O     0.45929   0.18026   0.11179   0.00000  Uiso   1.00
H122   H     0.49000   0.16758   0.09583   0.00000  Uiso   1.00
O123   O     0.54929   0.13297   0.39711   0.00000  Uiso   1.00
H124   H     0.53335   0.11476   0.42432   0.00000  Uiso   1.00
I125   I     0.60675   0.12326   0.12960   0.00000  Uiso   1.00
I126   I     0.37148   0.13178   0.39768   0.00000  Uiso   1.00
O127   O     0.33715   0.19919   0.46950   0.00000  Uiso   1.00
H128   H     0.65361   0.19546   0.00169   0.00000  Uiso   1.00
O129   O     0.33822   0.11648   0.03033   0.00000  Uiso   1.00
H130   H     0.65422   0.09277   0.05053   0.00000  Uiso   1.00
I131   I     0.48244   0.27033   0.06146   0.00000  Uiso   1.00
I132   I     0.47347   0.19661   0.38994   0.00000  Uiso   1.00
I133   I     0.55021   0.28553   0.28668   0.00000  Uiso   1.00
I134   I     0.44967   0.04825   0.21063   0.00000  Uiso   1.00
I135   I     0.53008   0.09273   0.32090   0.00000  Uiso   1.00
I136   I     0.46940   0.24061   0.17984   0.00000  Uiso   1.00
O137   O     0.43682   0.10586   0.30092   0.00000  Uiso   1.00
H138   H     0.40328   0.11292   0.30526   0.00000  Uiso   1.00
O139   O     0.56427   0.22530   0.19571   0.00000  Uiso   1.00
H140   H     0.59767   0.21939   0.19330   0.00000  Uiso   1.00
C141   C     0.66735   0.08773   0.24843   0.00000  Uiso   1.00
C142   C     0.99935   0.24564   0.25140   0.00000  Uiso   1.00
C143   C     0.85014   0.21959   0.02755   0.00000  Uiso   1.00
C144   C     0.80426   0.16818   0.45314   0.00000  Uiso   1.00
C145   C     0.90070   0.22249   0.00494   0.00000  Uiso   1.00
C146   C     0.76362   0.14558   0.48001   0.00000  Uiso   1.00
C147   C     0.95734   0.02122   0.25854   0.00000  Uiso   1.00
C148   C     0.70937   0.31227   0.24087   0.00000  Uiso   1.00
C149   C     0.95509   0.31199   0.26215   0.00000  Uiso   1.00
C150   C     0.71163   0.02151   0.23690   0.00000  Uiso   1.00
C151   C     0.99853   0.29034   0.25227   0.00000  Uiso   1.00
C152   C     0.66818   0.04311   0.24720   0.00000  Uiso   1.00
C153   C     0.84847   0.13806   0.27606   0.00000  Uiso   1.00
C154   C     0.81824   0.19516   0.22386   0.00000  Uiso   1.00
C155   C     0.79992   0.13757   0.27559   0.00000  Uiso   1.00
C156   C     0.86708   0.19517   0.22352   0.00000  Uiso   1.00
C157   C     0.97172   0.16646   0.33565   0.00000  Uiso   1.00
C158   C     0.69483   0.16525   0.16445   0.00000  Uiso   1.00
C159   C     0.95475   0.17135   0.38364   0.00000  Uiso   1.00
C160   C     0.71146   0.16143   0.11604   0.00000  Uiso   1.00
C161   C     0.97052   0.19404   0.44792   0.00000  Uiso   1.00
C162   C     0.69938   0.13633   0.05061   0.00000  Uiso   1.00
C163   C     0.98656   0.17733   0.40690   0.00000  Uiso   1.00
C164   C     0.68090   0.14317   0.09552   0.00000  Uiso   1.00
C165   C     0.90679   0.16409   0.40853   0.00000  Uiso   1.00
C166   C     0.75962   0.17358   0.09038   0.00000  Uiso   1.00
C167   C     0.88777   0.18257   0.44868   0.00000  Uiso   1.00
C168   C     0.77459   0.17459   0.04373   0.00000  Uiso   1.00
C169   C     0.92011   0.20043   0.46735   0.00000  Uiso   1.00
C170   C     0.74539   0.15251   0.02476   0.00000  Uiso   1.00
C171   C     0.83787   0.18087   0.47202   0.00000  Uiso   1.00
C172   C     0.82102   0.19097   0.01581   0.00000  Uiso   1.00
Cu173  Cu    0.71355   0.16667   0.25000   0.00000  Uiso   1.00
Cu174  Cu    0.95311   0.16666   0.25000   0.00000  Uiso   1.00
H175   H     0.92385   0.03708   0.26530   0.00000  Uiso   1.00
H176   H     0.74286   0.29647   0.23420   0.00000  Uiso   1.00
N177   N     0.78403   0.16668   0.24999   0.00000  Uiso   1.00
N178   N     0.88264   0.16666   0.25001   0.00000  Uiso   1.00
O179   O     0.70625   0.10655   0.25000   0.00000  Uiso   1.00
O180   O     0.96042   0.22678   0.25000   0.00000  Uiso   1.00
O181   O     0.96039   0.10654   0.25001   0.00000  Uiso   1.00
O182   O     0.70628   0.22679   0.25000   0.00000  Uiso   1.00
O183   O     0.68519   0.16668   0.31492   0.00000  Uiso   1.00
O184   O     0.98148   0.16666   0.18509   0.00000  Uiso   1.00
O185   O     0.93933   0.16667   0.31492   0.00000  Uiso   1.00
O186   O     0.72733   0.16667   0.18508   0.00000  Uiso   1.00
O187   O     0.93075   0.24874   0.01668   0.00000  Uiso   1.00
H188   H     0.91462   0.25544   0.04735   0.00000  Uiso   1.00
O189   O     0.74972   0.10992   0.46665   0.00000  Uiso   1.00
H190   H     0.77521   0.10311   0.43941   0.00000  Uiso   1.00
O191   O     0.79263   0.18026   0.11179   0.00000  Uiso   1.00
H192   H     0.82333   0.16758   0.09583   0.00000  Uiso   1.00
O193   O     0.88262   0.13297   0.39711   0.00000  Uiso   1.00
H194   H     0.86669   0.11476   0.42432   0.00000  Uiso   1.00
I195   I     0.94008   0.12326   0.12960   0.00000  Uiso   1.00
I196   I     0.70482   0.13178   0.39768   0.00000  Uiso   1.00
O197   O     0.67049   0.19919   0.46950   0.00000  Uiso   1.00
H198   H     0.98694   0.19546   0.00169   0.00000  Uiso   1.00
O199   O     0.67156   0.11648   0.03033   0.00000  Uiso   1.00
H200   H     0.98755   0.09277   0.05053   0.00000  Uiso   1.00
I201   I     0.81577   0.27033   0.06146   0.00000  Uiso   1.00
I202   I     0.80681   0.19661   0.38994   0.00000  Uiso   1.00
I203   I     0.88354   0.28553   0.28668   0.00000  Uiso   1.00
I204   I     0.78300   0.04825   0.21063   0.00000  Uiso   1.00
I205   I     0.86341   0.09273   0.32090   0.00000  Uiso   1.00
I206   I     0.80274   0.24061   0.17984   0.00000  Uiso   1.00
O207   O     0.77016   0.10586   0.30092   0.00000  Uiso   1.00
H208   H     0.73661   0.11292   0.30526   0.00000  Uiso   1.00
O209   O     0.89760   0.22530   0.19571   0.00000  Uiso   1.00
H210   H     0.93100   0.21939   0.19330   0.00000  Uiso   1.00
C211   C     0.00069   0.42106   0.24843   0.00000  Uiso   1.00
C212   C     0.33269   0.57898   0.25140   0.00000  Uiso   1.00
C213   C     0.18347   0.55293   0.02755   0.00000  Uiso   1.00
C214   C     0.13759   0.50152   0.45314   0.00000  Uiso   1.00
C215   C     0.23403   0.55582   0.00494   0.00000  Uiso   1.00
C216   C     0.09696   0.47892   0.48001   0.00000  Uiso   1.00
C217   C     0.29067   0.35455   0.25854   0.00000  Uiso   1.00
C218   C     0.04271   0.64561   0.24087   0.00000  Uiso   1.00
C219   C     0.28842   0.64533   0.26215   0.00000  Uiso   1.00
C220   C     0.04496   0.35485   0.23690   0.00000  Uiso   1.00
C221   C     0.33186   0.62368   0.25227   0.00000  Uiso   1.00
C222   C     0.00152   0.37644   0.24720   0.00000  Uiso   1.00
C223   C     0.18180   0.47139   0.27606   0.00000  Uiso   1.00
C224   C     0.15157   0.52849   0.22386   0.00000  Uiso   1.00
C225   C     0.13325   0.47090   0.27559   0.00000  Uiso   1.00
C226   C     0.20041   0.52850   0.22352   0.00000  Uiso   1.00
C227   C     0.30505   0.49980   0.33565   0.00000  Uiso   1.00
C228   C     0.02816   0.49858   0.16445   0.00000  Uiso   1.00
C229   C     0.28808   0.50468   0.38364   0.00000  Uiso   1.00
C230   C     0.04480   0.49476   0.11604   0.00000  Uiso   1.00
C231   C     0.30385   0.52737   0.44792   0.00000  Uiso   1.00
C232   C     0.03271   0.46966   0.05061   0.00000  Uiso   1.00
C233   C     0.31990   0.51067   0.40690   0.00000  Uiso   1.00
C234   C     0.01423   0.47650   0.09552   0.00000  Uiso   1.00
C235   C     0.24012   0.49742   0.40853   0.00000  Uiso   1.00
C236   C     0.09296   0.50692   0.09038   0.00000  Uiso   1.00
C237   C     0.22110   0.51590   0.44868   0.00000  Uiso   1.00
C238   C     0.10792   0.50792   0.04373   0.00000  Uiso   1.00
C239   C     0.25344   0.53376   0.46735   0.00000  Uiso   1.00
C240   C     0.07872   0.48585   0.02476   0.00000  Uiso   1.00
C241   C     0.17121   0.51420   0.47202   0.00000  Uiso   1.00
C242   C     0.15435   0.52431   0.01581   0.00000  Uiso   1.00
Cu243  Cu    0.04689   0.50001   0.25000   0.00000  Uiso   1.00
Cu244  Cu    0.28645   0.49999   0.25000   0.00000  Uiso   1.00
H245   H     0.25718   0.37041   0.26530   0.00000  Uiso   1.00
H246   H     0.07619   0.62980   0.23420   0.00000  Uiso   1.00
N247   N     0.11736   0.50001   0.24999   0.00000  Uiso   1.00
N248   N     0.21597   0.49999   0.25001   0.00000  Uiso   1.00
O249   O     0.03958   0.43989   0.25000   0.00000  Uiso   1.00
O250   O     0.29375   0.56011   0.25000   0.00000  Uiso   1.00
O251   O     0.29372   0.43988   0.25001   0.00000  Uiso   1.00
O252   O     0.03961   0.56012   0.25000   0.00000  Uiso   1.00
O253   O     0.01852   0.50001   0.31492   0.00000  Uiso   1.00
O254   O     0.31481   0.49999   0.18509   0.00000  Uiso   1.00
O255   O     0.27267   0.50000   0.31492   0.00000  Uiso   1.00
O256   O     0.06067   0.50000   0.18508   0.00000  Uiso   1.00
O257   O     0.26409   0.58207   0.01668   0.00000  Uiso   1.00
H258   H     0.24796   0.58877   0.04735   0.00000  Uiso   1.00
O259   O     0.08305   0.44325   0.46665   0.00000  Uiso   1.00
H260   H     0.10854   0.43644   0.43941   0.00000  Uiso   1.00
O261   O     0.12596   0.51359   0.11179   0.00000  Uiso   1.00
H262   H     0.15667   0.50091   0.09583   0.00000  Uiso   1.00
O263   O     0.21595   0.46630   0.39711   0.00000  Uiso   1.00
H264   H     0.20002   0.44809   0.42432   0.00000  Uiso   1.00
I265   I     0.27341   0.45659   0.12960   0.00000  Uiso   1.00
I266   I     0.03815   0.46511   0.39768   0.00000  Uiso   1.00
O267   O     0.00382   0.53253   0.46950   0.00000  Uiso   1.00
H268   H     0.32028   0.52879   0.00169   0.00000  Uiso   1.00
O269   O     0.00489   0.44981   0.03033   0.00000  Uiso   1.00
H270   H     0.32089   0.42610   0.05053   0.00000  Uiso   1.00
I271   I     0.14910   0.60366   0.06146   0.00000  Uiso   1.00
I272   I     0.14014   0.52995   0.38994   0.00000  Uiso   1.00
I273   I     0.21687   0.61886   0.28668   0.00000  Uiso   1.00
I274   I     0.11634   0.38158   0.21063   0.00000  Uiso   1.00
I275   I     0.19675   0.42606   0.32090   0.00000  Uiso   1.00
I276   I     0.13607   0.57394   0.17984   0.00000  Uiso   1.00
O277   O     0.10349   0.43920   0.30092   0.00000  Uiso   1.00
H278   H     0.06994   0.44625   0.30526   0.00000  Uiso   1.00
O279   O     0.23093   0.55863   0.19571   0.00000  Uiso   1.00
H280   H     0.26434   0.55272   0.19330   0.00000  Uiso   1.00
C281   C     0.33402   0.42106   0.24843   0.00000  Uiso   1.00
C282   C     0.66602   0.57898   0.25140   0.00000  Uiso   1.00
C283   C     0.51681   0.55293   0.02755   0.00000  Uiso   1.00
C284   C     0.47093   0.50152   0.45314   0.00000  Uiso   1.00
C285   C     0.56737   0.55582   0.00494   0.00000  Uiso   1.00
C286   C     0.43029   0.47892   0.48001   0.00000  Uiso   1.00
C287   C     0.62400   0.35455   0.25854   0.00000  Uiso   1.00
C288   C     0.37604   0.64561   0.24087   0.00000  Uiso   1.00
C289   C     0.62176   0.64533   0.26215   0.00000  Uiso   1.00
C290   C     0.37829   0.35485   0.23690   0.00000  Uiso   1.00
C291   C     0.66520   0.62368   0.25227   0.00000  Uiso   1.00
C292   C     0.33485   0.37644   0.24720   0.00000  Uiso   1.00
C293   C     0.51513   0.47139   0.27606   0.00000  Uiso   1.00
C294   C     0.48490   0.52849   0.22386   0.00000  Uiso   1.00
C295   C     0.46658   0.47090   0.27559   0.00000  Uiso   1.00
C296   C     0.53374   0.52850   0.22352   0.00000  Uiso   1.00
C297   C     0.63838   0.49980   0.33565   0.00000  Uiso   1.00
C298   C     0.36150   0.49858   0.16445   0.00000  Uiso   1.00
C299   C     0.62142   0.50468   0.38364   0.00000  Uiso   1.00
C300   C     0.37813   0.49476   0.11604   0.00000  Uiso   1.00
C301   C     0.63718   0.52737   0.44792   0.00000  Uiso   1.00
C302   C     0.36604   0.46966   0.05061   0.00000  Uiso   1.00
C303   C     0.65323   0.51067   0.40690   0.00000  Uiso   1.00
C304   C     0.34756   0.47650   0.09552   0.00000  Uiso   1.00
C305   C     0.57346   0.49742   0.40853   0.00000  Uiso   1.00
C306   C     0.42629   0.50692   0.09038   0.00000  Uiso   1.00
C307   C     0.55443   0.51590   0.44868   0.00000  Uiso   1.00
C308   C     0.44126   0.50792   0.04373   0.00000  Uiso   1.00
C309   C     0.58677   0.53376   0.46735   0.00000  Uiso   1.00
C310   C     0.41206   0.48585   0.02476   0.00000  Uiso   1.00
C311   C     0.50454   0.51420   0.47202   0.00000  Uiso   1.00
C312   C     0.48768   0.52431   0.01581   0.00000  Uiso   1.00
Cu313  Cu    0.38022   0.50001   0.25000   0.00000  Uiso   1.00
Cu314  Cu    0.61978   0.49999   0.25000   0.00000  Uiso   1.00
H315   H     0.59052   0.37041   0.26530   0.00000  Uiso   1.00
H316   H     0.40953   0.62980   0.23420   0.00000  Uiso   1.00
N317   N     0.45069   0.50001   0.24999   0.00000  Uiso   1.00
N318   N     0.54931   0.49999   0.25001   0.00000  Uiso   1.00
O319   O     0.37291   0.43989   0.25000   0.00000  Uiso   1.00
O320   O     0.62709   0.56011   0.25000   0.00000  Uiso   1.00
O321   O     0.62706   0.43988   0.25001   0.00000  Uiso   1.00
O322   O     0.37294   0.56012   0.25000   0.00000  Uiso   1.00
O323   O     0.35186   0.50001   0.31492   0.00000  Uiso   1.00
O324   O     0.64814   0.49999   0.18509   0.00000  Uiso   1.00
O325   O     0.60600   0.50000   0.31492   0.00000  Uiso   1.00
O326   O     0.39400   0.50000   0.18508   0.00000  Uiso   1.00
O327   O     0.59742   0.58207   0.01668   0.00000  Uiso   1.00
H328   H     0.58129   0.58877   0.04735   0.00000  Uiso   1.00
O329   O     0.41639   0.44325   0.46665   0.00000  Uiso   1.00
H330   H     0.44187   0.43644   0.43941   0.00000  Uiso   1.00
O331   O     0.45929   0.51359   0.11179   0.00000  Uiso   1.00
H332   H     0.49000   0.50091   0.09583   0.00000  Uiso   1.00
O333   O     0.54929   0.46630   0.39711   0.00000  Uiso   1.00
H334   H     0.53335   0.44809   0.42432   0.00000  Uiso   1.00
I335   I     0.60675   0.45659   0.12960   0.00000  Uiso   1.00
I336   I     0.37148   0.46511   0.39768   0.00000  Uiso   1.00
O337   O     0.33715   0.53253   0.46950   0.00000  Uiso   1.00
H338   H     0.65361   0.52879   0.00169   0.00000  Uiso   1.00
O339   O     0.33822   0.44981   0.03033   0.00000  Uiso   1.00
H340   H     0.65422   0.42610   0.05053   0.00000  Uiso   1.00
I341   I     0.48244   0.60366   0.06146   0.00000  Uiso   1.00
I342   I     0.47347   0.52995   0.38994   0.00000  Uiso   1.00
I343   I     0.55021   0.61886   0.28668   0.00000  Uiso   1.00
I344   I     0.44967   0.38158   0.21063   0.00000  Uiso   1.00
I345   I     0.53008   0.42606   0.32090   0.00000  Uiso   1.00
I346   I     0.46940   0.57394   0.17984   0.00000  Uiso   1.00
O347   O     0.43682   0.43920   0.30092   0.00000  Uiso   1.00
H348   H     0.40328   0.44625   0.30526   0.00000  Uiso   1.00
O349   O     0.56427   0.55863   0.19571   0.00000  Uiso   1.00
H350   H     0.59767   0.55272   0.19330   0.00000  Uiso   1.00
C351   C     0.66735   0.42106   0.24843   0.00000  Uiso   1.00
C352   C     0.99935   0.57898   0.25140   0.00000  Uiso   1.00
C353   C     0.85014   0.55293   0.02755   0.00000  Uiso   1.00
C354   C     0.80426   0.50152   0.45314   0.00000  Uiso   1.00
C355   C     0.90070   0.55582   0.00494   0.00000  Uiso   1.00
C356   C     0.76362   0.47892   0.48001   0.00000  Uiso   1.00
C357   C     0.95734   0.35455   0.25854   0.00000  Uiso   1.00
C358   C     0.70937   0.64561   0.24087   0.00000  Uiso   1.00
C359   C     0.95509   0.64533   0.26215   0.00000  Uiso   1.00
C360   C     0.71163   0.35485   0.23690   0.00000  Uiso   1.00
C361   C     0.99853   0.62368   0.25227   0.00000  Uiso   1.00
C362   C     0.66818   0.37644   0.24720   0.00000  Uiso   1.00
C363   C     0.84847   0.47139   0.27606   0.00000  Uiso   1.00
C364   C     0.81824   0.52849   0.22386   0.00000  Uiso   1.00
C365   C     0.79992   0.47090   0.27559   0.00000  Uiso   1.00
C366   C     0.86708   0.52850   0.22352   0.00000  Uiso   1.00
C367   C     0.97172   0.49980   0.33565   0.00000  Uiso   1.00
C368   C     0.69483   0.49858   0.16445   0.00000  Uiso   1.00
C369   C     0.95475   0.50468   0.38364   0.00000  Uiso   1.00
C370   C     0.71146   0.49476   0.11604   0.00000  Uiso   1.00
C371   C     0.97052   0.52737   0.44792   0.00000  Uiso   1.00
C372   C     0.69938   0.46966   0.05061   0.00000  Uiso   1.00
C373   C     0.98656   0.51067   0.40690   0.00000  Uiso   1.00
C374   C     0.68090   0.47650   0.09552   0.00000  Uiso   1.00
C375   C     0.90679   0.49742   0.40853   0.00000  Uiso   1.00
C376   C     0.75962   0.50692   0.09038   0.00000  Uiso   1.00
C377   C     0.88777   0.51590   0.44868   0.00000  Uiso   1.00
C378   C     0.77459   0.50792   0.04373   0.00000  Uiso   1.00
C379   C     0.92011   0.53376   0.46735   0.00000  Uiso   1.00
C380   C     0.74539   0.48585   0.02476   0.00000  Uiso   1.00
C381   C     0.83787   0.51420   0.47202   0.00000  Uiso   1.00
C382   C     0.82102   0.52431   0.01581   0.00000  Uiso   1.00
Cu383  Cu    0.71355   0.50001   0.25000   0.00000  Uiso   1.00
Cu384  Cu    0.95311   0.49999   0.25000   0.00000  Uiso   1.00
H385   H     0.92385   0.37041   0.26530   0.00000  Uiso   1.00
H386   H     0.74286   0.62980   0.23420   0.00000  Uiso   1.00
N387   N     0.78403   0.50001   0.24999   0.00000  Uiso   1.00
N388   N     0.88264   0.49999   0.25001   0.00000  Uiso   1.00
O389   O     0.70625   0.43989   0.25000   0.00000  Uiso   1.00
O390   O     0.96042   0.56011   0.25000   0.00000  Uiso   1.00
O391   O     0.96039   0.43988   0.25001   0.00000  Uiso   1.00
O392   O     0.70628   0.56012   0.25000   0.00000  Uiso   1.00
O393   O     0.68519   0.50001   0.31492   0.00000  Uiso   1.00
O394   O     0.98148   0.49999   0.18509   0.00000  Uiso   1.00
O395   O     0.93933   0.50000   0.31492   0.00000  Uiso   1.00
O396   O     0.72733   0.50000   0.18508   0.00000  Uiso   1.00
O397   O     0.93075   0.58207   0.01668   0.00000  Uiso   1.00
H398   H     0.91462   0.58877   0.04735   0.00000  Uiso   1.00
O399   O     0.74972   0.44325   0.46665   0.00000  Uiso   1.00
H400   H     0.77521   0.43644   0.43941   0.00000  Uiso   1.00
O401   O     0.79263   0.51359   0.11179   0.00000  Uiso   1.00
H402   H     0.82333   0.50091   0.09583   0.00000  Uiso   1.00
O403   O     0.88262   0.46630   0.39711   0.00000  Uiso   1.00
H404   H     0.86669   0.44809   0.42432   0.00000  Uiso   1.00
I405   I     0.94008   0.45659   0.12960   0.00000  Uiso   1.00
I406   I     0.70482   0.46511   0.39768   0.00000  Uiso   1.00
O407   O     0.67049   0.53253   0.46950   0.00000  Uiso   1.00
H408   H     0.98694   0.52879   0.00169   0.00000  Uiso   1.00
O409   O     0.67156   0.44981   0.03033   0.00000  Uiso   1.00
H410   H     0.98755   0.42610   0.05053   0.00000  Uiso   1.00
I411   I     0.81577   0.60366   0.06146   0.00000  Uiso   1.00
I412   I     0.80681   0.52995   0.38994   0.00000  Uiso   1.00
I413   I     0.88354   0.61886   0.28668   0.00000  Uiso   1.00
I414   I     0.78300   0.38158   0.21063   0.00000  Uiso   1.00
I415   I     0.86341   0.42606   0.32090   0.00000  Uiso   1.00
I416   I     0.80274   0.57394   0.17984   0.00000  Uiso   1.00
O417   O     0.77016   0.43920   0.30092   0.00000  Uiso   1.00
H418   H     0.73661   0.44625   0.30526   0.00000  Uiso   1.00
O419   O     0.89760   0.55863   0.19571   0.00000  Uiso   1.00
H420   H     0.93100   0.55272   0.19330   0.00000  Uiso   1.00
C421   C     0.00069   0.75440   0.24843   0.00000  Uiso   1.00
C422   C     0.33269   0.91231   0.25140   0.00000  Uiso   1.00
C423   C     0.18347   0.88626   0.02755   0.00000  Uiso   1.00
C424   C     0.13759   0.83485   0.45314   0.00000  Uiso   1.00
C425   C     0.23403   0.88915   0.00494   0.00000  Uiso   1.00
C426   C     0.09696   0.81225   0.48001   0.00000  Uiso   1.00
C427   C     0.29067   0.68789   0.25854   0.00000  Uiso   1.00
C428   C     0.04271   0.97894   0.24087   0.00000  Uiso   1.00
C429   C     0.28842   0.97866   0.26215   0.00000  Uiso   1.00
C430   C     0.04496   0.68818   0.23690   0.00000  Uiso   1.00
C431   C     0.33186   0.95701   0.25227   0.00000  Uiso   1.00
C432   C     0.00152   0.70977   0.24720   0.00000  Uiso   1.00
C433   C     0.18180   0.80472   0.27606   0.00000  Uiso   1.00
C434   C     0.15157   0.86183   0.22386   0.00000  Uiso   1.00
C435   C     0.13325   0.80423   0.27559   0.00000  Uiso   1.00
C436   C     0.20041   0.86183   0.22352   0.00000  Uiso   1.00
C437   C     0.30505   0.83313   0.33565   0.00000  Uiso   1.00
C438   C     0.02816   0.83192   0.16445   0.00000  Uiso   1.00
C439   C     0.28808   0.83802   0.38364   0.00000  Uiso   1.00
C440   C     0.04480   0.82810   0.11604   0.00000  Uiso   1.00
C441   C     0.30385   0.86070   0.44792   0.00000  Uiso   1.00
C442   C     0.03271   0.80300   0.05061   0.00000  Uiso   1.00
C443   C     0.31990   0.84400   0.40690   0.00000  Uiso   1.00
C444   C     0.01423   0.80983   0.09552   0.00000  Uiso   1.00
C445   C     0.24012   0.83075   0.40853   0.00000  Uiso   1.00
C446   C     0.09296   0.84025   0.09038   0.00000  Uiso   1.00
C447   C     0.22110   0.84923   0.44868   0.00000  Uiso   1.00
C448   C     0.10792   0.84126   0.04373   0.00000  Uiso   1.00
C449   C     0.25344   0.86710   0.46735   0.00000  Uiso   1.00
C450   C     0.07872   0.81918   0.02476   0.00000  Uiso   1.00
C451   C     0.17121   0.84753   0.47202   0.00000  Uiso   1.00
C452   C     0.15435   0.85764   0.01581   0.00000  Uiso   1.00
Cu453  Cu    0.04689   0.83334   0.25000   0.00000  Uiso   1.00
Cu454  Cu    0.28645   0.83333   0.25000   0.00000  Uiso   1.00
H455   H     0.25718   0.70375   0.26530   0.00000  Uiso   1.00
H456   H     0.07619   0.96314   0.23420   0.00000  Uiso   1.00
N457   N     0.11736   0.83334   0.24999   0.00000  Uiso   1.00
N458   N     0.21597   0.83332   0.25001   0.00000  Uiso   1.00
O459   O     0.03958   0.77322   0.25000   0.00000  Uiso   1.00
O460   O     0.29375   0.89345   0.25000   0.00000  Uiso   1.00
O461   O     0.29372   0.77321   0.25001   0.00000  Uiso   1.00
O462   O     0.03961   0.89346   0.25000   0.00000  Uiso   1.00
O463   O     0.01852   0.83334   0.31492   0.00000  Uiso   1.00
O464   O     0.31481   0.83332   0.18509   0.00000  Uiso   1.00
O465   O     0.27267   0.83333   0.31492   0.00000  Uiso   1.00
O466   O     0.06067   0.83333   0.18508   0.00000  Uiso   1.00
O467   O     0.26409   0.91540   0.01668   0.00000  Uiso   1.00
H468   H     0.24796   0.92210   0.04735   0.00000  Uiso   1.00
O469   O     0.08305   0.77658   0.46665   0.00000  Uiso   1.00
H470   H     0.10854   0.76977   0.43941   0.00000  Uiso   1.00
O471   O     0.12596   0.84692   0.11179   0.00000  Uiso   1.00
H472   H     0.15667   0.83424   0.09583   0.00000  Uiso   1.00
O473   O     0.21595   0.79963   0.39711   0.00000  Uiso   1.00
H474   H     0.20002   0.78142   0.42432   0.00000  Uiso   1.00
I475   I     0.27341   0.78993   0.12960   0.00000  Uiso   1.00
I476   I     0.03815   0.79845   0.39768   0.00000  Uiso   1.00
O477   O     0.00382   0.86586   0.46950   0.00000  Uiso   1.00
H478   H     0.32028   0.86212   0.00169   0.00000  Uiso   1.00
O479   O     0.00489   0.78315   0.03033   0.00000  Uiso   1.00
H480   H     0.32089   0.75944   0.05053   0.00000  Uiso   1.00
I481   I     0.14910   0.93699   0.06146   0.00000  Uiso   1.00
I482   I     0.14014   0.86328   0.38994   0.00000  Uiso   1.00
I483   I     0.21687   0.95220   0.28668   0.00000  Uiso   1.00
I484   I     0.11634   0.71491   0.21063   0.00000  Uiso   1.00
I485   I     0.19675   0.75939   0.32090   0.00000  Uiso   1.00
I486   I     0.13607   0.90727   0.17984   0.00000  Uiso   1.00
O487   O     0.10349   0.77253   0.30092   0.00000  Uiso   1.00
H488   H     0.06994   0.77958   0.30526   0.00000  Uiso   1.00
O489   O     0.23093   0.89196   0.19571   0.00000  Uiso   1.00
H490   H     0.26434   0.88606   0.19330   0.00000  Uiso   1.00
C491   C     0.33402   0.75440   0.24843   0.00000  Uiso   1.00
C492   C     0.66602   0.91231   0.25140   0.00000  Uiso   1.00
C493   C     0.51681   0.88626   0.02755   0.00000  Uiso   1.00
C494   C     0.47093   0.83485   0.45314   0.00000  Uiso   1.00
C495   C     0.56737   0.88915   0.00494   0.00000  Uiso   1.00
C496   C     0.43029   0.81225   0.48001   0.00000  Uiso   1.00
C497   C     0.62400   0.68789   0.25854   0.00000  Uiso   1.00
C498   C     0.37604   0.97894   0.24087   0.00000  Uiso   1.00
C499   C     0.62176   0.97866   0.26215   0.00000  Uiso   1.00
C500   C     0.37829   0.68818   0.23690   0.00000  Uiso   1.00
C501   C     0.66520   0.95701   0.25227   0.00000  Uiso   1.00
C502   C     0.33485   0.70977   0.24720   0.00000  Uiso   1.00
C503   C     0.51513   0.80472   0.27606   0.00000  Uiso   1.00
C504   C     0.48490   0.86183   0.22386   0.00000  Uiso   1.00
C505   C     0.46658   0.80423   0.27559   0.00000  Uiso   1.00
C506   C     0.53374   0.86183   0.22352   0.00000  Uiso   1.00
C507   C     0.63838   0.83313   0.33565   0.00000  Uiso   1.00
C508   C     0.36150   0.83192   0.16445   0.00000  Uiso   1.00
C509   C     0.62142   0.83802   0.38364   0.00000  Uiso   1.00
C510   C     0.37813   0.82810   0.11604   0.00000  Uiso   1.00
C511   C     0.63718   0.86070   0.44792   0.00000  Uiso   1.00
C512   C     0.36604   0.80300   0.05061   0.00000  Uiso   1.00
C513   C     0.65323   0.84400   0.40690   0.00000  Uiso   1.00
C514   C     0.34756   0.80983   0.09552   0.00000  Uiso   1.00
C515   C     0.57346   0.83075   0.40853   0.00000  Uiso   1.00
C516   C     0.42629   0.84025   0.09038   0.00000  Uiso   1.00
C517   C     0.55443   0.84923   0.44868   0.00000  Uiso   1.00
C518   C     0.44126   0.84126   0.04373   0.00000  Uiso   1.00
C519   C     0.58677   0.86710   0.46735   0.00000  Uiso   1.00
C520   C     0.41206   0.81918   0.02476   0.00000  Uiso   1.00
C521   C     0.50454   0.84753   0.47202   0.00000  Uiso   1.00
C522   C     0.48768   0.85764   0.01581   0.00000  Uiso   1.00
Cu523  Cu    0.38022   0.83334   0.25000   0.00000  Uiso   1.00
Cu524  Cu    0.61978   0.83333   0.25000   0.00000  Uiso   1.00
H525   H     0.59052   0.70375   0.26530   0.00000  Uiso   1.00
H526   H     0.40953   0.96314   0.23420   0.00000  Uiso   1.00
N527   N     0.45069   0.83334   0.24999   0.00000  Uiso   1.00
N528   N     0.54931   0.83332   0.25001   0.00000  Uiso   1.00
O529   O     0.37291   0.77322   0.25000   0.00000  Uiso   1.00
O530   O     0.62709   0.89345   0.25000   0.00000  Uiso   1.00
O531   O     0.62706   0.77321   0.25001   0.00000  Uiso   1.00
O532   O     0.37294   0.89346   0.25000   0.00000  Uiso   1.00
O533   O     0.35186   0.83334   0.31492   0.00000  Uiso   1.00
O534   O     0.64814   0.83332   0.18509   0.00000  Uiso   1.00
O535   O     0.60600   0.83333   0.31492   0.00000  Uiso   1.00
O536   O     0.39400   0.83333   0.18508   0.00000  Uiso   1.00
O537   O     0.59742   0.91540   0.01668   0.00000  Uiso   1.00
H538   H     0.58129   0.92210   0.04735   0.00000  Uiso   1.00
O539   O     0.41639   0.77658   0.46665   0.00000  Uiso   1.00
H540   H     0.44187   0.76977   0.43941   0.00000  Uiso   1.00
O541   O     0.45929   0.84692   0.11179   0.00000  Uiso   1.00
H542   H     0.49000   0.83424   0.09583   0.00000  Uiso   1.00
O543   O     0.54929   0.79963   0.39711   0.00000  Uiso   1.00
H544   H     0.53335   0.78142   0.42432   0.00000  Uiso   1.00
I545   I     0.60675   0.78993   0.12960   0.00000  Uiso   1.00
I546   I     0.37148   0.79845   0.39768   0.00000  Uiso   1.00
O547   O     0.33715   0.86586   0.46950   0.00000  Uiso   1.00
H548   H     0.65361   0.86212   0.00169   0.00000  Uiso   1.00
O549   O     0.33822   0.78315   0.03033   0.00000  Uiso   1.00
H550   H     0.65422   0.75944   0.05053   0.00000  Uiso   1.00
I551   I     0.48244   0.93699   0.06146   0.00000  Uiso   1.00
I552   I     0.47347   0.86328   0.38994   0.00000  Uiso   1.00
I553   I     0.55021   0.95220   0.28668   0.00000  Uiso   1.00
I554   I     0.44967   0.71491   0.21063   0.00000  Uiso   1.00
I555   I     0.53008   0.75939   0.32090   0.00000  Uiso   1.00
I556   I     0.46940   0.90727   0.17984   0.00000  Uiso   1.00
O557   O     0.43682   0.77253   0.30092   0.00000  Uiso   1.00
H558   H     0.40328   0.77958   0.30526   0.00000  Uiso   1.00
O559   O     0.56427   0.89196   0.19571   0.00000  Uiso   1.00
H560   H     0.59767   0.88606   0.19330   0.00000  Uiso   1.00
C561   C     0.66735   0.75440   0.24843   0.00000  Uiso   1.00
C562   C     0.99935   0.91231   0.25140   0.00000  Uiso   1.00
C563   C     0.85014   0.88626   0.02755   0.00000  Uiso   1.00
C564   C     0.80426   0.83485   0.45314   0.00000  Uiso   1.00
C565   C     0.90070   0.88915   0.00494   0.00000  Uiso   1.00
C566   C     0.76362   0.81225   0.48001   0.00000  Uiso   1.00
C567   C     0.95734   0.68789   0.25854   0.00000  Uiso   1.00
C568   C     0.70937   0.97894   0.24087   0.00000  Uiso   1.00
C569   C     0.95509   0.97866   0.26215   0.00000  Uiso   1.00
C570   C     0.71163   0.68818   0.23690   0.00000  Uiso   1.00
C571   C     0.99853   0.95701   0.25227   0.00000  Uiso   1.00
C572   C     0.66818   0.70977   0.24720   0.00000  Uiso   1.00
C573   C     0.84847   0.80472   0.27606   0.00000  Uiso   1.00
C574   C     0.81824   0.86183   0.22386   0.00000  Uiso   1.00
C575   C     0.79992   0.80423   0.27559   0.00000  Uiso   1.00
C576   C     0.86708   0.86183   0.22352   0.00000  Uiso   1.00
C577   C     0.97172   0.83313   0.33565   0.00000  Uiso   1.00
C578   C     0.69483   0.83192   0.16445   0.00000  Uiso   1.00
C579   C     0.95475   0.83802   0.38364   0.00000  Uiso   1.00
C580   C     0.71146   0.82810   0.11604   0.00000  Uiso   1.00
C581   C     0.97052   0.86070   0.44792   0.00000  Uiso   1.00
C582   C     0.69938   0.80300   0.05061   0.00000  Uiso   1.00
C583   C     0.98656   0.84400   0.40690   0.00000  Uiso   1.00
C584   C     0.68090   0.80983   0.09552   0.00000  Uiso   1.00
C585   C     0.90679   0.83075   0.40853   0.00000  Uiso   1.00
C586   C     0.75962   0.84025   0.09038   0.00000  Uiso   1.00
C587   C     0.88777   0.84923   0.44868   0.00000  Uiso   1.00
C588   C     0.77459   0.84126   0.04373   0.00000  Uiso   1.00
C589   C     0.92011   0.86710   0.46735   0.00000  Uiso   1.00
C590   C     0.74539   0.81918   0.02476   0.00000  Uiso   1.00
C591   C     0.83787   0.84753   0.47202   0.00000  Uiso   1.00
C592   C     0.82102   0.85764   0.01581   0.00000  Uiso   1.00
Cu593  Cu    0.71355   0.83334   0.25000   0.00000  Uiso   1.00
Cu594  Cu    0.95311   0.83333   0.25000   0.00000  Uiso   1.00
H595   H     0.92385   0.70375   0.26530   0.00000  Uiso   1.00
H596   H     0.74286   0.96314   0.23420   0.00000  Uiso   1.00
N597   N     0.78403   0.83334   0.24999   0.00000  Uiso   1.00
N598   N     0.88264   0.83332   0.25001   0.00000  Uiso   1.00
O599   O     0.70625   0.77322   0.25000   0.00000  Uiso   1.00
O600   O     0.96042   0.89345   0.25000   0.00000  Uiso   1.00
O601   O     0.96039   0.77321   0.25001   0.00000  Uiso   1.00
O602   O     0.70628   0.89346   0.25000   0.00000  Uiso   1.00
O603   O     0.68519   0.83334   0.31492   0.00000  Uiso   1.00
O604   O     0.98148   0.83332   0.18509   0.00000  Uiso   1.00
O605   O     0.93933   0.83333   0.31492   0.00000  Uiso   1.00
O606   O     0.72733   0.83333   0.18508   0.00000  Uiso   1.00
O607   O     0.93075   0.91540   0.01668   0.00000  Uiso   1.00
H608   H     0.91462   0.92210   0.04735   0.00000  Uiso   1.00
O609   O     0.74972   0.77658   0.46665   0.00000  Uiso   1.00
H610   H     0.77521   0.76977   0.43941   0.00000  Uiso   1.00
O611   O     0.79263   0.84692   0.11179   0.00000  Uiso   1.00
H612   H     0.82333   0.83424   0.09583   0.00000  Uiso   1.00
O613   O     0.88262   0.79963   0.39711   0.00000  Uiso   1.00
H614   H     0.86669   0.78142   0.42432   0.00000  Uiso   1.00
I615   I     0.94008   0.78993   0.12960   0.00000  Uiso   1.00
I616   I     0.70482   0.79845   0.39768   0.00000  Uiso   1.00
O617   O     0.67049   0.86586   0.46950   0.00000  Uiso   1.00
H618   H     0.98694   0.86212   0.00169   0.00000  Uiso   1.00
O619   O     0.67156   0.78315   0.03033   0.00000  Uiso   1.00
H620   H     0.98755   0.75944   0.05053   0.00000  Uiso   1.00
I621   I     0.81577   0.93699   0.06146   0.00000  Uiso   1.00
I622   I     0.80681   0.86328   0.38994   0.00000  Uiso   1.00
I623   I     0.88354   0.95220   0.28668   0.00000  Uiso   1.00
I624   I     0.78300   0.71491   0.21063   0.00000  Uiso   1.00
I625   I     0.86341   0.75939   0.32090   0.00000  Uiso   1.00
I626   I     0.80274   0.90727   0.17984   0.00000  Uiso   1.00
O627   O     0.77016   0.77253   0.30092   0.00000  Uiso   1.00
H628   H     0.73661   0.77958   0.30526   0.00000  Uiso   1.00
O629   O     0.89760   0.89196   0.19571   0.00000  Uiso   1.00
H630   H     0.93100   0.88606   0.19330   0.00000  Uiso   1.00
C631   C     0.00069   0.08773   0.74843   0.00000  Uiso   1.00
C632   C     0.33269   0.24564   0.75140   0.00000  Uiso   1.00
C633   C     0.18347   0.21959   0.52755   0.00000  Uiso   1.00
C634   C     0.13759   0.16818   0.95314   0.00000  Uiso   1.00
C635   C     0.23403   0.22249   0.50494   0.00000  Uiso   1.00
C636   C     0.09696   0.14558   0.98001   0.00000  Uiso   1.00
C637   C     0.29067   0.02122   0.75854   0.00000  Uiso   1.00
C638   C     0.04271   0.31227   0.74087   0.00000  Uiso   1.00
C639   C     0.28842   0.31199   0.76215   0.00000  Uiso   1.00
C640   C     0.04496   0.02151   0.73690   0.00000  Uiso   1.00
C641   C     0.33186   0.29034   0.75227   0.00000  Uiso   1.00
C642   C     0.00152   0.04311   0.74720   0.00000  Uiso   1.00
C643   C     0.18180   0.13806   0.77606   0.00000  Uiso   1.00
C644   C     0.15157   0.19516   0.72386   0.00000  Uiso   1.00
C645   C     0.13325   0.13757   0.77559   0.00000  Uiso   1.00
C646   C     0.20041   0.19517   0.72352   0.00000  Uiso   1.00
C647   C     0.30505   0.16646   0.83565   0.00000  Uiso   1.00
C648   C     0.02816   0.16525   0.66445   0.00000  Uiso   1.00
C649   C     0.28808   0.17135   0.88364   0.00000  Uiso   1.00
C650   C     0.04480   0.16143   0.61604   0.00000  Uiso   1.00
C651   C     0.30385   0.19404   0.94792   0.00000  Uiso   1.00
C652   C     0.03271   0.13633   0.55061   0.00000  Uiso   1.00
C653   C     0.31990   0.17733   0.90690   0.00000  Uiso   1.00
C654   C     0.01423   0.14317   0.59552   0.00000  Uiso   1.00
C655   C     0.24012   0.16409   0.90853   0.00000  Uiso   1.00
C656   C     0.09296   0.17358   0.59038   0.00000  Uiso   1.00
C657   C     0.22110   0.18257   0.94868   0.00000  Uiso   1.00
C658   C     0.10792   0.17459   0.54373   0.00000  Uiso   1.00
C659   C     0.25344   0.20043   0.96735   0.00000  Uiso   1.00
C660   C     0.07872   0.15251   0.52476   0.00000  Uiso   1.00
C661   C     0.17121   0.18087   0.97202   0.00000  Uiso   1.00
C662   C     0.15435   0.19097   0.51581   0.00000  Uiso   1.00
Cu663  Cu    0.04689   0.16667   0.75000   0.00000  Uiso   1.00
Cu664  Cu    0.28645   0.16666   0.75000   0.00000  Uiso   1.00
H665   H     0.25718   0.03708   0.76530   0.00000  Uiso   1.00
H666   H     0.07619   0.29647   0.73420   0.00000  Uiso   1.00
N667   N     0.11736   0.16668   0.74999   0.00000  Uiso   1.00
N668   N     0.21597   0.16666   0.75001   0.00000  Uiso   1.00
O669   O     0.03958   0.10655   0.75000   0.00000  Uiso   1.00
O670   O     0.29375   0.22678   0.75000   0.00000  Uiso   1.00
O671   O     0.29372   0.10654   0.75001   0.00000  Uiso   1.00
O672   O     0.03961   0.22679   0.75000   0.00000  Uiso   1.00
O673   O     0.01852   0.16668   0.81492   0.00000  Uiso   1.00
O674   O     0.31481   0.16666   0.68509   0.00000  Uiso   1.00
O675   O     0.27267   0.16667   0.81492   0.00000  Uiso   1.00
O676   O     0.06067   0.16667   0.68508   0.00000  Uiso   1.00
O677   O     0.26409   0.24874   0.51668   0.00000  Uiso   1.00
H678   H     0.24796   0.25544   0.54735   0.00000  Uiso   1.00
O679   O     0.08305   0.10992   0.96665   0.00000  Uiso   1.00
H680   H     0.10854   0.10311   0.93941   0.00000  Uiso   1.00
O681   O     0.12596   0.18026   0.61179   0.00000  Uiso   1.00
H682   H     0.15667   0.16758   0.59583   0.00000  Uiso   1.00
O683   O     0.21595   0.13297   0.89711   0.00000  Uiso   1.00
H684   H     0.20002   0.11476   0.92432   0.00000  Uiso   1.00
I685   I     0.27341   0.12326   0.62960   0.00000  Uiso   1.00
I686   I     0.03815   0.13178   0.89768   0.00000  Uiso   1.00
O687   O     0.00382   0.19919   0.96950   0.00000  Uiso   1.00
H688   H     0.32028   0.19546   0.50169   0.00000  Uiso   1.00
O689   O     0.00489   0.11648   0.53033   0.00000  Uiso   1.00
H690   H     0.32089   0.09277   0.55053   0.00000  Uiso   1.00
I691   I     0.14910   0.27033   0.56146   0.00000  Uiso   1.00
I692   I     0.14014   0.19661   0.88994   0.00000  Uiso   1.00
I693   I     0.21687   0.28553   0.78668   0.00000  Uiso   1.00
I694   I     0.11634   0.04825   0.71063   0.00000  Uiso   1.00
I695   I     0.19675   0.09273   0.82090   0.00000  Uiso   1.00
I696   I     0.13607   0.24061   0.67984   0.00000  Uiso   1.00
O697   O     0.10349   0.10586   0.80092   0.00000  Uiso   1.00
H698   H     0.06994   0.11292   0.80526   0.00000  Uiso   1.00
O699   O     0.23093   0.22530   0.69571   0.00000  Uiso   1.00
H700   H     0.26434   0.21939   0.69330   0.00000  Uiso   1.00
C701   C     0.33402   0.08773   0.74843   0.00000  Uiso   1.00
C702   C     0.66602   0.24564   0.75140   0.00000  Uiso   1.00
C703   C     0.51681   0.21959   0.52755   0.00000  Uiso   1.00
C704   C     0.47093   0.16818   0.95314   0.00000  Uiso   1.00
C705   C     0.56737   0.22249   0.50494   0.00000  Uiso   1.00
C706   C     0.43029   0.14558   0.98001   0.00000  Uiso   1.00
C707   C     0.62400   0.02122   0.75854   0.00000  Uiso   1.00
C708   C     0.37604   0.31227   0.74087   0.00000  Uiso   1.00
C709   C     0.62176   0.31199   0.76215   0.00000  Uiso   1.00
C710   C     0.37829   0.02151   0.73690   0.00000  Uiso   1.00
C711   C     0.66520   0.29034   0.75227   0.00000  Uiso   1.00
C712   C     0.33485   0.04311   0.74720   0.00000  Uiso   1.00
C713   C     0.51513   0.13806   0.77606   0.00000  Uiso   1.00
C714   C     0.48490   0.19516   0.72386   0.00000  Uiso   1.00
C715   C     0.46658   0.13757   0.77559   0.00000  Uiso   1.00
C716   C     0.53374   0.19517   0.72352   0.00000  Uiso   1.00
C717   C     0.63838   0.16646   0.83565   0.00000  Uiso   1.00
C718   C     0.36150   0.16525   0.66445   0.00000  Uiso   1.00
C719   C     0.62142   0.17135   0.88364   0.00000  Uiso   1.00
C720   C     0.37813   0.16143   0.61604   0.00000  Uiso   1.00
C721   C     0.63718   0.19404   0.94792   0.00000  Uiso   1.00
C722   C     0.36604   0.13633   0.55061   0.00000  Uiso   1.00
C723   C     0.65323   0.17733   0.90690   0.00000  Uiso   1.00
C724   C     0.34756   0.14317   0.59552   0.00000  Uiso   1.00
C725   C     0.57346   0.16409   0.90853   0.00000  Uiso   1.00
C726   C     0.42629   0.17358   0.59038   0.00000  Uiso   1.00
C727   C     0.55443   0.18257   0.94868   0.00000  Uiso   1.00
C728   C     0.44126   0.17459   0.54373   0.00000  Uiso   1.00
C729   C     0.58677   0.20043   0.96735   0.00000  Uiso   1.00
C730   C     0.41206   0.15251   0.52476   0.00000  Uiso   1.00
C731   C     0.50454   0.18087   0.97202   0.00000  Uiso   1.00
C732   C     0.48768   0.19097   0.51581   0.00000  Uiso   1.00
Cu733  Cu    0.38022   0.16667   0.75000   0.00000  Uiso   1.00
Cu734  Cu    0.61978   0.16666   0.75000   0.00000  Uiso   1.00
H735   H     0.59052   0.03708   0.76530   0.00000  Uiso   1.00
H736   H     0.40953   0.29647   0.73420   0.00000  Uiso   1.00
N737   N     0.45069   0.16668   0.74999   0.00000  Uiso   1.00
N738   N     0.54931   0.16666   0.75001   0.00000  Uiso   1.00
O739   O     0.37291   0.10655   0.75000   0.00000  Uiso   1.00
O740   O     0.62709   0.22678   0.75000   0.00000  Uiso   1.00
O741   O     0.62706   0.10654   0.75001   0.00000  Uiso   1.00
O742   O     0.37294   0.22679   0.75000   0.00000  Uiso   1.00
O743   O     0.35186   0.16668   0.81492   0.00000  Uiso   1.00
O744   O     0.64814   0.16666   0.68509   0.00000  Uiso   1.00
O745   O     0.60600   0.16667   0.81492   0.00000  Uiso   1.00
O746   O     0.39400   0.16667   0.68508   0.00000  Uiso   1.00
O747   O     0.59742   0.24874   0.51668   0.00000  Uiso   1.00
H748   H     0.58129   0.25544   0.54735   0.00000  Uiso   1.00
O749   O     0.41639   0.10992   0.96665   0.00000  Uiso   1.00
H750   H     0.44187   0.10311   0.93941   0.00000  Uiso   1.00
O751   O     0.45929   0.18026   0.61179   0.00000  Uiso   1.00
H752   H     0.49000   0.16758   0.59583   0.00000  Uiso   1.00
O753   O     0.54929   0.13297   0.89711   0.00000  Uiso   1.00
H754   H     0.53335   0.11476   0.92432   0.00000  Uiso   1.00
I755   I     0.60675   0.12326   0.62960   0.00000  Uiso   1.00
I756   I     0.37148   0.13178   0.89768   0.00000  Uiso   1.00
O757   O     0.33715   0.19919   0.96950   0.00000  Uiso   1.00
H758   H     0.65361   0.19546   0.50169   0.00000  Uiso   1.00
O759   O     0.33822   0.11648   0.53033   0.00000  Uiso   1.00
H760   H     0.65422   0.09277   0.55053   0.00000  Uiso   1.00
I761   I     0.48244   0.27033   0.56146   0.00000  Uiso   1.00
I762   I     0.47347   0.19661   0.88994   0.00000  Uiso   1.00
I763   I     0.55021   0.28553   0.78668   0.00000  Uiso   1.00
I764   I     0.44967   0.04825   0.71063   0.00000  Uiso   1.00
I765   I     0.53008   0.09273   0.82090   0.00000  Uiso   1.00
I766   I     0.46940   0.24061   0.67984   0.00000  Uiso   1.00
O767   O     0.43682   0.10586   0.80092   0.00000  Uiso   1.00
H768   H     0.40328   0.11292   0.80526   0.00000  Uiso   1.00
O769   O     0.56427   0.22530   0.69571   0.00000  Uiso   1.00
H770   H     0.59767   0.21939   0.69330   0.00000  Uiso   1.00
C771   C     0.66735   0.08773   0.74843   0.00000  Uiso   1.00
C772   C     0.99935   0.24564   0.75140   0.00000  Uiso   1.00
C773   C     0.85014   0.21959   0.52755   0.00000  Uiso   1.00
C774   C     0.80426   0.16818   0.95314   0.00000  Uiso   1.00
C775   C     0.90070   0.22249   0.50494   0.00000  Uiso   1.00
C776   C     0.76362   0.14558   0.98001   0.00000  Uiso   1.00
C777   C     0.95734   0.02122   0.75854   0.00000  Uiso   1.00
C778   C     0.70937   0.31227   0.74087   0.00000  Uiso   1.00
C779   C     0.95509   0.31199   0.76215   0.00000  Uiso   1.00
C780   C     0.71163   0.02151   0.73690   0.00000  Uiso   1.00
C781   C     0.99853   0.29034   0.75227   0.00000  Uiso   1.00
C782   C     0.66818   0.04311   0.74720   0.00000  Uiso   1.00
C783   C     0.84847   0.13806   0.77606   0.00000  Uiso   1.00
C784   C     0.81824   0.19516   0.72386   0.00000  Uiso   1.00
C785   C     0.79992   0.13757   0.77559   0.00000  Uiso   1.00
C786   C     0.86708   0.19517   0.72352   0.00000  Uiso   1.00
C787   C     0.97172   0.16646   0.83565   0.00000  Uiso   1.00
C788   C     0.69483   0.16525   0.66445   0.00000  Uiso   1.00
C789   C     0.95475   0.17135   0.88364   0.00000  Uiso   1.00
C790   C     0.71146   0.16143   0.61604   0.00000  Uiso   1.00
C791   C     0.97052   0.19404   0.94792   0.00000  Uiso   1.00
C792   C     0.69938   0.13633   0.55061   0.00000  Uiso   1.00
C793   C     0.98656   0.17733   0.90690   0.00000  Uiso   1.00
C794   C     0.68090   0.14317   0.59552   0.00000  Uiso   1.00
C795   C     0.90679   0.16409   0.90853   0.00000  Uiso   1.00
C796   C     0.75962   0.17358   0.59038   0.00000  Uiso   1.00
C797   C     0.88777   0.18257   0.94868   0.00000  Uiso   1.00
C798   C     0.77459   0.17459   0.54373   0.00000  Uiso   1.00
C799   C     0.92011   0.20043   0.96735   0.00000  Uiso   1.00
C800   C     0.74539   0.15251   0.52476   0.00000  Uiso   1.00
C801   C     0.83787   0.18087   0.97202   0.00000  Uiso   1.00
C802   C     0.82102   0.19097   0.51581   0.00000  Uiso   1.00
Cu803  Cu    0.71355   0.16667   0.75000   0.00000  Uiso   1.00
Cu804  Cu    0.95311   0.16666   0.75000   0.00000  Uiso   1.00
H805   H     0.92385   0.03708   0.76530   0.00000  Uiso   1.00
H806   H     0.74286   0.29647   0.73420   0.00000  Uiso   1.00
N807   N     0.78403   0.16668   0.74999   0.00000  Uiso   1.00
N808   N     0.88264   0.16666   0.75001   0.00000  Uiso   1.00
O809   O     0.70625   0.10655   0.75000   0.00000  Uiso   1.00
O810   O     0.96042   0.22678   0.75000   0.00000  Uiso   1.00
O811   O     0.96039   0.10654   0.75001   0.00000  Uiso   1.00
O812   O     0.70628   0.22679   0.75000   0.00000  Uiso   1.00
O813   O     0.68519   0.16668   0.81492   0.00000  Uiso   1.00
O814   O     0.98148   0.16666   0.68509   0.00000  Uiso   1.00
O815   O     0.93933   0.16667   0.81492   0.00000  Uiso   1.00
O816   O     0.72733   0.16667   0.68508   0.00000  Uiso   1.00
O817   O     0.93075   0.24874   0.51668   0.00000  Uiso   1.00
H818   H     0.91462   0.25544   0.54735   0.00000  Uiso   1.00
O819   O     0.74972   0.10992   0.96665   0.00000  Uiso   1.00
H820   H     0.77521   0.10311   0.93941   0.00000  Uiso   1.00
O821   O     0.79263   0.18026   0.61179   0.00000  Uiso   1.00
H822   H     0.82333   0.16758   0.59583   0.00000  Uiso   1.00
O823   O     0.88262   0.13297   0.89711   0.00000  Uiso   1.00
H824   H     0.86669   0.11476   0.92432   0.00000  Uiso   1.00
I825   I     0.94008   0.12326   0.62960   0.00000  Uiso   1.00
I826   I     0.70482   0.13178   0.89768   0.00000  Uiso   1.00
O827   O     0.67049   0.19919   0.96950   0.00000  Uiso   1.00
H828   H     0.98694   0.19546   0.50169   0.00000  Uiso   1.00
O829   O     0.67156   0.11648   0.53033   0.00000  Uiso   1.00
H830   H     0.98755   0.09277   0.55053   0.00000  Uiso   1.00
I831   I     0.81577   0.27033   0.56146   0.00000  Uiso   1.00
I832   I     0.80681   0.19661   0.88994   0.00000  Uiso   1.00
I833   I     0.88354   0.28553   0.78668   0.00000  Uiso   1.00
I834   I     0.78300   0.04825   0.71063   0.00000  Uiso   1.00
I835   I     0.86341   0.09273   0.82090   0.00000  Uiso   1.00
I836   I     0.80274   0.24061   0.67984   0.00000  Uiso   1.00
O837   O     0.77016   0.10586   0.80092   0.00000  Uiso   1.00
H838   H     0.73661   0.11292   0.80526   0.00000  Uiso   1.00
O839   O     0.89760   0.22530   0.69571   0.00000  Uiso   1.00
H840   H     0.93100   0.21939   0.69330   0.00000  Uiso   1.00
C841   C     0.00069   0.42106   0.74843   0.00000  Uiso   1.00
C842   C     0.33269   0.57898   0.75140   0.00000  Uiso   1.00
C843   C     0.18347   0.55293   0.52755   0.00000  Uiso   1.00
C844   C     0.13759   0.50152   0.95314   0.00000  Uiso   1.00
C845   C     0.23403   0.55582   0.50494   0.00000  Uiso   1.00
C846   C     0.09696   0.47892   0.98001   0.00000  Uiso   1.00
C847   C     0.29067   0.35455   0.75854   0.00000  Uiso   1.00
C848   C     0.04271   0.64561   0.74087   0.00000  Uiso   1.00
C849   C     0.28842   0.64533   0.76215   0.00000  Uiso   1.00
C850   C     0.04496   0.35485   0.73690   0.00000  Uiso   1.00
C851   C     0.33186   0.62368   0.75227   0.00000  Uiso   1.00
C852   C     0.00152   0.37644   0.74720   0.00000  Uiso   1.00
C853   C     0.18180   0.47139   0.77606   0.00000  Uiso   1.00
C854   C     0.15157   0.52849   0.72386   0.00000  Uiso   1.00
C855   C     0.13325   0.47090   0.77559   0.00000  Uiso   1.00
C856   C     0.20041   0.52850   0.72352   0.00000  Uiso   1.00
C857   C     0.30505   0.49980   0.83565   0.00000  Uiso   1.00
C858   C     0.02816   0.49858   0.66445   0.00000  Uiso   1.00
C859   C     0.28808   0.50468   0.88364   0.00000  Uiso   1.00
C860   C     0.04480   0.49476   0.61604   0.00000  Uiso   1.00
C861   C     0.30385   0.52737   0.94792   0.00000  Uiso   1.00
C862   C     0.03271   0.46966   0.55061   0.00000  Uiso   1.00
C863   C     0.31990   0.51067   0.90690   0.00000  Uiso   1.00
C864   C     0.01423   0.47650   0.59552   0.00000  Uiso   1.00
C865   C     0.24012   0.49742   0.90853   0.00000  Uiso   1.00
C866   C     0.09296   0.50692   0.59038   0.00000  Uiso   1.00
C867   C     0.22110   0.51590   0.94868   0.00000  Uiso   1.00
C868   C     0.10792   0.50792   0.54373   0.00000  Uiso   1.00
C869   C     0.25344   0.53376   0.96735   0.00000  Uiso   1.00
C870   C     0.07872   0.48585   0.52476   0.00000  Uiso   1.00
C871   C     0.17121   0.51420   0.97202   0.00000  Uiso   1.00
C872   C     0.15435   0.52431   0.51581   0.00000  Uiso   1.00
Cu873  Cu    0.04689   0.50001   0.75000   0.00000  Uiso   1.00
Cu874  Cu    0.28645   0.49999   0.75000   0.00000  Uiso   1.00
H875   H     0.25718   0.37041   0.76530   0.00000  Uiso   1.00
H876   H     0.07619   0.62980   0.73420   0.00000  Uiso   1.00
N877   N     0.11736   0.50001   0.74999   0.00000  Uiso   1.00
N878   N     0.21597   0.49999   0.75001   0.00000  Uiso   1.00
O879   O     0.03958   0.43989   0.75000   0.00000  Uiso   1.00
O880   O     0.29375   0.56011   0.75000   0.00000  Uiso   1.00
O881   O     0.29372   0.43988   0.75001   0.00000  Uiso   1.00
O882   O     0.03961   0.56012   0.75000   0.00000  Uiso   1.00
O883   O     0.01852   0.50001   0.81492   0.00000  Uiso   1.00
O884   O     0.31481   0.49999   0.68509   0.00000  Uiso   1.00
O885   O     0.27267   0.50000   0.81492   0.00000  Uiso   1.00
O886   O     0.06067   0.50000   0.68508   0.00000  Uiso   1.00
O887   O     0.26409   0.58207   0.51668   0.00000  Uiso   1.00
H888   H     0.24796   0.58877   0.54735   0.00000  Uiso   1.00
O889   O     0.08305   0.44325   0.96665   0.00000  Uiso   1.00
H890   H     0.10854   0.43644   0.93941   0.00000  Uiso   1.00
O891   O     0.12596   0.51359   0.61179   0.00000  Uiso   1.00
H892   H     0.15667   0.50091   0.59583   0.00000  Uiso   1.00
O893   O     0.21595   0.46630   0.89711   0.00000  Uiso   1.00
H894   H     0.20002   0.44809   0.92432   0.00000  Uiso   1.00
I895   I     0.27341   0.45659   0.62960   0.00000  Uiso   1.00
I896   I     0.03815   0.46511   0.89768   0.00000  Uiso   1.00
O897   O     0.00382   0.53253   0.96950   0.00000  Uiso   1.00
H898   H     0.32028   0.52879   0.50169   0.00000  Uiso   1.00
O899   O     0.00489   0.44981   0.53033   0.00000  Uiso   1.00
H900   H     0.32089   0.42610   0.55053   0.00000  Uiso   1.00
I901   I     0.14910   0.60366   0.56146   0.00000  Uiso   1.00
I902   I     0.14014   0.52995   0.88994   0.00000  Uiso   1.00
I903   I     0.21687   0.61886   0.78668   0.00000  Uiso   1.00
I904   I     0.11634   0.38158   0.71063   0.00000  Uiso   1.00
I905   I     0.19675   0.42606   0.82090   0.00000  Uiso   1.00
I906   I     0.13607   0.57394   0.67984   0.00000  Uiso   1.00
O907   O     0.10349   0.43920   0.80092   0.00000  Uiso   1.00
H908   H     0.06994   0.44625   0.80526   0.00000  Uiso   1.00
O909   O     0.23093   0.55863   0.69571   0.00000  Uiso   1.00
H910   H     0.26434   0.55272   0.69330   0.00000  Uiso   1.00
C911   C     0.33402   0.42106   0.74843   0.00000  Uiso   1.00
C912   C     0.66602   0.57898   0.75140   0.00000  Uiso   1.00
C913   C     0.51681   0.55293   0.52755   0.00000  Uiso   1.00
C914   C     0.47093   0.50152   0.95314   0.00000  Uiso   1.00
C915   C     0.56737   0.55582   0.50494   0.00000  Uiso   1.00
C916   C     0.43029   0.47892   0.98001   0.00000  Uiso   1.00
C917   C     0.62400   0.35455   0.75854   0.00000  Uiso   1.00
C918   C     0.37604   0.64561   0.74087   0.00000  Uiso   1.00
C919   C     0.62176   0.64533   0.76215   0.00000  Uiso   1.00
C920   C     0.37829   0.35485   0.73690   0.00000  Uiso   1.00
C921   C     0.66520   0.62368   0.75227   0.00000  Uiso   1.00
C922   C     0.33485   0.37644   0.74720   0.00000  Uiso   1.00
C923   C     0.51513   0.47139   0.77606   0.00000  Uiso   1.00
C924   C     0.48490   0.52849   0.72386   0.00000  Uiso   1.00
C925   C     0.46658   0.47090   0.77559   0.00000  Uiso   1.00
C926   C     0.53374   0.52850   0.72352   0.00000  Uiso   1.00
C927   C     0.63838   0.49980   0.83565   0.00000  Uiso   1.00
C928   C     0.36150   0.49858   0.66445   0.00000  Uiso   1.00
C929   C     0.62142   0.50468   0.88364   0.00000  Uiso   1.00
C930   C     0.37813   0.49476   0.61604   0.00000  Uiso   1.00
C931   C     0.63718   0.52737   0.94792   0.00000  Uiso   1.00
C932   C     0.36604   0.46966   0.55061   0.00000  Uiso   1.00
C933   C     0.65323   0.51067   0.90690   0.00000  Uiso   1.00
C934   C     0.34756   0.47650   0.59552   0.00000  Uiso   1.00
C935   C     0.57346   0.49742   0.90853   0.00000  Uiso   1.00
C936   C     0.42629   0.50692   0.59038   0.00000  Uiso   1.00
C937   C     0.55443   0.51590   0.94868   0.00000  Uiso   1.00
C938   C     0.44126   0.50792   0.54373   0.00000  Uiso   1.00
C939   C     0.58677   0.53376   0.96735   0.00000  Uiso   1.00
C940   C     0.41206   0.48585   0.52476   0.00000  Uiso   1.00
C941   C     0.50454   0.51420   0.97202   0.00000  Uiso   1.00
C942   C     0.48768   0.52431   0.51581   0.00000  Uiso   1.00
Cu943  Cu    0.38022   0.50001   0.75000   0.00000  Uiso   1.00
Cu944  Cu    0.61978   0.49999   0.75000   0.00000  Uiso   1.00
H945   H     0.59052   0.37041   0.76530   0.00000  Uiso   1.00
H946   H     0.40953   0.62980   0.73420   0.00000  Uiso   1.00
N947   N     0.45069   0.50001   0.74999   0.00000  Uiso   1.00
N948   N     0.54931   0.49999   0.75001   0.00000  Uiso   1.00
O949   O     0.37291   0.43989   0.75000   0.00000  Uiso   1.00
O950   O     0.62709   0.56011   0.75000   0.00000  Uiso   1.00
O951   O     0.62706   0.43988   0.75001   0.00000  Uiso   1.00
O952   O     0.37294   0.56012   0.75000   0.00000  Uiso   1.00
O953   O     0.35186   0.50001   0.81492   0.00000  Uiso   1.00
O954   O     0.64814   0.49999   0.68509   0.00000  Uiso   1.00
O955   O     0.60600   0.50000   0.81492   0.00000  Uiso   1.00
O956   O     0.39400   0.50000   0.68508   0.00000  Uiso   1.00
O957   O     0.59742   0.58207   0.51668   0.00000  Uiso   1.00
H958   H     0.58129   0.58877   0.54735   0.00000  Uiso   1.00
O959   O     0.41639   0.44325   0.96665   0.00000  Uiso   1.00
H960   H     0.44187   0.43644   0.93941   0.00000  Uiso   1.00
O961   O     0.45929   0.51359   0.61179   0.00000  Uiso   1.00
H962   H     0.49000   0.50091   0.59583   0.00000  Uiso   1.00
O963   O     0.54929   0.46630   0.89711   0.00000  Uiso   1.00
H964   H     0.53335   0.44809   0.92432   0.00000  Uiso   1.00
I965   I     0.60675   0.45659   0.62960   0.00000  Uiso   1.00
I966   I     0.37148   0.46511   0.89768   0.00000  Uiso   1.00
O967   O     0.33715   0.53253   0.96950   0.00000  Uiso   1.00
H968   H     0.65361   0.52879   0.50169   0.00000  Uiso   1.00
O969   O     0.33822   0.44981   0.53033   0.00000  Uiso   1.00
H970   H     0.65422   0.42610   0.55053   0.00000  Uiso   1.00
I971   I     0.48244   0.60366   0.56146   0.00000  Uiso   1.00
I972   I     0.47347   0.52995   0.88994   0.00000  Uiso   1.00
I973   I     0.55021   0.61886   0.78668   0.00000  Uiso   1.00
I974   I     0.44967   0.38158   0.71063   0.00000  Uiso   1.00
I975   I     0.53008   0.42606   0.82090   0.00000  Uiso   1.00
I976   I     0.46940   0.57394   0.67984   0.00000  Uiso   1.00
O977   O     0.43682   0.43920   0.80092   0.00000  Uiso   1.00
H978   H     0.40328   0.44625   0.80526   0.00000  Uiso   1.00
O979   O     0.56427   0.55863   0.69571   0.00000  Uiso   1.00
H980   H     0.59767   0.55272   0.69330   0.00000  Uiso   1.00
C981   C     0.66735   0.42106   0.74843   0.00000  Uiso   1.00
C982   C     0.99935   0.57898   0.75140   0.00000  Uiso   1.00
C983   C     0.85014   0.55293   0.52755   0.00000  Uiso   1.00
C984   C     0.80426   0.50152   0.95314   0.00000  Uiso   1.00
C985   C     0.90070   0.55582   0.50494   0.00000  Uiso   1.00
C986   C     0.76362   0.47892   0.98001   0.00000  Uiso   1.00
C987   C     0.95734   0.35455   0.75854   0.00000  Uiso   1.00
C988   C     0.70937   0.64561   0.74087   0.00000  Uiso   1.00
C989   C     0.95509   0.64533   0.76215   0.00000  Uiso   1.00
C990   C     0.71163   0.35485   0.73690   0.00000  Uiso   1.00
C991   C     0.99853   0.62368   0.75227   0.00000  Uiso   1.00
C992   C     0.66818   0.37644   0.74720   0.00000  Uiso   1.00
C993   C     0.84847   0.47139   0.77606   0.00000  Uiso   1.00
C994   C     0.81824   0.52849   0.72386   0.00000  Uiso   1.00
C995   C     0.79992   0.47090   0.77559   0.00000  Uiso   1.00
C996   C     0.86708   0.52850   0.72352   0.00000  Uiso   1.00
C997   C     0.97172   0.49980   0.83565   0.00000  Uiso   1.00
C998   C     0.69483   0.49858   0.66445   0.00000  Uiso   1.00
C999   C     0.95475   0.50468   0.88364   0.00000  Uiso   1.00
C1000  C     0.71146   0.49476   0.61604   0.00000  Uiso   1.00
C1001  C     0.97052   0.52737   0.94792   0.00000  Uiso   1.00
C1002  C     0.69938   0.46966   0.55061   0.00000  Uiso   1.00
C1003  C     0.98656   0.51067   0.90690   0.00000  Uiso   1.00
C1004  C     0.68090   0.47650   0.59552   0.00000  Uiso   1.00
C1005  C     0.90679   0.49742   0.90853   0.00000  Uiso   1.00
C1006  C     0.75962   0.50692   0.59038   0.00000  Uiso   1.00
C1007  C     0.88777   0.51590   0.94868   0.00000  Uiso   1.00
C1008  C     0.77459   0.50792   0.54373   0.00000  Uiso   1.00
C1009  C     0.92011   0.53376   0.96735   0.00000  Uiso   1.00
C1010  C     0.74539   0.48585   0.52476   0.00000  Uiso   1.00
C1011  C     0.83787   0.51420   0.97202   0.00000  Uiso   1.00
C1012  C     0.82102   0.52431   0.51581   0.00000  Uiso   1.00
Cu1013 Cu    0.71355   0.50001   0.75000   0.00000  Uiso   1.00
Cu1014 Cu    0.95311   0.49999   0.75000   0.00000  Uiso   1.00
H1015  H     0.92385   0.37041   0.76530   0.00000  Uiso   1.00
H1016  H     0.74286   0.62980   0.73420   0.00000  Uiso   1.00
N1017  N     0.78403   0.50001   0.74999   0.00000  Uiso   1.00
N1018  N     0.88264   0.49999   0.75001   0.00000  Uiso   1.00
O1019  O     0.70625   0.43989   0.75000   0.00000  Uiso   1.00
O1020  O     0.96042   0.56011   0.75000   0.00000  Uiso   1.00
O1021  O     0.96039   0.43988   0.75001   0.00000  Uiso   1.00
O1022  O     0.70628   0.56012   0.75000   0.00000  Uiso   1.00
O1023  O     0.68519   0.50001   0.81492   0.00000  Uiso   1.00
O1024  O     0.98148   0.49999   0.68509   0.00000  Uiso   1.00
O1025  O     0.93933   0.50000   0.81492   0.00000  Uiso   1.00
O1026  O     0.72733   0.50000   0.68508   0.00000  Uiso   1.00
O1027  O     0.93075   0.58207   0.51668   0.00000  Uiso   1.00
H1028  H     0.91462   0.58877   0.54735   0.00000  Uiso   1.00
O1029  O     0.74972   0.44325   0.96665   0.00000  Uiso   1.00
H1030  H     0.77521   0.43644   0.93941   0.00000  Uiso   1.00
O1031  O     0.79263   0.51359   0.61179   0.00000  Uiso   1.00
H1032  H     0.82333   0.50091   0.59583   0.00000  Uiso   1.00
O1033  O     0.88262   0.46630   0.89711   0.00000  Uiso   1.00
H1034  H     0.86669   0.44809   0.92432   0.00000  Uiso   1.00
I1035  I     0.94008   0.45659   0.62960   0.00000  Uiso   1.00
I1036  I     0.70482   0.46511   0.89768   0.00000  Uiso   1.00
O1037  O     0.67049   0.53253   0.96950   0.00000  Uiso   1.00
H1038  H     0.98694   0.52879   0.50169   0.00000  Uiso   1.00
O1039  O     0.67156   0.44981   0.53033   0.00000  Uiso   1.00
H1040  H     0.98755   0.42610   0.55053   0.00000  Uiso   1.00
I1041  I     0.81577   0.60366   0.56146   0.00000  Uiso   1.00
I1042  I     0.80681   0.52995   0.88994   0.00000  Uiso   1.00
I1043  I     0.88354   0.61886   0.78668   0.00000  Uiso   1.00
I1044  I     0.78300   0.38158   0.71063   0.00000  Uiso   1.00
I1045  I     0.86341   0.42606   0.82090   0.00000  Uiso   1.00
I1046  I     0.80274   0.57394   0.67984   0.00000  Uiso   1.00
O1047  O     0.77016   0.43920   0.80092   0.00000  Uiso   1.00
H1048  H     0.73661   0.44625   0.80526   0.00000  Uiso   1.00
O1049  O     0.89760   0.55863   0.69571   0.00000  Uiso   1.00
H1050  H     0.93100   0.55272   0.69330   0.00000  Uiso   1.00
C1051  C     0.00069   0.75440   0.74843   0.00000  Uiso   1.00
C1052  C     0.33269   0.91231   0.75140   0.00000  Uiso   1.00
C1053  C     0.18347   0.88626   0.52755   0.00000  Uiso   1.00
C1054  C     0.13759   0.83485   0.95314   0.00000  Uiso   1.00
C1055  C     0.23403   0.88915   0.50494   0.00000  Uiso   1.00
C1056  C     0.09696   0.81225   0.98001   0.00000  Uiso   1.00
C1057  C     0.29067   0.68789   0.75854   0.00000  Uiso   1.00
C1058  C     0.04271   0.97894   0.74087   0.00000  Uiso   1.00
C1059  C     0.28842   0.97866   0.76215   0.00000  Uiso   1.00
C1060  C     0.04496   0.68818   0.73690   0.00000  Uiso   1.00
C1061  C     0.33186   0.95701   0.75227   0.00000  Uiso   1.00
C1062  C     0.00152   0.70977   0.74720   0.00000  Uiso   1.00
C1063  C     0.18180   0.80472   0.77606   0.00000  Uiso   1.00
C1064  C     0.15157   0.86183   0.72386   0.00000  Uiso   1.00
C1065  C     0.13325   0.80423   0.77559   0.00000  Uiso   1.00
C1066  C     0.20041   0.86183   0.72352   0.00000  Uiso   1.00
C1067  C     0.30505   0.83313   0.83565   0.00000  Uiso   1.00
C1068  C     0.02816   0.83192   0.66445   0.00000  Uiso   1.00
C1069  C     0.28808   0.83802   0.88364   0.00000  Uiso   1.00
C1070  C     0.04480   0.82810   0.61604   0.00000  Uiso   1.00
C1071  C     0.30385   0.86070   0.94792   0.00000  Uiso   1.00
C1072  C     0.03271   0.80300   0.55061   0.00000  Uiso   1.00
C1073  C     0.31990   0.84400   0.90690   0.00000  Uiso   1.00
C1074  C     0.01423   0.80983   0.59552   0.00000  Uiso   1.00
C1075  C     0.24012   0.83075   0.90853   0.00000  Uiso   1.00
C1076  C     0.09296   0.84025   0.59038   0.00000  Uiso   1.00
C1077  C     0.22110   0.84923   0.94868   0.00000  Uiso   1.00
C1078  C     0.10792   0.84126   0.54373   0.00000  Uiso   1.00
C1079  C     0.25344   0.86710   0.96735   0.00000  Uiso   1.00
C1080  C     0.07872   0.81918   0.52476   0.00000  Uiso   1.00
C1081  C     0.17121   0.84753   0.97202   0.00000  Uiso   1.00
C1082  C     0.15435   0.85764   0.51581   0.00000  Uiso   1.00
Cu1083 Cu    0.04689   0.83334   0.75000   0.00000  Uiso   1.00
Cu1084 Cu    0.28645   0.83333   0.75000   0.00000  Uiso   1.00
H1085  H     0.25718   0.70375   0.76530   0.00000  Uiso   1.00
H1086  H     0.07619   0.96314   0.73420   0.00000  Uiso   1.00
N1087  N     0.11736   0.83334   0.74999   0.00000  Uiso   1.00
N1088  N     0.21597   0.83332   0.75001   0.00000  Uiso   1.00
O1089  O     0.03958   0.77322   0.75000   0.00000  Uiso   1.00
O1090  O     0.29375   0.89345   0.75000   0.00000  Uiso   1.00
O1091  O     0.29372   0.77321   0.75001   0.00000  Uiso   1.00
O1092  O     0.03961   0.89346   0.75000   0.00000  Uiso   1.00
O1093  O     0.01852   0.83334   0.81492   0.00000  Uiso   1.00
O1094  O     0.31481   0.83332   0.68509   0.00000  Uiso   1.00
O1095  O     0.27267   0.83333   0.81492   0.00000  Uiso   1.00
O1096  O     0.06067   0.83333   0.68508   0.00000  Uiso   1.00
O1097  O     0.26409   0.91540   0.51668   0.00000  Uiso   1.00
H1098  H     0.24796   0.92210   0.54735   0.00000  Uiso   1.00
O1099  O     0.08305   0.77658   0.96665   0.00000  Uiso   1.00
H1100  H     0.10854   0.76977   0.93941   0.00000  Uiso   1.00
O1101  O     0.12596   0.84692   0.61179   0.00000  Uiso   1.00
H1102  H     0.15667   0.83424   0.59583   0.00000  Uiso   1.00
O1103  O     0.21595   0.79963   0.89711   0.00000  Uiso   1.00
H1104  H     0.20002   0.78142   0.92432   0.00000  Uiso   1.00
I1105  I     0.27341   0.78993   0.62960   0.00000  Uiso   1.00
I1106  I     0.03815   0.79845   0.89768   0.00000  Uiso   1.00
O1107  O     0.00382   0.86586   0.96950   0.00000  Uiso   1.00
H1108  H     0.32028   0.86212   0.50169   0.00000  Uiso   1.00
O1109  O     0.00489   0.78315   0.53033   0.00000  Uiso   1.00
H1110  H     0.32089   0.75944   0.55053   0.00000  Uiso   1.00
I1111  I     0.14910   0.93699   0.56146   0.00000  Uiso   1.00
I1112  I     0.14014   0.86328   0.88994   0.00000  Uiso   1.00
I1113  I     0.21687   0.95220   0.78668   0.00000  Uiso   1.00
I1114  I     0.11634   0.71491   0.71063   0.00000  Uiso   1.00
I1115  I     0.19675   0.75939   0.82090   0.00000  Uiso   1.00
I1116  I     0.13607   0.90727   0.67984   0.00000  Uiso   1.00
O1117  O     0.10349   0.77253   0.80092   0.00000  Uiso   1.00
H1118  H     0.06994   0.77958   0.80526   0.00000  Uiso   1.00
O1119  O     0.23093   0.89196   0.69571   0.00000  Uiso   1.00
H1120  H     0.26434   0.88606   0.69330   0.00000  Uiso   1.00
C1121  C     0.33402   0.75440   0.74843   0.00000  Uiso   1.00
C1122  C     0.66602   0.91231   0.75140   0.00000  Uiso   1.00
C1123  C     0.51681   0.88626   0.52755   0.00000  Uiso   1.00
C1124  C     0.47093   0.83485   0.95314   0.00000  Uiso   1.00
C1125  C     0.56737   0.88915   0.50494   0.00000  Uiso   1.00
C1126  C     0.43029   0.81225   0.98001   0.00000  Uiso   1.00
C1127  C     0.62400   0.68789   0.75854   0.00000  Uiso   1.00
C1128  C     0.37604   0.97894   0.74087   0.00000  Uiso   1.00
C1129  C     0.62176   0.97866   0.76215   0.00000  Uiso   1.00
C1130  C     0.37829   0.68818   0.73690   0.00000  Uiso   1.00
C1131  C     0.66520   0.95701   0.75227   0.00000  Uiso   1.00
C1132  C     0.33485   0.70977   0.74720   0.00000  Uiso   1.00
C1133  C     0.51513   0.80472   0.77606   0.00000  Uiso   1.00
C1134  C     0.48490   0.86183   0.72386   0.00000  Uiso   1.00
C1135  C     0.46658   0.80423   0.77559   0.00000  Uiso   1.00
C1136  C     0.53374   0.86183   0.72352   0.00000  Uiso   1.00
C1137  C     0.63838   0.83313   0.83565   0.00000  Uiso   1.00
C1138  C     0.36150   0.83192   0.66445   0.00000  Uiso   1.00
C1139  C     0.62142   0.83802   0.88364   0.00000  Uiso   1.00
C1140  C     0.37813   0.82810   0.61604   0.00000  Uiso   1.00
C1141  C     0.63718   0.86070   0.94792   0.00000  Uiso   1.00
C1142  C     0.36604   0.80300   0.55061   0.00000  Uiso   1.00
C1143  C     0.65323   0.84400   0.90690   0.00000  Uiso   1.00
C1144  C     0.34756   0.80983   0.59552   0.00000  Uiso   1.00
C1145  C     0.57346   0.83075   0.90853   0.00000  Uiso   1.00
C1146  C     0.42629   0.84025   0.59038   0.00000  Uiso   1.00
C1147  C     0.55443   0.84923   0.94868   0.00000  Uiso   1.00
C1148  C     0.44126   0.84126   0.54373   0.00000  Uiso   1.00
C1149  C     0.58677   0.86710   0.96735   0.00000  Uiso   1.00
C1150  C     0.41206   0.81918   0.52476   0.00000  Uiso   1.00
C1151  C     0.50454   0.84753   0.97202   0.00000  Uiso   1.00
C1152  C     0.48768   0.85764   0.51581   0.00000  Uiso   1.00
Cu1153 Cu    0.38022   0.83334   0.75000   0.00000  Uiso   1.00
Cu1154 Cu    0.61978   0.83333   0.75000   0.00000  Uiso   1.00
H1155  H     0.59052   0.70375   0.76530   0.00000  Uiso   1.00
H1156  H     0.40953   0.96314   0.73420   0.00000  Uiso   1.00
N1157  N     0.45069   0.83334   0.74999   0.00000  Uiso   1.00
N1158  N     0.54931   0.83332   0.75001   0.00000  Uiso   1.00
O1159  O     0.37291   0.77322   0.75000   0.00000  Uiso   1.00
O1160  O     0.62709   0.89345   0.75000   0.00000  Uiso   1.00
O1161  O     0.62706   0.77321   0.75001   0.00000  Uiso   1.00
O1162  O     0.37294   0.89346   0.75000   0.00000  Uiso   1.00
O1163  O     0.35186   0.83334   0.81492   0.00000  Uiso   1.00
O1164  O     0.64814   0.83332   0.68509   0.00000  Uiso   1.00
O1165  O     0.60600   0.83333   0.81492   0.00000  Uiso   1.00
O1166  O     0.39400   0.83333   0.68508   0.00000  Uiso   1.00
O1167  O     0.59742   0.91540   0.51668   0.00000  Uiso   1.00
H1168  H     0.58129   0.92210   0.54735   0.00000  Uiso   1.00
O1169  O     0.41639   0.77658   0.96665   0.00000  Uiso   1.00
H1170  H     0.44187   0.76977   0.93941   0.00000  Uiso   1.00
O1171  O     0.45929   0.84692   0.61179   0.00000  Uiso   1.00
H1172  H     0.49000   0.83424   0.59583   0.00000  Uiso   1.00
O1173  O     0.54929   0.79963   0.89711   0.00000  Uiso   1.00
H1174  H     0.53335   0.78142   0.92432   0.00000  Uiso   1.00
I1175  I     0.60675   0.78993   0.62960   0.00000  Uiso   1.00
I1176  I     0.37148   0.79845   0.89768   0.00000  Uiso   1.00
O1177  O     0.33715   0.86586   0.96950   0.00000  Uiso   1.00
H1178  H     0.65361   0.86212   0.50169   0.00000  Uiso   1.00
O1179  O     0.33822   0.78315   0.53033   0.00000  Uiso   1.00
H1180  H     0.65422   0.75944   0.55053   0.00000  Uiso   1.00
I1181  I     0.48244   0.93699   0.56146   0.00000  Uiso   1.00
I1182  I     0.47347   0.86328   0.88994   0.00000  Uiso   1.00
I1183  I     0.55021   0.95220   0.78668   0.00000  Uiso   1.00
I1184  I     0.44967   0.71491   0.71063   0.00000  Uiso   1.00
I1185  I     0.53008   0.75939   0.82090   0.00000  Uiso   1.00
I1186  I     0.46940   0.90727   0.67984   0.00000  Uiso   1.00
O1187  O     0.43682   0.77253   0.80092   0.00000  Uiso   1.00
H1188  H     0.40328   0.77958   0.80526   0.00000  Uiso   1.00
O1189  O     0.56427   0.89196   0.69571   0.00000  Uiso   1.00
H1190  H     0.59767   0.88606   0.69330   0.00000  Uiso   1.00
C1191  C     0.66735   0.75440   0.74843   0.00000  Uiso   1.00
C1192  C     0.99935   0.91231   0.75140   0.00000  Uiso   1.00
C1193  C     0.85014   0.88626   0.52755   0.00000  Uiso   1.00
C1194  C     0.80426   0.83485   0.95314   0.00000  Uiso   1.00
C1195  C     0.90070   0.88915   0.50494   0.00000  Uiso   1.00
C1196  C     0.76362   0.81225   0.98001   0.00000  Uiso   1.00
C1197  C     0.95734   0.68789   0.75854   0.00000  Uiso   1.00
C1198  C     0.70937   0.97894   0.74087   0.00000  Uiso   1.00
C1199  C     0.95509   0.97866   0.76215   0.00000  Uiso   1.00
C1200  C     0.71163   0.68818   0.73690   0.00000  Uiso   1.00
C1201  C     0.99853   0.95701   0.75227   0.00000  Uiso   1.00
C1202  C     0.66818   0.70977   0.74720   0.00000  Uiso   1.00
C1203  C     0.84847   0.80472   0.77606   0.00000  Uiso   1.00
C1204  C     0.81824   0.86183   0.72386   0.00000  Uiso   1.00
C1205  C     0.79992   0.80423   0.77559   0.00000  Uiso   1.00
C1206  C     0.86708   0.86183   0.72352   0.00000  Uiso   1.00
C1207  C     0.97172   0.83313   0.83565   0.00000  Uiso   1.00
C1208  C     0.69483   0.83192   0.66445   0.00000  Uiso   1.00
C1209  C     0.95475   0.83802   0.88364   0.00000  Uiso   1.00
C1210  C     0.71146   0.82810   0.61604   0.00000  Uiso   1.00
C1211  C     0.97052   0.86070   0.94792   0.00000  Uiso   1.00
C1212  C     0.69938   0.80300   0.55061   0.00000  Uiso   1.00
C1213  C     0.98656   0.84400   0.90690   0.00000  Uiso   1.00
C1214  C     0.68090   0.80983   0.59552   0.00000  Uiso   1.00
C1215  C     0.90679   0.83075   0.90853   0.00000  Uiso   1.00
C1216  C     0.75962   0.84025   0.59038   0.00000  Uiso   1.00
C1217  C     0.88777   0.84923   0.94868   0.00000  Uiso   1.00
C1218  C     0.77459   0.84126   0.54373   0.00000  Uiso   1.00
C1219  C     0.92011   0.86710   0.96735   0.00000  Uiso   1.00
C1220  C     0.74539   0.81918   0.52476   0.00000  Uiso   1.00
C1221  C     0.83787   0.84753   0.97202   0.00000  Uiso   1.00
C1222  C     0.82102   0.85764   0.51581   0.00000  Uiso   1.00
Cu1223 Cu    0.71355   0.83334   0.75000   0.00000  Uiso   1.00
Cu1224 Cu    0.95311   0.83333   0.75000   0.00000  Uiso   1.00
H1225  H     0.92385   0.70375   0.76530   0.00000  Uiso   1.00
H1226  H     0.74286   0.96314   0.73420   0.00000  Uiso   1.00
N1227  N     0.78403   0.83334   0.74999   0.00000  Uiso   1.00
N1228  N     0.88264   0.83332   0.75001   0.00000  Uiso   1.00
O1229  O     0.70625   0.77322   0.75000   0.00000  Uiso   1.00
O1230  O     0.96042   0.89345   0.75000   0.00000  Uiso   1.00
O1231  O     0.96039   0.77321   0.75001   0.00000  Uiso   1.00
O1232  O     0.70628   0.89346   0.75000   0.00000  Uiso   1.00
O1233  O     0.68519   0.83334   0.81492   0.00000  Uiso   1.00
O1234  O     0.98148   0.83332   0.68509   0.00000  Uiso   1.00
O1235  O     0.93933   0.83333   0.81492   0.00000  Uiso   1.00
O1236  O     0.72733   0.83333   0.68508   0.00000  Uiso   1.00
O1237  O     0.93075   0.91540   0.51668   0.00000  Uiso   1.00
H1238  H     0.91462   0.92210   0.54735   0.00000  Uiso   1.00
O1239  O     0.74972   0.77658   0.96665   0.00000  Uiso   1.00
H1240  H     0.77521   0.76977   0.93941   0.00000  Uiso   1.00
O1241  O     0.79263   0.84692   0.61179   0.00000  Uiso   1.00
H1242  H     0.82333   0.83424   0.59583   0.00000  Uiso   1.00
O1243  O     0.88262   0.79963   0.89711   0.00000  Uiso   1.00
H1244  H     0.86669   0.78142   0.92432   0.00000  Uiso   1.00
I1245  I     0.94008   0.78993   0.62960   0.00000  Uiso   1.00
I1246  I     0.70482   0.79845   0.89768   0.00000  Uiso   1.00
O1247  O     0.67049   0.86586   0.96950   0.00000  Uiso   1.00
H1248  H     0.98694   0.86212   0.50169   0.00000  Uiso   1.00
O1249  O     0.67156   0.78315   0.53033   0.00000  Uiso   1.00
H1250  H     0.98755   0.75944   0.55053   0.00000  Uiso   1.00
I1251  I     0.81577   0.93699   0.56146   0.00000  Uiso   1.00
I1252  I     0.80681   0.86328   0.88994   0.00000  Uiso   1.00
I1253  I     0.88354   0.95220   0.78668   0.00000  Uiso   1.00
I1254  I     0.78300   0.71491   0.71063   0.00000  Uiso   1.00
I1255  I     0.86341   0.75939   0.82090   0.00000  Uiso   1.00
I1256  I     0.80274   0.90727   0.67984   0.00000  Uiso   1.00
O1257  O     0.77016   0.77253   0.80092   0.00000  Uiso   1.00
H1258  H     0.73661   0.77958   0.80526   0.00000  Uiso   1.00
O1259  O     0.89760   0.89196   0.69571   0.00000  Uiso   1.00
H1260  H     0.93100   0.88606   0.69330   0.00000  Uiso   1.00
loop_
_geom_bond_atom_site_label_1
_geom_bond_atom_site_label_2
_geom_bond_distance
_geom_bond_site_symmetry_2
_ccdc_geom_bond_type
C1     C12     1.460   .     S
C1     O39     1.307   .     A
C1     O181    1.318   1_455 S
C2     O40     1.306   .     A
C2     C11     1.462   .     S
C2     O112    1.318   .     S
C3     C5      1.421   .     A
C3     C32     1.413   .     A
C3     I61     2.134   .     S
C4     I62     2.137   .     S
C4     C6      1.389   .     A
C4     C31     1.386   .     A
C5     O47     1.381   .     S
C5     C659    1.417   1_554 S
C6     O49     1.377   .     S
C6     C660    1.402   .     S
C7     H35     1.076   .     S
C7     C429    1.384   1_545 S
C7     C82     1.399   .     S
C8     H36     1.075   .     S
C8     C220    1.384   .     S
C8     C151    1.400   1_455 S
C9     C11     1.413   .     A
C9     I63     2.134   .     S
C9     C217    1.384   .     S
C10    I64     2.135   .     S
C10    C12     1.412   .     A
C10    C428    1.384   1_545 S
C11    C78     1.400   .     S
C12    C147    1.399   1_455 S
C13    I65     2.121   .     S
C13    N38     1.377   .     A
C13    C15     1.423   .     A
C14    I66     2.112   .     S
C14    C16     1.423   .     A
C14    N37     1.376   .     A
C15    O67     1.374   .     S
C15    N37     1.381   .     A
C16    O69     1.377   .     S
C16    N38     1.383   .     A
C17    O45     1.318   .     A
C17    C19     1.483   .     S
C17    O113    1.315   .     S
C18    O46     1.322   .     A
C18    C20     1.489   .     S
C18    O184    1.315   1_455 S
C19    C23     1.387   .     A
C19    C25     1.381   .     A
C20    C26     1.420   .     A
C20    C24     1.423   .     A
C21    C29     1.427   .     A
C21    C23     1.407   .     A
C21    O127    1.379   .     S
C22    C24     1.407   .     A
C22    O59     1.381   .     S
C22    C30     1.408   .     A
C23    I126    2.091   .     S
C24    I195    2.160   1_455 S
C25    O53     1.374   .     S
C25    C27     1.418   .     A
C26    C28     1.417   .     A
C26    O51     1.377   .     S
C27    C29     1.417   .     A
C27    C31     1.408   .     A
C28    C32     1.437   .     A
C28    C30     1.421   .     A
C29    C635    1.417   .     S
C30    C636    1.402   1_554 S
C31    C662    1.402   .     S
C32    C661    1.402   1_554 S
Cu33   O46     1.993   .     S
Cu33   O39     1.973   .     S
Cu33   O42     1.974   .     S
Cu33   O43     1.982   .     S
Cu33   N37     2.058   .     S
Cu33   Cu174   2.738   1_455 S
Cu34   O41     1.974   .     S
Cu34   O45     1.993   .     S
Cu34   O40     1.973   .     S
Cu34   O44     1.982   .     S
Cu34   N38     2.058   .     S
Cu34   Cu103   2.738   .     S
O41    C71     1.318   .     S
O42    C142    1.318   1_455 S
O43    C157    1.315   1_455 S
O44    C88     1.315   .     S
O47    H48     0.990   .     S
O49    H50     0.993   .     S
O51    H52     0.991   .     S
O53    H54     0.992   .     S
I55    C94     2.160   .     S
I56    C163    2.091   1_455 S
O57    C161    1.379   1_455 S
O57    H828    0.989   1_455 S
H58    O757    0.989   1_554 S
O59    H200    0.989   1_455 S
H60    O129    0.989   .     S
O67    H68     0.976   .     S
O69    H70     0.975   .     S
C71    C82     1.460   .     S
C71    O109    1.307   .     A
C72    O110    1.306   .     A
C72    C81     1.462   .     S
C72    O182    1.318   .     S
C73    C75     1.421   .     A
C73    C102    1.413   .     A
C73    I131    2.134   .     S
C74    I132    2.137   .     S
C74    C76     1.389   .     A
C74    C101    1.386   .     A
C75    O117    1.381   .     S
C75    C729    1.417   1_554 S
C76    O119    1.377   .     S
C76    C730    1.402   .     S
C77    H105    1.076   .     S
C77    C499    1.384   1_545 S
C77    C152    1.399   .     S
C78    H106    1.075   .     S
C78    C290    1.384   .     S
C79    C81     1.413   .     A
C79    I133    2.134   .     S
C79    C287    1.384   .     S
C80    I134    2.135   .     S
C80    C82     1.412   .     A
C80    C498    1.384   1_545 S
C81    C148    1.400   .     S
C83    I135    2.121   .     S
C83    N108    1.377   .     A
C83    C85     1.423   .     A
C84    I136    2.112   .     S
C84    C86     1.423   .     A
C84    N107    1.376   .     A
C85    O137    1.374   .     S
C85    N107    1.381   .     A
C86    O139    1.377   .     S
C86    N108    1.383   .     A
C87    O115    1.318   .     A
C87    C89     1.483   .     S
C87    O183    1.315   .     S
C88    O116    1.322   .     A
C88    C90     1.489   .     S
C89    C93     1.387   .     A
C89    C95     1.381   .     A
C90    C96     1.420   .     A
C90    C94     1.423   .     A
C91    C99     1.427   .     A
C91    C93     1.407   .     A
C91    O197    1.379   .     S
C92    C94     1.407   .     A
C92    O129    1.381   .     S
C92    C100    1.408   .     A
C93    I196    2.091   .     S
C95    O123    1.374   .     S
C95    C97     1.418   .     A
C96    C98     1.417   .     A
C96    O121    1.377   .     S
C97    C99     1.417   .     A
C97    C101    1.408   .     A
C98    C102    1.437   .     A
C98    C100    1.421   .     A
C99    C705    1.417   .     S
C100   C706    1.402   1_554 S
C101   C732    1.402   .     S
C102   C731    1.402   1_554 S
Cu103  O116    1.993   .     S
Cu103  O109    1.973   .     S
Cu103  O112    1.974   .     S
Cu103  O113    1.982   .     S
Cu103  N107    2.058   .     S
Cu104  O111    1.974   .     S
Cu104  O115    1.993   .     S
Cu104  O110    1.973   .     S
Cu104  O114    1.982   .     S
Cu104  N108    2.058   .     S
Cu104  Cu173   2.738   .     S
O111   C141    1.318   .     S
O114   C158    1.315   .     S
O117   H118    0.990   .     S
O119   H120    0.993   .     S
O121   H122    0.991   .     S
O123   H124    0.992   .     S
I125   C164    2.160   .     S
O127   H688    0.989   .     S
H128   O827    0.989   1_554 S
H130   O199    0.989   .     S
O137   H138    0.976   .     S
O139   H140    0.975   .     S
C141   C152    1.460   .     S
C141   O179    1.307   .     A
C142   O180    1.306   .     A
C142   C151    1.462   .     S
C142   O42     1.318   1_655 S
C143   C145    1.421   .     A
C143   C172    1.413   .     A
C143   I201    2.134   .     S
C144   I202    2.137   .     S
C144   C146    1.389   .     A
C144   C171    1.386   .     A
C145   O187    1.381   .     S
C145   C799    1.417   1_554 S
C146   O189    1.377   .     S
C146   C800    1.402   .     S
C147   H175    1.076   .     S
C147   C569    1.384   1_545 S
C147   C12     1.399   1_655 S
C148   H176    1.075   .     S
C148   C360    1.384   .     S
C149   C151    1.413   .     A
C149   I203    2.134   .     S
C149   C357    1.384   .     S
C150   I204    2.135   .     S
C150   C152    1.412   .     A
C150   C568    1.384   1_545 S
C151   C8      1.400   1_655 S
C153   I205    2.121   .     S
C153   N178    1.377   .     A
C153   C155    1.423   .     A
C154   I206    2.112   .     S
C154   C156    1.423   .     A
C154   N177    1.376   .     A
C155   O207    1.374   .     S
C155   N177    1.381   .     A
C156   O209    1.377   .     S
C156   N178    1.383   .     A
C157   O185    1.318   .     A
C157   C159    1.483   .     S
C157   O43     1.315   1_655 S
C158   O186    1.322   .     A
C158   C160    1.489   .     S
C159   C163    1.387   .     A
C159   C165    1.381   .     A
C160   C166    1.420   .     A
C160   C164    1.423   .     A
C161   C169    1.427   .     A
C161   C163    1.407   .     A
C161   O57     1.379   1_655 S
C162   C164    1.407   .     A
C162   O199    1.381   .     S
C162   C170    1.408   .     A
C163   I56     2.091   1_655 S
C165   O193    1.374   .     S
C165   C167    1.418   .     A
C166   C168    1.417   .     A
C166   O191    1.377   .     S
C167   C169    1.417   .     A
C167   C171    1.408   .     A
C168   C172    1.437   .     A
C168   C170    1.421   .     A
C169   C775    1.417   .     S
C170   C776    1.402   1_554 S
C171   C802    1.402   .     S
C172   C801    1.402   1_554 S
Cu173  O186    1.993   .     S
Cu173  O179    1.973   .     S
Cu173  O182    1.974   .     S
Cu173  O183    1.982   .     S
Cu173  N177    2.058   .     S
Cu174  O181    1.974   .     S
Cu174  O185    1.993   .     S
Cu174  O180    1.973   .     S
Cu174  O184    1.982   .     S
Cu174  N178    2.058   .     S
Cu174  Cu33    2.738   1_655 S
O181   C1      1.318   1_655 S
O184   C18     1.315   1_655 S
O187   H188    0.990   .     S
O189   H190    0.993   .     S
O191   H192    0.991   .     S
O193   H194    0.992   .     S
I195   C24     2.160   1_655 S
O197   H758    0.989   .     S
H198   O687    0.989   1_654 S
H200   O59     0.989   1_655 S
O207   H208    0.976   .     S
O209   H210    0.975   .     S
C211   C222    1.460   .     S
C211   O249    1.307   .     A
C211   O391    1.318   1_455 S
C212   O250    1.306   .     A
C212   C221    1.462   .     S
C212   O322    1.318   .     S
C213   C215    1.421   .     A
C213   C242    1.413   .     A
C213   I271    2.134   .     S
C214   I272    2.137   .     S
C214   C216    1.389   .     A
C214   C241    1.386   .     A
C215   O257    1.381   .     S
C215   C869    1.417   1_554 S
C216   O259    1.377   .     S
C216   C870    1.402   .     S
C217   H245    1.076   .     S
C217   C292    1.399   .     S
C218   H246    1.075   .     S
C218   C430    1.384   .     S
C218   C361    1.400   1_455 S
C219   C221    1.413   .     A
C219   I273    2.134   .     S
C219   C427    1.384   .     S
C220   I274    2.135   .     S
C220   C222    1.412   .     A
C221   C288    1.400   .     S
C222   C357    1.399   1_455 S
C223   I275    2.121   .     S
C223   N248    1.377   .     A
C223   C225    1.423   .     A
C224   I276    2.112   .     S
C224   C226    1.423   .     A
C224   N247    1.376   .     A
C225   O277    1.374   .     S
C225   N247    1.381   .     A
C226   O279    1.377   .     S
C226   N248    1.383   .     A
C227   O255    1.318   .     A
C227   C229    1.483   .     S
C227   O323    1.315   .     S
C228   O256    1.322   .     A
C228   C230    1.489   .     S
C228   O394    1.315   1_455 S
C229   C233    1.387   .     A
C229   C235    1.381   .     A
C230   C236    1.420   .     A
C230   C234    1.423   .     A
C231   C239    1.427   .     A
C231   C233    1.407   .     A
C231   O337    1.379   .     S
C232   C234    1.407   .     A
C232   O269    1.381   .     S
C232   C240    1.408   .     A
C233   I336    2.091   .     S
C234   I405    2.160   1_455 S
C235   O263    1.374   .     S
C235   C237    1.418   .     A
C236   C238    1.417   .     A
C236   O261    1.377   .     S
C237   C239    1.417   .     A
C237   C241    1.408   .     A
C238   C242    1.437   .     A
C238   C240    1.421   .     A
C239   C845    1.417   .     S
C240   C846    1.402   1_554 S
C241   C872    1.402   .     S
C242   C871    1.402   1_554 S
Cu243  O256    1.993   .     S
Cu243  O249    1.973   .     S
Cu243  O252    1.974   .     S
Cu243  O253    1.982   .     S
Cu243  N247    2.058   .     S
Cu243  Cu384   2.738   1_455 S
Cu244  O251    1.974   .     S
Cu244  O255    1.993   .     S
Cu244  O250    1.973   .     S
Cu244  O254    1.982   .     S
Cu244  N248    2.058   .     S
Cu244  Cu313   2.738   .     S
O251   C281    1.318   .     S
O252   C352    1.318   1_455 S
O253   C367    1.315   1_455 S
O254   C298    1.315   .     S
O257   H258    0.990   .     S
O259   H260    0.993   .     S
O261   H262    0.991   .     S
O263   H264    0.992   .     S
I265   C304    2.160   .     S
I266   C373    2.091   1_455 S
O267   C371    1.379   1_455 S
O267   H1038   0.989   1_455 S
H268   O967    0.989   1_554 S
O269   H410    0.989   1_455 S
H270   O339    0.989   .     S
O277   H278    0.976   .     S
O279   H280    0.975   .     S
C281   C292    1.460   .     S
C281   O319    1.307   .     A
C282   O320    1.306   .     A
C282   C291    1.462   .     S
C282   O392    1.318   .     S
C283   C285    1.421   .     A
C283   C312    1.413   .     A
C283   I341    2.134   .     S
C284   I342    2.137   .     S
C284   C286    1.389   .     A
C284   C311    1.386   .     A
C285   O327    1.381   .     S
C285   C939    1.417   1_554 S
C286   O329    1.377   .     S
C286   C940    1.402   .     S
C287   H315    1.076   .     S
C287   C362    1.399   .     S
C288   H316    1.075   .     S
C288   C500    1.384   .     S
C289   C291    1.413   .     A
C289   I343    2.134   .     S
C289   C497    1.384   .     S
C290   I344    2.135   .     S
C290   C292    1.412   .     A
C291   C358    1.400   .     S
C293   I345    2.121   .     S
C293   N318    1.377   .     A
C293   C295    1.423   .     A
C294   I346    2.112   .     S
C294   C296    1.423   .     A
C294   N317    1.376   .     A
C295   O347    1.374   .     S
C295   N317    1.381   .     A
C296   O349    1.377   .     S
C296   N318    1.383   .     A
C297   O325    1.318   .     A
C297   C299    1.483   .     S
C297   O393    1.315   .     S
C298   O326    1.322   .     A
C298   C300    1.489   .     S
C299   C303    1.387   .     A
C299   C305    1.381   .     A
C300   C306    1.420   .     A
C300   C304    1.423   .     A
C301   C309    1.427   .     A
C301   C303    1.407   .     A
C301   O407    1.379   .     S
C302   C304    1.407   .     A
C302   O339    1.381   .     S
C302   C310    1.408   .     A
C303   I406    2.091   .     S
C305   O333    1.374   .     S
C305   C307    1.418   .     A
C306   C308    1.417   .     A
C306   O331    1.377   .     S
C307   C309    1.417   .     A
C307   C311    1.408   .     A
C308   C312    1.437   .     A
C308   C310    1.421   .     A
C309   C915    1.417   .     S
C310   C916    1.402   1_554 S
C311   C942    1.402   .     S
C312   C941    1.402   1_554 S
Cu313  O326    1.993   .     S
Cu313  O319    1.973   .     S
Cu313  O322    1.974   .     S
Cu313  O323    1.982   .     S
Cu313  N317    2.058   .     S
Cu314  O321    1.974   .     S
Cu314  O325    1.993   .     S
Cu314  O320    1.973   .     S
Cu314  O324    1.982   .     S
Cu314  N318    2.058   .     S
Cu314  Cu383   2.738   .     S
O321   C351    1.318   .     S
O324   C368    1.315   .     S
O327   H328    0.990   .     S
O329   H330    0.993   .     S
O331   H332    0.991   .     S
O333   H334    0.992   .     S
I335   C374    2.160   .     S
O337   H898    0.989   .     S
H338   O1037   0.989   1_554 S
H340   O409    0.989   .     S
O347   H348    0.976   .     S
O349   H350    0.975   .     S
C351   C362    1.460   .     S
C351   O389    1.307   .     A
C352   O390    1.306   .     A
C352   C361    1.462   .     S
C352   O252    1.318   1_655 S
C353   C355    1.421   .     A
C353   C382    1.413   .     A
C353   I411    2.134   .     S
C354   I412    2.137   .     S
C354   C356    1.389   .     A
C354   C381    1.386   .     A
C355   O397    1.381   .     S
C355   C1009   1.417   1_554 S
C356   O399    1.377   .     S
C356   C1010   1.402   .     S
C357   H385    1.076   .     S
C357   C222    1.399   1_655 S
C358   H386    1.075   .     S
C358   C570    1.384   .     S
C359   C361    1.413   .     A
C359   I413    2.134   .     S
C359   C567    1.384   .     S
C360   I414    2.135   .     S
C360   C362    1.412   .     A
C361   C218    1.400   1_655 S
C363   I415    2.121   .     S
C363   N388    1.377   .     A
C363   C365    1.423   .     A
C364   I416    2.112   .     S
C364   C366    1.423   .     A
C364   N387    1.376   .     A
C365   O417    1.374   .     S
C365   N387    1.381   .     A
C366   O419    1.377   .     S
C366   N388    1.383   .     A
C367   O395    1.318   .     A
C367   C369    1.483   .     S
C367   O253    1.315   1_655 S
C368   O396    1.322   .     A
C368   C370    1.489   .     S
C369   C373    1.387   .     A
C369   C375    1.381   .     A
C370   C376    1.420   .     A
C370   C374    1.423   .     A
C371   C379    1.427   .     A
C371   C373    1.407   .     A
C371   O267    1.379   1_655 S
C372   C374    1.407   .     A
C372   O409    1.381   .     S
C372   C380    1.408   .     A
C373   I266    2.091   1_655 S
C375   O403    1.374   .     S
C375   C377    1.418   .     A
C376   C378    1.417   .     A
C376   O401    1.377   .     S
C377   C379    1.417   .     A
C377   C381    1.408   .     A
C378   C382    1.437   .     A
C378   C380    1.421   .     A
C379   C985    1.417   .     S
C380   C986    1.402   1_554 S
C381   C1012   1.402   .     S
C382   C1011   1.402   1_554 S
Cu383  O396    1.993   .     S
Cu383  O389    1.973   .     S
Cu383  O392    1.974   .     S
Cu383  O393    1.982   .     S
Cu383  N387    2.058   .     S
Cu384  O391    1.974   .     S
Cu384  O395    1.993   .     S
Cu384  O390    1.973   .     S
Cu384  O394    1.982   .     S
Cu384  N388    2.058   .     S
Cu384  Cu243   2.738   1_655 S
O391   C211    1.318   1_655 S
O394   C228    1.315   1_655 S
O397   H398    0.990   .     S
O399   H400    0.993   .     S
O401   H402    0.991   .     S
O403   H404    0.992   .     S
I405   C234    2.160   1_655 S
O407   H968    0.989   .     S
H408   O897    0.989   1_654 S
H410   O269    0.989   1_655 S
O417   H418    0.976   .     S
O419   H420    0.975   .     S
C421   C432    1.460   .     S
C421   O459    1.307   .     A
C421   O601    1.318   1_455 S
C422   O460    1.306   .     A
C422   C431    1.462   .     S
C422   O532    1.318   .     S
C423   C425    1.421   .     A
C423   C452    1.413   .     A
C423   I481    2.134   .     S
C424   I482    2.137   .     S
C424   C426    1.389   .     A
C424   C451    1.386   .     A
C425   O467    1.381   .     S
C425   C1079   1.417   1_554 S
C426   O469    1.377   .     S
C426   C1080   1.402   .     S
C427   H455    1.076   .     S
C427   C502    1.399   .     S
C428   H456    1.075   .     S
C428   C10     1.384   1_565 S
C428   C571    1.400   1_455 S
C429   C431    1.413   .     A
C429   I483    2.134   .     S
C429   C7      1.384   1_565 S
C430   I484    2.135   .     S
C430   C432    1.412   .     A
C431   C498    1.400   .     S
C432   C567    1.399   1_455 S
C433   I485    2.121   .     S
C433   N458    1.377   .     A
C433   C435    1.423   .     A
C434   I486    2.112   .     S
C434   C436    1.423   .     A
C434   N457    1.376   .     A
C435   O487    1.374   .     S
C435   N457    1.381   .     A
C436   O489    1.377   .     S
C436   N458    1.383   .     A
C437   O465    1.318   .     A
C437   C439    1.483   .     S
C437   O533    1.315   .     S
C438   O466    1.322   .     A
C438   C440    1.489   .     S
C438   O604    1.315   1_455 S
C439   C443    1.387   .     A
C439   C445    1.381   .     A
C440   C446    1.420   .     A
C440   C444    1.423   .     A
C441   C449    1.427   .     A
C441   C443    1.407   .     A
C441   O547    1.379   .     S
C442   C444    1.407   .     A
C442   O479    1.381   .     S
C442   C450    1.408   .     A
C443   I546    2.091   .     S
C444   I615    2.160   1_455 S
C445   O473    1.374   .     S
C445   C447    1.418   .     A
C446   C448    1.417   .     A
C446   O471    1.377   .     S
C447   C449    1.417   .     A
C447   C451    1.408   .     A
C448   C452    1.437   .     A
C448   C450    1.421   .     A
C449   C1055   1.417   .     S
C450   C1056   1.402   1_554 S
C451   C1082   1.402   .     S
C452   C1081   1.402   1_554 S
Cu453  O466    1.993   .     S
Cu453  O459    1.973   .     S
Cu453  O462    1.974   .     S
Cu453  O463    1.982   .     S
Cu453  N457    2.058   .     S
Cu453  Cu594   2.738   1_455 S
Cu454  O461    1.974   .     S
Cu454  O465    1.993   .     S
Cu454  O460    1.973   .     S
Cu454  O464    1.982   .     S
Cu454  N458    2.058   .     S
Cu454  Cu523   2.738   .     S
O461   C491    1.318   .     S
O462   C562    1.318   1_455 S
O463   C577    1.315   1_455 S
O464   C508    1.315   .     S
O467   H468    0.990   .     S
O469   H470    0.993   .     S
O471   H472    0.991   .     S
O473   H474    0.992   .     S
I475   C514    2.160   .     S
I476   C583    2.091   1_455 S
O477   C581    1.379   1_455 S
O477   H1248   0.989   1_455 S
H478   O1177   0.989   1_554 S
O479   H620    0.989   1_455 S
H480   O549    0.989   .     S
O487   H488    0.976   .     S
O489   H490    0.975   .     S
C491   C502    1.460   .     S
C491   O529    1.307   .     A
C492   O530    1.306   .     A
C492   C501    1.462   .     S
C492   O602    1.318   .     S
C493   C495    1.421   .     A
C493   C522    1.413   .     A
C493   I551    2.134   .     S
C494   I552    2.137   .     S
C494   C496    1.389   .     A
C494   C521    1.386   .     A
C495   O537    1.381   .     S
C495   C1149   1.417   1_554 S
C496   O539    1.377   .     S
C496   C1150   1.402   .     S
C497   H525    1.076   .     S
C497   C572    1.399   .     S
C498   H526    1.075   .     S
C498   C80     1.384   1_565 S
C499   C501    1.413   .     A
C499   I553    2.134   .     S
C499   C77     1.384   1_565 S
C500   I554    2.135   .     S
C500   C502    1.412   .     A
C501   C568    1.400   .     S
C503   I555    2.121   .     S
C503   N528    1.377   .     A
C503   C505    1.423   .     A
C504   I556    2.112   .     S
C504   C506    1.423   .     A
C504   N527    1.376   .     A
C505   O557    1.374   .     S
C505   N527    1.381   .     A
C506   O559    1.377   .     S
C506   N528    1.383   .     A
C507   O535    1.318   .     A
C507   C509    1.483   .     S
C507   O603    1.315   .     S
C508   O536    1.322   .     A
C508   C510    1.489   .     S
C509   C513    1.387   .     A
C509   C515    1.381   .     A
C510   C516    1.420   .     A
C510   C514    1.423   .     A
C511   C519    1.427   .     A
C511   C513    1.407   .     A
C511   O617    1.379   .     S
C512   C514    1.407   .     A
C512   O549    1.381   .     S
C512   C520    1.408   .     A
C513   I616    2.091   .     S
C515   O543    1.374   .     S
C515   C517    1.418   .     A
C516   C518    1.417   .     A
C516   O541    1.377   .     S
C517   C519    1.417   .     A
C517   C521    1.408   .     A
C518   C522    1.437   .     A
C518   C520    1.421   .     A
C519   C1125   1.417   .     S
C520   C1126   1.402   1_554 S
C521   C1152   1.402   .     S
C522   C1151   1.402   1_554 S
Cu523  O536    1.993   .     S
Cu523  O529    1.973   .     S
Cu523  O532    1.974   .     S
Cu523  O533    1.982   .     S
Cu523  N527    2.058   .     S
Cu524  O531    1.974   .     S
Cu524  O535    1.993   .     S
Cu524  O530    1.973   .     S
Cu524  O534    1.982   .     S
Cu524  N528    2.058   .     S
Cu524  Cu593   2.738   .     S
O531   C561    1.318   .     S
O534   C578    1.315   .     S
O537   H538    0.990   .     S
O539   H540    0.993   .     S
O541   H542    0.991   .     S
O543   H544    0.992   .     S
I545   C584    2.160   .     S
O547   H1108   0.989   .     S
H548   O1247   0.989   1_554 S
H550   O619    0.989   .     S
O557   H558    0.976   .     S
O559   H560    0.975   .     S
C561   C572    1.460   .     S
C561   O599    1.307   .     A
C562   O600    1.306   .     A
C562   C571    1.462   .     S
C562   O462    1.318   1_655 S
C563   C565    1.421   .     A
C563   C592    1.413   .     A
C563   I621    2.134   .     S
C564   I622    2.137   .     S
C564   C566    1.389   .     A
C564   C591    1.386   .     A
C565   O607    1.381   .     S
C565   C1219   1.417   1_554 S
C566   O609    1.377   .     S
C566   C1220   1.402   .     S
C567   H595    1.076   .     S
C567   C432    1.399   1_655 S
C568   H596    1.075   .     S
C568   C150    1.384   1_565 S
C569   C571    1.413   .     A
C569   I623    2.134   .     S
C569   C147    1.384   1_565 S
C570   I624    2.135   .     S
C570   C572    1.412   .     A
C571   C428    1.400   1_655 S
C573   I625    2.121   .     S
C573   N598    1.377   .     A
C573   C575    1.423   .     A
C574   I626    2.112   .     S
C574   C576    1.423   .     A
C574   N597    1.376   .     A
C575   O627    1.374   .     S
C575   N597    1.381   .     A
C576   O629    1.377   .     S
C576   N598    1.383   .     A
C577   O605    1.318   .     A
C577   C579    1.483   .     S
C577   O463    1.315   1_655 S
C578   O606    1.322   .     A
C578   C580    1.489   .     S
C579   C583    1.387   .     A
C579   C585    1.381   .     A
C580   C586    1.420   .     A
C580   C584    1.423   .     A
C581   C589    1.427   .     A
C581   C583    1.407   .     A
C581   O477    1.379   1_655 S
C582   C584    1.407   .     A
C582   O619    1.381   .     S
C582   C590    1.408   .     A
C583   I476    2.091   1_655 S
C585   O613    1.374   .     S
C585   C587    1.418   .     A
C586   C588    1.417   .     A
C586   O611    1.377   .     S
C587   C589    1.417   .     A
C587   C591    1.408   .     A
C588   C592    1.437   .     A
C588   C590    1.421   .     A
C589   C1195   1.417   .     S
C590   C1196   1.402   1_554 S
C591   C1222   1.402   .     S
C592   C1221   1.402   1_554 S
Cu593  O606    1.993   .     S
Cu593  O599    1.973   .     S
Cu593  O602    1.974   .     S
Cu593  O603    1.982   .     S
Cu593  N597    2.058   .     S
Cu594  O601    1.974   .     S
Cu594  O605    1.993   .     S
Cu594  O600    1.973   .     S
Cu594  O604    1.982   .     S
Cu594  N598    2.058   .     S
Cu594  Cu453   2.738   1_655 S
O601   C421    1.318   1_655 S
O604   C438    1.315   1_655 S
O607   H608    0.990   .     S
O609   H610    0.993   .     S
O611   H612    0.991   .     S
O613   H614    0.992   .     S
I615   C444    2.160   1_655 S
O617   H1178   0.989   .     S
H618   O1107   0.989   1_654 S
H620   O479    0.989   1_655 S
O627   H628    0.976   .     S
O629   H630    0.975   .     S
C631   C642    1.460   .     S
C631   O669    1.307   .     A
C631   O811    1.318   1_455 S
C632   O670    1.306   .     A
C632   C641    1.462   .     S
C632   O742    1.318   .     S
C633   C635    1.421   .     A
C633   C662    1.413   .     A
C633   I691    2.134   .     S
C634   I692    2.137   .     S
C634   C636    1.389   .     A
C634   C661    1.386   .     A
C635   O677    1.381   .     S
C636   O679    1.377   .     S
C636   C30     1.402   1_556 S
C637   H665    1.076   .     S
C637   C1059   1.384   1_545 S
C637   C712    1.399   .     S
C638   H666    1.075   .     S
C638   C850    1.384   .     S
C638   C781    1.400   1_455 S
C639   C641    1.413   .     A
C639   I693    2.134   .     S
C639   C847    1.384   .     S
C640   I694    2.135   .     S
C640   C642    1.412   .     A
C640   C1058   1.384   1_545 S
C641   C708    1.400   .     S
C642   C777    1.399   1_455 S
C643   I695    2.121   .     S
C643   N668    1.377   .     A
C643   C645    1.423   .     A
C644   I696    2.112   .     S
C644   C646    1.423   .     A
C644   N667    1.376   .     A
C645   O697    1.374   .     S
C645   N667    1.381   .     A
C646   O699    1.377   .     S
C646   N668    1.383   .     A
C647   O675    1.318   .     A
C647   C649    1.483   .     S
C647   O743    1.315   .     S
C648   O676    1.322   .     A
C648   C650    1.489   .     S
C648   O814    1.315   1_455 S
C649   C653    1.387   .     A
C649   C655    1.381   .     A
C650   C656    1.420   .     A
C650   C654    1.423   .     A
C651   C659    1.427   .     A
C651   C653    1.407   .     A
C651   O757    1.379   .     S
C652   C654    1.407   .     A
C652   O689    1.381   .     S
C652   C660    1.408   .     A
C653   I756    2.091   .     S
C654   I825    2.160   1_455 S
C655   O683    1.374   .     S
C655   C657    1.418   .     A
C656   C658    1.417   .     A
C656   O681    1.377   .     S
C657   C659    1.417   .     A
C657   C661    1.408   .     A
C658   C662    1.437   .     A
C658   C660    1.421   .     A
C659   C5      1.417   1_556 S
C661   C32     1.402   1_556 S
Cu663  O676    1.993   .     S
Cu663  O669    1.973   .     S
Cu663  O672    1.974   .     S
Cu663  O673    1.982   .     S
Cu663  N667    2.058   .     S
Cu663  Cu804   2.738   1_455 S
Cu664  O671    1.974   .     S
Cu664  O675    1.993   .     S
Cu664  O670    1.973   .     S
Cu664  O674    1.982   .     S
Cu664  N668    2.058   .     S
Cu664  Cu733   2.738   .     S
O671   C701    1.318   .     S
O672   C772    1.318   1_455 S
O673   C787    1.315   1_455 S
O674   C718    1.315   .     S
O677   H678    0.990   .     S
O679   H680    0.993   .     S
O681   H682    0.991   .     S
O683   H684    0.992   .     S
I685   C724    2.160   .     S
I686   C793    2.091   1_455 S
O687   C791    1.379   1_455 S
O687   H198    0.989   1_456 S
O689   H830    0.989   1_455 S
H690   O759    0.989   .     S
O697   H698    0.976   .     S
O699   H700    0.975   .     S
C701   C712    1.460   .     S
C701   O739    1.307   .     A
C702   O740    1.306   .     A
C702   C711    1.462   .     S
C702   O812    1.318   .     S
C703   C705    1.421   .     A
C703   C732    1.413   .     A
C703   I761    2.134   .     S
C704   I762    2.137   .     S
C704   C706    1.389   .     A
C704   C731    1.386   .     A
C705   O747    1.381   .     S
C706   O749    1.377   .     S
C706   C100    1.402   1_556 S
C707   H735    1.076   .     S
C707   C1129   1.384   1_545 S
C707   C782    1.399   .     S
C708   H736    1.075   .     S
C708   C920    1.384   .     S
C709   C711    1.413   .     A
C709   I763    2.134   .     S
C709   C917    1.384   .     S
C710   I764    2.135   .     S
C710   C712    1.412   .     A
C710   C1128   1.384   1_545 S
C711   C778    1.400   .     S
C713   I765    2.121   .     S
C713   N738    1.377   .     A
C713   C715    1.423   .     A
C714   I766    2.112   .     S
C714   C716    1.423   .     A
C714   N737    1.376   .     A
C715   O767    1.374   .     S
C715   N737    1.381   .     A
C716   O769    1.377   .     S
C716   N738    1.383   .     A
C717   O745    1.318   .     A
C717   C719    1.483   .     S
C717   O813    1.315   .     S
C718   O746    1.322   .     A
C718   C720    1.489   .     S
C719   C723    1.387   .     A
C719   C725    1.381   .     A
C720   C726    1.420   .     A
C720   C724    1.423   .     A
C721   C729    1.427   .     A
C721   C723    1.407   .     A
C721   O827    1.379   .     S
C722   C724    1.407   .     A
C722   O759    1.381   .     S
C722   C730    1.408   .     A
C723   I826    2.091   .     S
C725   O753    1.374   .     S
C725   C727    1.418   .     A
C726   C728    1.417   .     A
C726   O751    1.377   .     S
C727   C729    1.417   .     A
C727   C731    1.408   .     A
C728   C732    1.437   .     A
C728   C730    1.421   .     A
C729   C75     1.417   1_556 S
C731   C102    1.402   1_556 S
Cu733  O746    1.993   .     S
Cu733  O739    1.973   .     S
Cu733  O742    1.974   .     S
Cu733  O743    1.982   .     S
Cu733  N737    2.058   .     S
Cu734  O741    1.974   .     S
Cu734  O745    1.993   .     S
Cu734  O740    1.973   .     S
Cu734  O744    1.982   .     S
Cu734  N738    2.058   .     S
Cu734  Cu803   2.738   .     S
O741   C771    1.318   .     S
O744   C788    1.315   .     S
O747   H748    0.990   .     S
O749   H750    0.993   .     S
O751   H752    0.991   .     S
O753   H754    0.992   .     S
I755   C794    2.160   .     S
O757   H58     0.989   1_556 S
H760   O829    0.989   .     S
O767   H768    0.976   .     S
O769   H770    0.975   .     S
C771   C782    1.460   .     S
C771   O809    1.307   .     A
C772   O810    1.306   .     A
C772   C781    1.462   .     S
C772   O672    1.318   1_655 S
C773   C775    1.421   .     A
C773   C802    1.413   .     A
C773   I831    2.134   .     S
C774   I832    2.137   .     S
C774   C776    1.389   .     A
C774   C801    1.386   .     A
C775   O817    1.381   .     S
C776   O819    1.377   .     S
C776   C170    1.402   1_556 S
C777   H805    1.076   .     S
C777   C1199   1.384   1_545 S
C777   C642    1.399   1_655 S
C778   H806    1.075   .     S
C778   C990    1.384   .     S
C779   C781    1.413   .     A
C779   I833    2.134   .     S
C779   C987    1.384   .     S
C780   I834    2.135   .     S
C780   C782    1.412   .     A
C780   C1198   1.384   1_545 S
C781   C638    1.400   1_655 S
C783   I835    2.121   .     S
C783   N808    1.377   .     A
C783   C785    1.423   .     A
C784   I836    2.112   .     S
C784   C786    1.423   .     A
C784   N807    1.376   .     A
C785   O837    1.374   .     S
C785   N807    1.381   .     A
C786   O839    1.377   .     S
C786   N808    1.383   .     A
C787   O815    1.318   .     A
C787   C789    1.483   .     S
C787   O673    1.315   1_655 S
C788   O816    1.322   .     A
C788   C790    1.489   .     S
C789   C793    1.387   .     A
C789   C795    1.381   .     A
C790   C796    1.420   .     A
C790   C794    1.423   .     A
C791   C799    1.427   .     A
C791   C793    1.407   .     A
C791   O687    1.379   1_655 S
C792   C794    1.407   .     A
C792   O829    1.381   .     S
C792   C800    1.408   .     A
C793   I686    2.091   1_655 S
C795   O823    1.374   .     S
C795   C797    1.418   .     A
C796   C798    1.417   .     A
C796   O821    1.377   .     S
C797   C799    1.417   .     A
C797   C801    1.408   .     A
C798   C802    1.437   .     A
C798   C800    1.421   .     A
C799   C145    1.417   1_556 S
C801   C172    1.402   1_556 S
Cu803  O816    1.993   .     S
Cu803  O809    1.973   .     S
Cu803  O812    1.974   .     S
Cu803  O813    1.982   .     S
Cu803  N807    2.058   .     S
Cu804  O811    1.974   .     S
Cu804  O815    1.993   .     S
Cu804  O810    1.973   .     S
Cu804  O814    1.982   .     S
Cu804  N808    2.058   .     S
Cu804  Cu663   2.738   1_655 S
O811   C631    1.318   1_655 S
O814   C648    1.315   1_655 S
O817   H818    0.990   .     S
O819   H820    0.993   .     S
O821   H822    0.991   .     S
O823   H824    0.992   .     S
I825   C654    2.160   1_655 S
O827   H128    0.989   1_556 S
H828   O57     0.989   1_655 S
H830   O689    0.989   1_655 S
O837   H838    0.976   .     S
O839   H840    0.975   .     S
C841   C852    1.460   .     S
C841   O879    1.307   .     A
C841   O1021   1.318   1_455 S
C842   O880    1.306   .     A
C842   C851    1.462   .     S
C842   O952    1.318   .     S
C843   C845    1.421   .     A
C843   C872    1.413   .     A
C843   I901    2.134   .     S
C844   I902    2.137   .     S
C844   C846    1.389   .     A
C844   C871    1.386   .     A
C845   O887    1.381   .     S
C846   O889    1.377   .     S
C846   C240    1.402   1_556 S
C847   H875    1.076   .     S
C847   C922    1.399   .     S
C848   H876    1.075   .     S
C848   C1060   1.384   .     S
C848   C991    1.400   1_455 S
C849   C851    1.413   .     A
C849   I903    2.134   .     S
C849   C1057   1.384   .     S
C850   I904    2.135   .     S
C850   C852    1.412   .     A
C851   C918    1.400   .     S
C852   C987    1.399   1_455 S
C853   I905    2.121   .     S
C853   N878    1.377   .     A
C853   C855    1.423   .     A
C854   I906    2.112   .     S
C854   C856    1.423   .     A
C854   N877    1.376   .     A
C855   O907    1.374   .     S
C855   N877    1.381   .     A
C856   O909    1.377   .     S
C856   N878    1.383   .     A
C857   O885    1.318   .     A
C857   C859    1.483   .     S
C857   O953    1.315   .     S
C858   O886    1.322   .     A
C858   C860    1.489   .     S
C858   O1024   1.315   1_455 S
C859   C863    1.387   .     A
C859   C865    1.381   .     A
C860   C866    1.420   .     A
C860   C864    1.423   .     A
C861   C869    1.427   .     A
C861   C863    1.407   .     A
C861   O967    1.379   .     S
C862   C864    1.407   .     A
C862   O899    1.381   .     S
C862   C870    1.408   .     A
C863   I966    2.091   .     S
C864   I1035   2.160   1_455 S
C865   O893    1.374   .     S
C865   C867    1.418   .     A
C866   C868    1.417   .     A
C866   O891    1.377   .     S
C867   C869    1.417   .     A
C867   C871    1.408   .     A
C868   C872    1.437   .     A
C868   C870    1.421   .     A
C869   C215    1.417   1_556 S
C871   C242    1.402   1_556 S
Cu873  O886    1.993   .     S
Cu873  O879    1.973   .     S
Cu873  O882    1.974   .     S
Cu873  O883    1.982   .     S
Cu873  N877    2.058   .     S
Cu873  Cu1014  2.738   1_455 S
Cu874  O881    1.974   .     S
Cu874  O885    1.993   .     S
Cu874  O880    1.973   .     S
Cu874  O884    1.982   .     S
Cu874  N878    2.058   .     S
Cu874  Cu943   2.738   .     S
O881   C911    1.318   .     S
O882   C982    1.318   1_455 S
O883   C997    1.315   1_455 S
O884   C928    1.315   .     S
O887   H888    0.990   .     S
O889   H890    0.993   .     S
O891   H892    0.991   .     S
O893   H894    0.992   .     S
I895   C934    2.160   .     S
I896   C1003   2.091   1_455 S
O897   C1001   1.379   1_455 S
O897   H408    0.989   1_456 S
O899   H1040   0.989   1_455 S
H900   O969    0.989   .     S
O907   H908    0.976   .     S
O909   H910    0.975   .     S
C911   C922    1.460   .     S
C911   O949    1.307   .     A
C912   O950    1.306   .     A
C912   C921    1.462   .     S
C912   O1022   1.318   .     S
C913   C915    1.421   .     A
C913   C942    1.413   .     A
C913   I971    2.134   .     S
C914   I972    2.137   .     S
C914   C916    1.389   .     A
C914   C941    1.386   .     A
C915   O957    1.381   .     S
C916   O959    1.377   .     S
C916   C310    1.402   1_556 S
C917   H945    1.076   .     S
C917   C992    1.399   .     S
C918   H946    1.075   .     S
C918   C1130   1.384   .     S
C919   C921    1.413   .     A
C919   I973    2.134   .     S
C919   C1127   1.384   .     S
C920   I974    2.135   .     S
C920   C922    1.412   .     A
C921   C988    1.400   .     S
C923   I975    2.121   .     S
C923   N948    1.377   .     A
C923   C925    1.423   .     A
C924   I976    2.112   .     S
C924   C926    1.423   .     A
C924   N947    1.376   .     A
C925   O977    1.374   .     S
C925   N947    1.381   .     A
C926   O979    1.377   .     S
C926   N948    1.383   .     A
C927   O955    1.318   .     A
C927   C929    1.483   .     S
C927   O1023   1.315   .     S
C928   O956    1.322   .     A
C928   C930    1.489   .     S
C929   C933    1.387   .     A
C929   C935    1.381   .     A
C930   C936    1.420   .     A
C930   C934    1.423   .     A
C931   C939    1.427   .     A
C931   C933    1.407   .     A
C931   O1037   1.379   .     S
C932   C934    1.407   .     A
C932   O969    1.381   .     S
C932   C940    1.408   .     A
C933   I1036   2.091   .     S
C935   O963    1.374   .     S
C935   C937    1.418   .     A
C936   C938    1.417   .     A
C936   O961    1.377   .     S
C937   C939    1.417   .     A
C937   C941    1.408   .     A
C938   C942    1.437   .     A
C938   C940    1.421   .     A
C939   C285    1.417   1_556 S
C941   C312    1.402   1_556 S
Cu943  O956    1.993   .     S
Cu943  O949    1.973   .     S
Cu943  O952    1.974   .     S
Cu943  O953    1.982   .     S
Cu943  N947    2.058   .     S
Cu944  O951    1.974   .     S
Cu944  O955    1.993   .     S
Cu944  O950    1.973   .     S
Cu944  O954    1.982   .     S
Cu944  N948    2.058   .     S
Cu944  Cu1013  2.738   .     S
O951   C981    1.318   .     S
O954   C998    1.315   .     S
O957   H958    0.990   .     S
O959   H960    0.993   .     S
O961   H962    0.991   .     S
O963   H964    0.992   .     S
I965   C1004   2.160   .     S
O967   H268    0.989   1_556 S
H970   O1039   0.989   .     S
O977   H978    0.976   .     S
O979   H980    0.975   .     S
C981   C992    1.460   .     S
C981   O1019   1.307   .     A
C982   O1020   1.306   .     A
C982   C991    1.462   .     S
C982   O882    1.318   1_655 S
C983   C985    1.421   .     A
C983   C1012   1.413   .     A
C983   I1041   2.134   .     S
C984   I1042   2.137   .     S
C984   C986    1.389   .     A
C984   C1011   1.386   .     A
C985   O1027   1.381   .     S
C986   O1029   1.377   .     S
C986   C380    1.402   1_556 S
C987   H1015   1.076   .     S
C987   C852    1.399   1_655 S
C988   H1016   1.075   .     S
C988   C1200   1.384   .     S
C989   C991    1.413   .     A
C989   I1043   2.134   .     S
C989   C1197   1.384   .     S
C990   I1044   2.135   .     S
C990   C992    1.412   .     A
C991   C848    1.400   1_655 S
C993   I1045   2.121   .     S
C993   N1018   1.377   .     A
C993   C995    1.423   .     A
C994   I1046   2.112   .     S
C994   C996    1.423   .     A
C994   N1017   1.376   .     A
C995   O1047   1.374   .     S
C995   N1017   1.381   .     A
C996   O1049   1.377   .     S
C996   N1018   1.383   .     A
C997   O1025   1.318   .     A
C997   C999    1.483   .     S
C997   O883    1.315   1_655 S
C998   O1026   1.322   .     A
C998   C1000   1.489   .     S
C999   C1003   1.387   .     A
C999   C1005   1.381   .     A
C1000  C1006   1.420   .     A
C1000  C1004   1.423   .     A
C1001  C1009   1.427   .     A
C1001  C1003   1.407   .     A
C1001  O897    1.379   1_655 S
C1002  C1004   1.407   .     A
C1002  O1039   1.381   .     S
C1002  C1010   1.408   .     A
C1003  I896    2.091   1_655 S
C1005  O1033   1.374   .     S
C1005  C1007   1.418   .     A
C1006  C1008   1.417   .     A
C1006  O1031   1.377   .     S
C1007  C1009   1.417   .     A
C1007  C1011   1.408   .     A
C1008  C1012   1.437   .     A
C1008  C1010   1.421   .     A
C1009  C355    1.417   1_556 S
C1011  C382    1.402   1_556 S
Cu1013 O1026   1.993   .     S
Cu1013 O1019   1.973   .     S
Cu1013 O1022   1.974   .     S
Cu1013 O1023   1.982   .     S
Cu1013 N1017   2.058   .     S
Cu1014 O1021   1.974   .     S
Cu1014 O1025   1.993   .     S
Cu1014 O1020   1.973   .     S
Cu1014 O1024   1.982   .     S
Cu1014 N1018   2.058   .     S
Cu1014 Cu873   2.738   1_655 S
O1021  C841    1.318   1_655 S
O1024  C858    1.315   1_655 S
O1027  H1028   0.990   .     S
O1029  H1030   0.993   .     S
O1031  H1032   0.991   .     S
O1033  H1034   0.992   .     S
I1035  C864    2.160   1_655 S
O1037  H338    0.989   1_556 S
H1038  O267    0.989   1_655 S
H1040  O899    0.989   1_655 S
O1047  H1048   0.976   .     S
O1049  H1050   0.975   .     S
C1051  C1062   1.460   .     S
C1051  O1089   1.307   .     A
C1051  O1231   1.318   1_455 S
C1052  O1090   1.306   .     A
C1052  C1061   1.462   .     S
C1052  O1162   1.318   .     S
C1053  C1055   1.421   .     A
C1053  C1082   1.413   .     A
C1053  I1111   2.134   .     S
C1054  I1112   2.137   .     S
C1054  C1056   1.389   .     A
C1054  C1081   1.386   .     A
C1055  O1097   1.381   .     S
C1056  O1099   1.377   .     S
C1056  C450    1.402   1_556 S
C1057  H1085   1.076   .     S
C1057  C1132   1.399   .     S
C1058  H1086   1.075   .     S
C1058  C640    1.384   1_565 S
C1058  C1201   1.400   1_455 S
C1059  C1061   1.413   .     A
C1059  I1113   2.134   .     S
C1059  C637    1.384   1_565 S
C1060  I1114   2.135   .     S
C1060  C1062   1.412   .     A
C1061  C1128   1.400   .     S
C1062  C1197   1.399   1_455 S
C1063  I1115   2.121   .     S
C1063  N1088   1.377   .     A
C1063  C1065   1.423   .     A
C1064  I1116   2.112   .     S
C1064  C1066   1.423   .     A
C1064  N1087   1.376   .     A
C1065  O1117   1.374   .     S
C1065  N1087   1.381   .     A
C1066  O1119   1.377   .     S
C1066  N1088   1.383   .     A
C1067  O1095   1.318   .     A
C1067  C1069   1.483   .     S
C1067  O1163   1.315   .     S
C1068  O1096   1.322   .     A
C1068  C1070   1.489   .     S
C1068  O1234   1.315   1_455 S
C1069  C1073   1.387   .     A
C1069  C1075   1.381   .     A
C1070  C1076   1.420   .     A
C1070  C1074   1.423   .     A
C1071  C1079   1.427   .     A
C1071  C1073   1.407   .     A
C1071  O1177   1.379   .     S
C1072  C1074   1.407   .     A
C1072  O1109   1.381   .     S
C1072  C1080   1.408   .     A
C1073  I1176   2.091   .     S
C1074  I1245   2.160   1_455 S
C1075  O1103   1.374   .     S
C1075  C1077   1.418   .     A
C1076  C1078   1.417   .     A
C1076  O1101   1.377   .     S
C1077  C1079   1.417   .     A
C1077  C1081   1.408   .     A
C1078  C1082   1.437   .     A
C1078  C1080   1.421   .     A
C1079  C425    1.417   1_556 S
C1081  C452    1.402   1_556 S
Cu1083 O1096   1.993   .     S
Cu1083 O1089   1.973   .     S
Cu1083 O1092   1.974   .     S
Cu1083 O1093   1.982   .     S
Cu1083 N1087   2.058   .     S
Cu1083 Cu1224  2.738   1_455 S
Cu1084 O1091   1.974   .     S
Cu1084 O1095   1.993   .     S
Cu1084 O1090   1.973   .     S
Cu1084 O1094   1.982   .     S
Cu1084 N1088   2.058   .     S
Cu1084 Cu1153  2.738   .     S
O1091  C1121   1.318   .     S
O1092  C1192   1.318   1_455 S
O1093  C1207   1.315   1_455 S
O1094  C1138   1.315   .     S
O1097  H1098   0.990   .     S
O1099  H1100   0.993   .     S
O1101  H1102   0.991   .     S
O1103  H1104   0.992   .     S
I1105  C1144   2.160   .     S
I1106  C1213   2.091   1_455 S
O1107  C1211   1.379   1_455 S
O1107  H618    0.989   1_456 S
O1109  H1250   0.989   1_455 S
H1110  O1179   0.989   .     S
O1117  H1118   0.976   .     S
O1119  H1120   0.975   .     S
C1121  C1132   1.460   .     S
C1121  O1159   1.307   .     A
C1122  O1160   1.306   .     A
C1122  C1131   1.462   .     S
C1122  O1232   1.318   .     S
C1123  C1125   1.421   .     A
C1123  C1152   1.413   .     A
C1123  I1181   2.134   .     S
C1124  I1182   2.137   .     S
C1124  C1126   1.389   .     A
C1124  C1151   1.386   .     A
C1125  O1167   1.381   .     S
C1126  O1169   1.377   .     S
C1126  C520    1.402   1_556 S
C1127  H1155   1.076   .     S
C1127  C1202   1.399   .     S
C1128  H1156   1.075   .     S
C1128  C710    1.384   1_565 S
C1129  C1131   1.413   .     A
C1129  I1183   2.134   .     S
C1129  C707    1.384   1_565 S
C1130  I1184   2.135   .     S
C1130  C1132   1.412   .     A
C1131  C1198   1.400   .     S
C1133  I1185   2.121   .     S
C1133  N1158   1.377   .     A
C1133  C1135   1.423   .     A
C1134  I1186   2.112   .     S
C1134  C1136   1.423   .     A
C1134  N1157   1.376   .     A
C1135  O1187   1.374   .     S
C1135  N1157   1.381   .     A
C1136  O1189   1.377   .     S
C1136  N1158   1.383   .     A
C1137  O1165   1.318   .     A
C1137  C1139   1.483   .     S
C1137  O1233   1.315   .     S
C1138  O1166   1.322   .     A
C1138  C1140   1.489   .     S
C1139  C1143   1.387   .     A
C1139  C1145   1.381   .     A
C1140  C1146   1.420   .     A
C1140  C1144   1.423   .     A
C1141  C1149   1.427   .     A
C1141  C1143   1.407   .     A
C1141  O1247   1.379   .     S
C1142  C1144   1.407   .     A
C1142  O1179   1.381   .     S
C1142  C1150   1.408   .     A
C1143  I1246   2.091   .     S
C1145  O1173   1.374   .     S
C1145  C1147   1.418   .     A
C1146  C1148   1.417   .     A
C1146  O1171   1.377   .     S
C1147  C1149   1.417   .     A
C1147  C1151   1.408   .     A
C1148  C1152   1.437   .     A
C1148  C1150   1.421   .     A
C1149  C495    1.417   1_556 S
C1151  C522    1.402   1_556 S
Cu1153 O1166   1.993   .     S
Cu1153 O1159   1.973   .     S
Cu1153 O1162   1.974   .     S
Cu1153 O1163   1.982   .     S
Cu1153 N1157   2.058   .     S
Cu1154 O1161   1.974   .     S
Cu1154 O1165   1.993   .     S
Cu1154 O1160   1.973   .     S
Cu1154 O1164   1.982   .     S
Cu1154 N1158   2.058   .     S
Cu1154 Cu1223  2.738   .     S
O1161  C1191   1.318   .     S
O1164  C1208   1.315   .     S
O1167  H1168   0.990   .     S
O1169  H1170   0.993   .     S
O1171  H1172   0.991   .     S
O1173  H1174   0.992   .     S
I1175  C1214   2.160   .     S
O1177  H478    0.989   1_556 S
H1180  O1249   0.989   .     S
O1187  H1188   0.976   .     S
O1189  H1190   0.975   .     S
C1191  C1202   1.460   .     S
C1191  O1229   1.307   .     A
C1192  O1230   1.306   .     A
C1192  C1201   1.462   .     S
C1192  O1092   1.318   1_655 S
C1193  C1195   1.421   .     A
C1193  C1222   1.413   .     A
C1193  I1251   2.134   .     S
C1194  I1252   2.137   .     S
C1194  C1196   1.389   .     A
C1194  C1221   1.386   .     A
C1195  O1237   1.381   .     S
C1196  O1239   1.377   .     S
C1196  C590    1.402   1_556 S
C1197  H1225   1.076   .     S
C1197  C1062   1.399   1_655 S
C1198  H1226   1.075   .     S
C1198  C780    1.384   1_565 S
C1199  C1201   1.413   .     A
C1199  I1253   2.134   .     S
C1199  C777    1.384   1_565 S
C1200  I1254   2.135   .     S
C1200  C1202   1.412   .     A
C1201  C1058   1.400   1_655 S
C1203  I1255   2.121   .     S
C1203  N1228   1.377   .     A
C1203  C1205   1.423   .     A
C1204  I1256   2.112   .     S
C1204  C1206   1.423   .     A
C1204  N1227   1.376   .     A
C1205  O1257   1.374   .     S
C1205  N1227   1.381   .     A
C1206  O1259   1.377   .     S
C1206  N1228   1.383   .     A
C1207  O1235   1.318   .     A
C1207  C1209   1.483   .     S
C1207  O1093   1.315   1_655 S
C1208  O1236   1.322   .     A
C1208  C1210   1.489   .     S
C1209  C1213   1.387   .     A
C1209  C1215   1.381   .     A
C1210  C1216   1.420   .     A
C1210  C1214   1.423   .     A
C1211  C1219   1.427   .     A
C1211  C1213   1.407   .     A
C1211  O1107   1.379   1_655 S
C1212  C1214   1.407   .     A
C1212  O1249   1.381   .     S
C1212  C1220   1.408   .     A
C1213  I1106   2.091   1_655 S
C1215  O1243   1.374   .     S
C1215  C1217   1.418   .     A
C1216  C1218   1.417   .     A
C1216  O1241   1.377   .     S
C1217  C1219   1.417   .     A
C1217  C1221   1.408   .     A
C1218  C1222   1.437   .     A
C1218  C1220   1.421   .     A
C1219  C565    1.417   1_556 S
C1221  C592    1.402   1_556 S
Cu1223 O1236   1.993   .     S
Cu1223 O1229   1.973   .     S
Cu1223 O1232   1.974   .     S
Cu1223 O1233   1.982   .     S
Cu1223 N1227   2.058   .     S
Cu1224 O1231   1.974   .     S
Cu1224 O1235   1.993   .     S
Cu1224 O1230   1.973   .     S
Cu1224 O1234   1.982   .     S
Cu1224 N1228   2.058   .     S
Cu1224 Cu1083  2.738   1_655 S
O1231  C1051   1.318   1_655 S
O1234  C1068   1.315   1_655 S
O1237  H1238   0.990   .     S
O1239  H1240   0.993   .     S
O1241  H1242   0.991   .     S
O1243  H1244   0.992   .     S
I1245  C1074   2.160   1_655 S
O1247  H548    0.989   1_556 S
H1248  O477    0.989   1_655 S
H1250  O1109   0.989   1_655 S
O1257  H1258   0.976   .     S
O1259  H1260   0.975   .     S
