data_str_m2_o1_o2_pcu_sym.77
_audit_creation_date              2020-01-03
_audit_creation_method            'Materials Studio'
_symmetry_space_group_name_H-M    'P1'
_symmetry_Int_Tables_number       1
_symmetry_cell_setting            triclinic
loop_
_symmetry_equiv_pos_as_xyz
  x,y,z
_cell_length_a                    32.6399
_cell_length_b                    28.4391
_cell_length_c                    30.3605
_cell_angle_alpha                 89.6679
_cell_angle_beta                  90.5357
_cell_angle_gamma                 89.4004
loop_
_atom_site_label
_atom_site_type_symbol
_atom_site_fract_x
_atom_site_fract_y
_atom_site_fract_z
_atom_site_U_iso_or_equiv
_atom_site_adp_type
_atom_site_occupancy
Br1    Br    0.15235   0.26980   0.11612   0.00000  Uiso   1.00
Br2    Br    0.24652   0.11790   0.37357   0.00000  Uiso   1.00
Br3    Br    0.08880   0.21487   0.37559   0.00000  Uiso   1.00
Br4    Br    0.19350   0.06525   0.12053   0.00000  Uiso   1.00
C5     C     0.08734   0.16694   0.25063   0.00000  Uiso   1.00
C6     C     0.31140   0.20666   0.23494   0.00000  Uiso   1.00
C7     C     0.31267   0.12468   0.25978   0.00000  Uiso   1.00
C8     C     0.02057   0.20839   0.23895   0.00000  Uiso   1.00
C9     C     0.16706   0.20843   0.04505   0.00000  Uiso   1.00
C10    C     0.20258   0.14587   0.45095   0.00000  Uiso   1.00
C11    C     0.13494   0.18408   0.45172   0.00000  Uiso   1.00
C12    C     0.17451   0.12313   0.04667   0.00000  Uiso   1.00
C13    C     0.16428   0.20902   0.09095   0.00000  Uiso   1.00
C14    C     0.20113   0.14528   0.40497   0.00000  Uiso   1.00
C15    C     0.13492   0.18605   0.40577   0.00000  Uiso   1.00
C16    C     0.24597   0.16637   0.24912   0.00000  Uiso   1.00
C17    C     0.17722   0.12401   0.09264   0.00000  Uiso   1.00
C18    C     0.16972   0.16669   0.11572   0.00000  Uiso   1.00
C19    C     0.16766   0.16604   0.38251   0.00000  Uiso   1.00
C20    C     0.17030   0.16539   0.02285   0.00000  Uiso   1.00
C21    C     0.16919   0.16481   0.47446   0.00000  Uiso   1.00
C22    C     0.29056   0.16574   0.24780   0.00000  Uiso   1.00
C23    C     0.04270   0.16743   0.25140   0.00000  Uiso   1.00
C24    C     0.20272   0.26686   0.01180   0.00000  Uiso   1.00
C25    C     0.26460   0.15958   0.48325   0.00000  Uiso   1.00
C26    C     0.07433   0.16910   0.48532   0.00000  Uiso   1.00
C27    C     0.16767   0.16675   0.16459   0.00000  Uiso   1.00
C28    C     0.13962   0.06226   0.01656   0.00000  Uiso   1.00
C29    C     0.04644   0.08813   0.32445   0.00000  Uiso   1.00
C30    C     0.28548   0.24238   0.17359   0.00000  Uiso   1.00
C31    C     0.29418   0.05291   0.23445   0.00000  Uiso   1.00
C32    C     0.03832   0.28134   0.26205   0.00000  Uiso   1.00
C33    C     0.16685   0.16652   0.33478   0.00000  Uiso   1.00
C34    C     0.13933   0.02533   0.22454   0.00000  Uiso   1.00
C35    C     0.19387   0.30800   0.27566   0.00000  Uiso   1.00
C36    C     0.19374   0.02437   0.27579   0.00000  Uiso   1.00
C37    C     0.13925   0.30899   0.22469   0.00000  Uiso   1.00
C38    C     0.02182   0.12633   0.26381   0.00000  Uiso   1.00
Cu39   Cu    0.16667   0.21355   0.25000   0.00000  Uiso   1.00
Cu40   Cu    0.16667   0.11978   0.25000   0.00000  Uiso   1.00
H41    H     0.11749   0.04451   0.20410   0.00000  Uiso   1.00
H42    H     0.29389   0.14174   0.49233   0.00000  Uiso   1.00
H43    H     0.08570   0.14815   0.01396   0.00000  Uiso   1.00
H44    H     0.06701   0.14571   0.45704   0.00000  Uiso   1.00
H45    H     0.04528   0.18639   0.49532   0.00000  Uiso   1.00
H46    H     0.11988   0.06257   0.04631   0.00000  Uiso   1.00
H47    H     0.14309   0.02511   0.00632   0.00000  Uiso   1.00
H48    H     0.12440   0.08145   0.48888   0.00000  Uiso   1.00
H49    H     0.06474   0.11889   0.33511   0.00000  Uiso   1.00
H50    H     0.06289   0.05595   0.33597   0.00000  Uiso   1.00
H51    H     0.01588   0.08873   0.34042   0.00000  Uiso   1.00
H52    H     0.21563   0.28882   0.29617   0.00000  Uiso   1.00
H53    H     0.26832   0.27379   0.16139   0.00000  Uiso   1.00
H54    H     0.26734   0.21087   0.16454   0.00000  Uiso   1.00
H55    H     0.31564   0.24161   0.15678   0.00000  Uiso   1.00
H56    H     0.27797   0.06853   0.20535   0.00000  Uiso   1.00
H57    H     0.27832   0.01992   0.24327   0.00000  Uiso   1.00
H58    H     0.32614   0.04318   0.22563   0.00000  Uiso   1.00
H59    H     0.05349   0.31436   0.25203   0.00000  Uiso   1.00
H60    H     0.05476   0.26739   0.29167   0.00000  Uiso   1.00
H61    H     0.00618   0.29064   0.27051   0.00000  Uiso   1.00
H62    H     0.21533   0.04281   0.29649   0.00000  Uiso   1.00
H63    H     0.11719   0.29058   0.20460   0.00000  Uiso   1.00
H64    H     0.21617   0.24663   0.48425   0.00000  Uiso   1.00
H65    H     0.22366   0.26618   0.04102   0.00000  Uiso   1.00
H66    H     0.20003   0.30394   0.00064   0.00000  Uiso   1.00
H67    H     0.25460   0.18002   0.01235   0.00000  Uiso   1.00
H68    H     0.27098   0.18350   0.45499   0.00000  Uiso   1.00
N69    N     0.16667   0.28402   0.25000   0.00000  Uiso   1.00
N70    N     0.16667   0.04931   0.25000   0.00000  Uiso   1.00
O71    O     0.10655   0.20625   0.25000   0.00000  Uiso   1.00
O72    O     0.23559   0.12493   0.47265   0.00000  Uiso   1.00
O73    O     0.10258   0.20432   0.47420   0.00000  Uiso   1.00
O74    O     0.17887   0.08068   0.02498   0.00000  Uiso   1.00
O75    O     0.04278   0.08645   0.27818   0.00000  Uiso   1.00
O76    O     0.29039   0.24612   0.21963   0.00000  Uiso   1.00
O77    O     0.29289   0.08350   0.27091   0.00000  Uiso   1.00
O78    O     0.04042   0.24920   0.22681   0.00000  Uiso   1.00
O79    O     0.22679   0.12709   0.25001   0.00000  Uiso   1.00
O80    O     0.22679   0.20625   0.25001   0.00000  Uiso   1.00
O81    O     0.10655   0.12709   0.25000   0.00000  Uiso   1.00
O82    O     0.16666   0.20626   0.18573   0.00000  Uiso   1.00
O83    O     0.16667   0.12707   0.31427   0.00000  Uiso   1.00
O84    O     0.16667   0.20626   0.31427   0.00000  Uiso   1.00
O85    O     0.16666   0.12707   0.18573   0.00000  Uiso   1.00
O86    O     0.16325   0.25030   0.02172   0.00000  Uiso   1.00
Br87   Br    0.48569   0.26980   0.11612   0.00000  Uiso   1.00
Br88   Br    0.57985   0.11790   0.37357   0.00000  Uiso   1.00
Br89   Br    0.42214   0.21487   0.37559   0.00000  Uiso   1.00
Br90   Br    0.52683   0.06525   0.12053   0.00000  Uiso   1.00
C91    C     0.42067   0.16694   0.25063   0.00000  Uiso   1.00
C92    C     0.64473   0.20666   0.23494   0.00000  Uiso   1.00
C93    C     0.64601   0.12468   0.25978   0.00000  Uiso   1.00
C94    C     0.35391   0.20839   0.23895   0.00000  Uiso   1.00
C95    C     0.50039   0.20843   0.04505   0.00000  Uiso   1.00
C96    C     0.53591   0.14587   0.45095   0.00000  Uiso   1.00
C97    C     0.46827   0.18408   0.45172   0.00000  Uiso   1.00
C98    C     0.50784   0.12313   0.04667   0.00000  Uiso   1.00
C99    C     0.49761   0.20902   0.09095   0.00000  Uiso   1.00
C100   C     0.53446   0.14528   0.40497   0.00000  Uiso   1.00
C101   C     0.46825   0.18605   0.40577   0.00000  Uiso   1.00
C102   C     0.57930   0.16637   0.24912   0.00000  Uiso   1.00
C103   C     0.51056   0.12401   0.09264   0.00000  Uiso   1.00
C104   C     0.50306   0.16669   0.11572   0.00000  Uiso   1.00
C105   C     0.50099   0.16604   0.38251   0.00000  Uiso   1.00
C106   C     0.50363   0.16539   0.02285   0.00000  Uiso   1.00
C107   C     0.50252   0.16481   0.47446   0.00000  Uiso   1.00
C108   C     0.62389   0.16574   0.24780   0.00000  Uiso   1.00
C109   C     0.37603   0.16743   0.25140   0.00000  Uiso   1.00
C110   C     0.53605   0.26686   0.01180   0.00000  Uiso   1.00
C111   C     0.59793   0.15958   0.48325   0.00000  Uiso   1.00
C112   C     0.40766   0.16910   0.48532   0.00000  Uiso   1.00
C113   C     0.50101   0.16675   0.16459   0.00000  Uiso   1.00
C114   C     0.47296   0.06226   0.01656   0.00000  Uiso   1.00
C115   C     0.37978   0.08813   0.32445   0.00000  Uiso   1.00
C116   C     0.61881   0.24238   0.17359   0.00000  Uiso   1.00
C117   C     0.62751   0.05291   0.23445   0.00000  Uiso   1.00
C118   C     0.37165   0.28134   0.26205   0.00000  Uiso   1.00
C119   C     0.50019   0.16652   0.33478   0.00000  Uiso   1.00
C120   C     0.47266   0.02533   0.22454   0.00000  Uiso   1.00
C121   C     0.52720   0.30800   0.27566   0.00000  Uiso   1.00
C122   C     0.52708   0.02437   0.27579   0.00000  Uiso   1.00
C123   C     0.47258   0.30899   0.22469   0.00000  Uiso   1.00
C124   C     0.35515   0.12633   0.26381   0.00000  Uiso   1.00
Cu125  Cu    0.50000   0.21355   0.25000   0.00000  Uiso   1.00
Cu126  Cu    0.50000   0.11978   0.25000   0.00000  Uiso   1.00
H127   H     0.45083   0.04451   0.20410   0.00000  Uiso   1.00
H128   H     0.62722   0.14174   0.49233   0.00000  Uiso   1.00
H129   H     0.41903   0.14815   0.01396   0.00000  Uiso   1.00
H130   H     0.40034   0.14571   0.45704   0.00000  Uiso   1.00
H131   H     0.37861   0.18639   0.49532   0.00000  Uiso   1.00
H132   H     0.45321   0.06257   0.04631   0.00000  Uiso   1.00
H133   H     0.47643   0.02511   0.00632   0.00000  Uiso   1.00
H134   H     0.45773   0.08145   0.48888   0.00000  Uiso   1.00
H135   H     0.39808   0.11889   0.33511   0.00000  Uiso   1.00
H136   H     0.39622   0.05595   0.33597   0.00000  Uiso   1.00
H137   H     0.34922   0.08873   0.34042   0.00000  Uiso   1.00
H138   H     0.54897   0.28882   0.29617   0.00000  Uiso   1.00
H139   H     0.60165   0.27379   0.16139   0.00000  Uiso   1.00
H140   H     0.60067   0.21087   0.16454   0.00000  Uiso   1.00
H141   H     0.64897   0.24161   0.15678   0.00000  Uiso   1.00
H142   H     0.61130   0.06853   0.20535   0.00000  Uiso   1.00
H143   H     0.61166   0.01992   0.24327   0.00000  Uiso   1.00
H144   H     0.65948   0.04318   0.22563   0.00000  Uiso   1.00
H145   H     0.38683   0.31436   0.25203   0.00000  Uiso   1.00
H146   H     0.38809   0.26739   0.29167   0.00000  Uiso   1.00
H147   H     0.33951   0.29064   0.27051   0.00000  Uiso   1.00
H148   H     0.54866   0.04281   0.29649   0.00000  Uiso   1.00
H149   H     0.45053   0.29058   0.20460   0.00000  Uiso   1.00
H150   H     0.54950   0.24663   0.48425   0.00000  Uiso   1.00
H151   H     0.55700   0.26618   0.04102   0.00000  Uiso   1.00
H152   H     0.53336   0.30394   0.00064   0.00000  Uiso   1.00
H153   H     0.58793   0.18002   0.01235   0.00000  Uiso   1.00
H154   H     0.60432   0.18350   0.45499   0.00000  Uiso   1.00
N155   N     0.50000   0.28402   0.25000   0.00000  Uiso   1.00
N156   N     0.50000   0.04931   0.25000   0.00000  Uiso   1.00
O157   O     0.43988   0.20625   0.25000   0.00000  Uiso   1.00
O158   O     0.56892   0.12493   0.47265   0.00000  Uiso   1.00
O159   O     0.43592   0.20432   0.47420   0.00000  Uiso   1.00
O160   O     0.51220   0.08068   0.02498   0.00000  Uiso   1.00
O161   O     0.37611   0.08645   0.27818   0.00000  Uiso   1.00
O162   O     0.62372   0.24612   0.21963   0.00000  Uiso   1.00
O163   O     0.62623   0.08350   0.27091   0.00000  Uiso   1.00
O164   O     0.37375   0.24920   0.22681   0.00000  Uiso   1.00
O165   O     0.56012   0.12709   0.25001   0.00000  Uiso   1.00
O166   O     0.56012   0.20625   0.25001   0.00000  Uiso   1.00
O167   O     0.43988   0.12709   0.25000   0.00000  Uiso   1.00
O168   O     0.50000   0.20626   0.18573   0.00000  Uiso   1.00
O169   O     0.50000   0.12707   0.31427   0.00000  Uiso   1.00
O170   O     0.50000   0.20626   0.31427   0.00000  Uiso   1.00
O171   O     0.50000   0.12707   0.18573   0.00000  Uiso   1.00
O172   O     0.49659   0.25030   0.02172   0.00000  Uiso   1.00
Br173  Br    0.81902   0.26980   0.11612   0.00000  Uiso   1.00
Br174  Br    0.91318   0.11790   0.37357   0.00000  Uiso   1.00
Br175  Br    0.75547   0.21487   0.37559   0.00000  Uiso   1.00
Br176  Br    0.86016   0.06525   0.12053   0.00000  Uiso   1.00
C177   C     0.75400   0.16694   0.25063   0.00000  Uiso   1.00
C178   C     0.97806   0.20666   0.23494   0.00000  Uiso   1.00
C179   C     0.97934   0.12468   0.25978   0.00000  Uiso   1.00
C180   C     0.68724   0.20839   0.23895   0.00000  Uiso   1.00
C181   C     0.83372   0.20843   0.04505   0.00000  Uiso   1.00
C182   C     0.86925   0.14587   0.45095   0.00000  Uiso   1.00
C183   C     0.80161   0.18408   0.45172   0.00000  Uiso   1.00
C184   C     0.84118   0.12313   0.04667   0.00000  Uiso   1.00
C185   C     0.83094   0.20902   0.09095   0.00000  Uiso   1.00
C186   C     0.86779   0.14528   0.40497   0.00000  Uiso   1.00
C187   C     0.80159   0.18605   0.40577   0.00000  Uiso   1.00
C188   C     0.91263   0.16637   0.24912   0.00000  Uiso   1.00
C189   C     0.84389   0.12401   0.09264   0.00000  Uiso   1.00
C190   C     0.83639   0.16669   0.11572   0.00000  Uiso   1.00
C191   C     0.83433   0.16604   0.38251   0.00000  Uiso   1.00
C192   C     0.83696   0.16539   0.02285   0.00000  Uiso   1.00
C193   C     0.83586   0.16481   0.47446   0.00000  Uiso   1.00
C194   C     0.95722   0.16574   0.24780   0.00000  Uiso   1.00
C195   C     0.70937   0.16743   0.25140   0.00000  Uiso   1.00
C196   C     0.86939   0.26686   0.01180   0.00000  Uiso   1.00
C197   C     0.93127   0.15958   0.48325   0.00000  Uiso   1.00
C198   C     0.74099   0.16910   0.48532   0.00000  Uiso   1.00
C199   C     0.83434   0.16675   0.16459   0.00000  Uiso   1.00
C200   C     0.80629   0.06226   0.01656   0.00000  Uiso   1.00
C201   C     0.71311   0.08813   0.32445   0.00000  Uiso   1.00
C202   C     0.95214   0.24238   0.17359   0.00000  Uiso   1.00
C203   C     0.96084   0.05291   0.23445   0.00000  Uiso   1.00
C204   C     0.70499   0.28134   0.26205   0.00000  Uiso   1.00
C205   C     0.83352   0.16652   0.33478   0.00000  Uiso   1.00
C206   C     0.80600   0.02533   0.22454   0.00000  Uiso   1.00
C207   C     0.86053   0.30800   0.27566   0.00000  Uiso   1.00
C208   C     0.86041   0.02437   0.27579   0.00000  Uiso   1.00
C209   C     0.80591   0.30899   0.22469   0.00000  Uiso   1.00
C210   C     0.68849   0.12633   0.26381   0.00000  Uiso   1.00
Cu211  Cu    0.83333   0.21355   0.25000   0.00000  Uiso   1.00
Cu212  Cu    0.83333   0.11978   0.25000   0.00000  Uiso   1.00
H213   H     0.78416   0.04451   0.20410   0.00000  Uiso   1.00
H214   H     0.96056   0.14174   0.49233   0.00000  Uiso   1.00
H215   H     0.75236   0.14815   0.01396   0.00000  Uiso   1.00
H216   H     0.73367   0.14571   0.45704   0.00000  Uiso   1.00
H217   H     0.71194   0.18639   0.49532   0.00000  Uiso   1.00
H218   H     0.78655   0.06257   0.04631   0.00000  Uiso   1.00
H219   H     0.80976   0.02511   0.00632   0.00000  Uiso   1.00
H220   H     0.79107   0.08145   0.48888   0.00000  Uiso   1.00
H221   H     0.73141   0.11889   0.33511   0.00000  Uiso   1.00
H222   H     0.72956   0.05595   0.33597   0.00000  Uiso   1.00
H223   H     0.68255   0.08873   0.34042   0.00000  Uiso   1.00
H224   H     0.88230   0.28882   0.29617   0.00000  Uiso   1.00
H225   H     0.93498   0.27379   0.16139   0.00000  Uiso   1.00
H226   H     0.93401   0.21087   0.16454   0.00000  Uiso   1.00
H227   H     0.98230   0.24161   0.15678   0.00000  Uiso   1.00
H228   H     0.94464   0.06853   0.20535   0.00000  Uiso   1.00
H229   H     0.94499   0.01992   0.24327   0.00000  Uiso   1.00
H230   H     0.99281   0.04318   0.22563   0.00000  Uiso   1.00
H231   H     0.72016   0.31436   0.25203   0.00000  Uiso   1.00
H232   H     0.72143   0.26739   0.29167   0.00000  Uiso   1.00
H233   H     0.67285   0.29064   0.27051   0.00000  Uiso   1.00
H234   H     0.88199   0.04281   0.29649   0.00000  Uiso   1.00
H235   H     0.78386   0.29058   0.20460   0.00000  Uiso   1.00
H236   H     0.88284   0.24663   0.48425   0.00000  Uiso   1.00
H237   H     0.89033   0.26618   0.04102   0.00000  Uiso   1.00
H238   H     0.86670   0.30394   0.00064   0.00000  Uiso   1.00
H239   H     0.92127   0.18002   0.01235   0.00000  Uiso   1.00
H240   H     0.93765   0.18350   0.45499   0.00000  Uiso   1.00
N241   N     0.83333   0.28402   0.25000   0.00000  Uiso   1.00
N242   N     0.83333   0.04931   0.25000   0.00000  Uiso   1.00
O243   O     0.77321   0.20625   0.25000   0.00000  Uiso   1.00
O244   O     0.90225   0.12493   0.47265   0.00000  Uiso   1.00
O245   O     0.76925   0.20432   0.47420   0.00000  Uiso   1.00
O246   O     0.84554   0.08068   0.02498   0.00000  Uiso   1.00
O247   O     0.70945   0.08645   0.27818   0.00000  Uiso   1.00
O248   O     0.95706   0.24612   0.21963   0.00000  Uiso   1.00
O249   O     0.95956   0.08350   0.27091   0.00000  Uiso   1.00
O250   O     0.70708   0.24920   0.22681   0.00000  Uiso   1.00
O251   O     0.89345   0.12709   0.25001   0.00000  Uiso   1.00
O252   O     0.89345   0.20625   0.25001   0.00000  Uiso   1.00
O253   O     0.77321   0.12709   0.25000   0.00000  Uiso   1.00
O254   O     0.83333   0.20626   0.18573   0.00000  Uiso   1.00
O255   O     0.83334   0.12707   0.31427   0.00000  Uiso   1.00
O256   O     0.83334   0.20626   0.31427   0.00000  Uiso   1.00
O257   O     0.83333   0.12707   0.18573   0.00000  Uiso   1.00
O258   O     0.82992   0.25030   0.02172   0.00000  Uiso   1.00
Br259  Br    0.15235   0.60313   0.11612   0.00000  Uiso   1.00
Br260  Br    0.24652   0.45123   0.37357   0.00000  Uiso   1.00
Br261  Br    0.08880   0.54820   0.37559   0.00000  Uiso   1.00
Br262  Br    0.19350   0.39858   0.12053   0.00000  Uiso   1.00
C263   C     0.08734   0.50027   0.25063   0.00000  Uiso   1.00
C264   C     0.31140   0.53999   0.23494   0.00000  Uiso   1.00
C265   C     0.31267   0.45801   0.25978   0.00000  Uiso   1.00
C266   C     0.02057   0.54172   0.23895   0.00000  Uiso   1.00
C267   C     0.16706   0.54176   0.04505   0.00000  Uiso   1.00
C268   C     0.20258   0.47920   0.45095   0.00000  Uiso   1.00
C269   C     0.13494   0.51742   0.45172   0.00000  Uiso   1.00
C270   C     0.17451   0.45646   0.04667   0.00000  Uiso   1.00
C271   C     0.16428   0.54235   0.09095   0.00000  Uiso   1.00
C272   C     0.20113   0.47861   0.40497   0.00000  Uiso   1.00
C273   C     0.13492   0.51938   0.40577   0.00000  Uiso   1.00
C274   C     0.24597   0.49970   0.24912   0.00000  Uiso   1.00
C275   C     0.17722   0.45735   0.09264   0.00000  Uiso   1.00
C276   C     0.16972   0.50002   0.11572   0.00000  Uiso   1.00
C277   C     0.16766   0.49937   0.38251   0.00000  Uiso   1.00
C278   C     0.17030   0.49872   0.02285   0.00000  Uiso   1.00
C279   C     0.16919   0.49814   0.47446   0.00000  Uiso   1.00
C280   C     0.29056   0.49907   0.24780   0.00000  Uiso   1.00
C281   C     0.04270   0.50077   0.25140   0.00000  Uiso   1.00
C282   C     0.20272   0.60019   0.01180   0.00000  Uiso   1.00
C283   C     0.26460   0.49291   0.48325   0.00000  Uiso   1.00
C284   C     0.07433   0.50244   0.48532   0.00000  Uiso   1.00
C285   C     0.16767   0.50009   0.16459   0.00000  Uiso   1.00
C286   C     0.13962   0.39559   0.01656   0.00000  Uiso   1.00
C287   C     0.04644   0.42147   0.32445   0.00000  Uiso   1.00
C288   C     0.28548   0.57571   0.17359   0.00000  Uiso   1.00
C289   C     0.29418   0.38624   0.23445   0.00000  Uiso   1.00
C290   C     0.03832   0.61467   0.26205   0.00000  Uiso   1.00
C291   C     0.16685   0.49985   0.33478   0.00000  Uiso   1.00
C292   C     0.13933   0.35867   0.22454   0.00000  Uiso   1.00
C293   C     0.19387   0.64134   0.27566   0.00000  Uiso   1.00
C294   C     0.19374   0.35771   0.27579   0.00000  Uiso   1.00
C295   C     0.13925   0.64232   0.22469   0.00000  Uiso   1.00
C296   C     0.02182   0.45966   0.26381   0.00000  Uiso   1.00
Cu297  Cu    0.16667   0.54689   0.25000   0.00000  Uiso   1.00
Cu298  Cu    0.16667   0.45311   0.25000   0.00000  Uiso   1.00
H299   H     0.11749   0.37784   0.20410   0.00000  Uiso   1.00
H300   H     0.29389   0.47507   0.49233   0.00000  Uiso   1.00
H301   H     0.08570   0.48148   0.01396   0.00000  Uiso   1.00
H302   H     0.06701   0.47904   0.45704   0.00000  Uiso   1.00
H303   H     0.04528   0.51973   0.49532   0.00000  Uiso   1.00
H304   H     0.11988   0.39590   0.04631   0.00000  Uiso   1.00
H305   H     0.14309   0.35845   0.00632   0.00000  Uiso   1.00
H306   H     0.12440   0.41479   0.48888   0.00000  Uiso   1.00
H307   H     0.06474   0.45222   0.33511   0.00000  Uiso   1.00
H308   H     0.06289   0.38928   0.33597   0.00000  Uiso   1.00
H309   H     0.01588   0.42206   0.34042   0.00000  Uiso   1.00
H310   H     0.21563   0.62215   0.29617   0.00000  Uiso   1.00
H311   H     0.26832   0.60713   0.16139   0.00000  Uiso   1.00
H312   H     0.26734   0.54420   0.16454   0.00000  Uiso   1.00
H313   H     0.31564   0.57494   0.15678   0.00000  Uiso   1.00
H314   H     0.27797   0.40186   0.20535   0.00000  Uiso   1.00
H315   H     0.27832   0.35325   0.24327   0.00000  Uiso   1.00
H316   H     0.32614   0.37652   0.22563   0.00000  Uiso   1.00
H317   H     0.05349   0.64770   0.25203   0.00000  Uiso   1.00
H318   H     0.05476   0.60072   0.29167   0.00000  Uiso   1.00
H319   H     0.00618   0.62397   0.27051   0.00000  Uiso   1.00
H320   H     0.21533   0.37615   0.29649   0.00000  Uiso   1.00
H321   H     0.11719   0.62391   0.20460   0.00000  Uiso   1.00
H322   H     0.21617   0.57996   0.48425   0.00000  Uiso   1.00
H323   H     0.22366   0.59951   0.04102   0.00000  Uiso   1.00
H324   H     0.20003   0.63727   0.00064   0.00000  Uiso   1.00
H325   H     0.25460   0.51335   0.01235   0.00000  Uiso   1.00
H326   H     0.27098   0.51684   0.45499   0.00000  Uiso   1.00
N327   N     0.16667   0.61736   0.25000   0.00000  Uiso   1.00
N328   N     0.16667   0.38264   0.25000   0.00000  Uiso   1.00
O329   O     0.10655   0.53958   0.25000   0.00000  Uiso   1.00
O330   O     0.23559   0.45826   0.47265   0.00000  Uiso   1.00
O331   O     0.10258   0.53765   0.47420   0.00000  Uiso   1.00
O332   O     0.17887   0.41401   0.02498   0.00000  Uiso   1.00
O333   O     0.04278   0.41978   0.27818   0.00000  Uiso   1.00
O334   O     0.29039   0.57946   0.21963   0.00000  Uiso   1.00
O335   O     0.29289   0.41683   0.27091   0.00000  Uiso   1.00
O336   O     0.04042   0.58254   0.22681   0.00000  Uiso   1.00
O337   O     0.22679   0.46042   0.25001   0.00000  Uiso   1.00
O338   O     0.22679   0.53958   0.25001   0.00000  Uiso   1.00
O339   O     0.10655   0.46042   0.25000   0.00000  Uiso   1.00
O340   O     0.16666   0.53959   0.18573   0.00000  Uiso   1.00
O341   O     0.16667   0.46041   0.31427   0.00000  Uiso   1.00
O342   O     0.16667   0.53959   0.31427   0.00000  Uiso   1.00
O343   O     0.16666   0.46041   0.18573   0.00000  Uiso   1.00
O344   O     0.16325   0.58364   0.02172   0.00000  Uiso   1.00
Br345  Br    0.48569   0.60313   0.11612   0.00000  Uiso   1.00
Br346  Br    0.57985   0.45123   0.37357   0.00000  Uiso   1.00
Br347  Br    0.42214   0.54820   0.37559   0.00000  Uiso   1.00
Br348  Br    0.52683   0.39858   0.12053   0.00000  Uiso   1.00
C349   C     0.42067   0.50027   0.25063   0.00000  Uiso   1.00
C350   C     0.64473   0.53999   0.23494   0.00000  Uiso   1.00
C351   C     0.64601   0.45801   0.25978   0.00000  Uiso   1.00
C352   C     0.35391   0.54172   0.23895   0.00000  Uiso   1.00
C353   C     0.50039   0.54176   0.04505   0.00000  Uiso   1.00
C354   C     0.53591   0.47920   0.45095   0.00000  Uiso   1.00
C355   C     0.46827   0.51742   0.45172   0.00000  Uiso   1.00
C356   C     0.50784   0.45646   0.04667   0.00000  Uiso   1.00
C357   C     0.49761   0.54235   0.09095   0.00000  Uiso   1.00
C358   C     0.53446   0.47861   0.40497   0.00000  Uiso   1.00
C359   C     0.46825   0.51938   0.40577   0.00000  Uiso   1.00
C360   C     0.57930   0.49970   0.24912   0.00000  Uiso   1.00
C361   C     0.51056   0.45735   0.09264   0.00000  Uiso   1.00
C362   C     0.50306   0.50002   0.11572   0.00000  Uiso   1.00
C363   C     0.50099   0.49937   0.38251   0.00000  Uiso   1.00
C364   C     0.50363   0.49872   0.02285   0.00000  Uiso   1.00
C365   C     0.50252   0.49814   0.47446   0.00000  Uiso   1.00
C366   C     0.62389   0.49907   0.24780   0.00000  Uiso   1.00
C367   C     0.37603   0.50077   0.25140   0.00000  Uiso   1.00
C368   C     0.53605   0.60019   0.01180   0.00000  Uiso   1.00
C369   C     0.59793   0.49291   0.48325   0.00000  Uiso   1.00
C370   C     0.40766   0.50244   0.48532   0.00000  Uiso   1.00
C371   C     0.50101   0.50009   0.16459   0.00000  Uiso   1.00
C372   C     0.47296   0.39559   0.01656   0.00000  Uiso   1.00
C373   C     0.37978   0.42147   0.32445   0.00000  Uiso   1.00
C374   C     0.61881   0.57571   0.17359   0.00000  Uiso   1.00
C375   C     0.62751   0.38624   0.23445   0.00000  Uiso   1.00
C376   C     0.37165   0.61467   0.26205   0.00000  Uiso   1.00
C377   C     0.50019   0.49985   0.33478   0.00000  Uiso   1.00
C378   C     0.47266   0.35867   0.22454   0.00000  Uiso   1.00
C379   C     0.52720   0.64134   0.27566   0.00000  Uiso   1.00
C380   C     0.52708   0.35771   0.27579   0.00000  Uiso   1.00
C381   C     0.47258   0.64232   0.22469   0.00000  Uiso   1.00
C382   C     0.35515   0.45966   0.26381   0.00000  Uiso   1.00
Cu383  Cu    0.50000   0.54689   0.25000   0.00000  Uiso   1.00
Cu384  Cu    0.50000   0.45311   0.25000   0.00000  Uiso   1.00
H385   H     0.45083   0.37784   0.20410   0.00000  Uiso   1.00
H386   H     0.62722   0.47507   0.49233   0.00000  Uiso   1.00
H387   H     0.41903   0.48148   0.01396   0.00000  Uiso   1.00
H388   H     0.40034   0.47904   0.45704   0.00000  Uiso   1.00
H389   H     0.37861   0.51973   0.49532   0.00000  Uiso   1.00
H390   H     0.45321   0.39590   0.04631   0.00000  Uiso   1.00
H391   H     0.47643   0.35845   0.00632   0.00000  Uiso   1.00
H392   H     0.45773   0.41479   0.48888   0.00000  Uiso   1.00
H393   H     0.39808   0.45222   0.33511   0.00000  Uiso   1.00
H394   H     0.39622   0.38928   0.33597   0.00000  Uiso   1.00
H395   H     0.34922   0.42206   0.34042   0.00000  Uiso   1.00
H396   H     0.54897   0.62215   0.29617   0.00000  Uiso   1.00
H397   H     0.60165   0.60713   0.16139   0.00000  Uiso   1.00
H398   H     0.60067   0.54420   0.16454   0.00000  Uiso   1.00
H399   H     0.64897   0.57494   0.15678   0.00000  Uiso   1.00
H400   H     0.61130   0.40186   0.20535   0.00000  Uiso   1.00
H401   H     0.61166   0.35325   0.24327   0.00000  Uiso   1.00
H402   H     0.65948   0.37652   0.22563   0.00000  Uiso   1.00
H403   H     0.38683   0.64770   0.25203   0.00000  Uiso   1.00
H404   H     0.38809   0.60072   0.29167   0.00000  Uiso   1.00
H405   H     0.33951   0.62397   0.27051   0.00000  Uiso   1.00
H406   H     0.54866   0.37615   0.29649   0.00000  Uiso   1.00
H407   H     0.45053   0.62391   0.20460   0.00000  Uiso   1.00
H408   H     0.54950   0.57996   0.48425   0.00000  Uiso   1.00
H409   H     0.55700   0.59951   0.04102   0.00000  Uiso   1.00
H410   H     0.53336   0.63727   0.00064   0.00000  Uiso   1.00
H411   H     0.58793   0.51335   0.01235   0.00000  Uiso   1.00
H412   H     0.60432   0.51684   0.45499   0.00000  Uiso   1.00
N413   N     0.50000   0.61736   0.25000   0.00000  Uiso   1.00
N414   N     0.50000   0.38264   0.25000   0.00000  Uiso   1.00
O415   O     0.43988   0.53958   0.25000   0.00000  Uiso   1.00
O416   O     0.56892   0.45826   0.47265   0.00000  Uiso   1.00
O417   O     0.43592   0.53765   0.47420   0.00000  Uiso   1.00
O418   O     0.51220   0.41401   0.02498   0.00000  Uiso   1.00
O419   O     0.37611   0.41978   0.27818   0.00000  Uiso   1.00
O420   O     0.62372   0.57946   0.21963   0.00000  Uiso   1.00
O421   O     0.62623   0.41683   0.27091   0.00000  Uiso   1.00
O422   O     0.37375   0.58254   0.22681   0.00000  Uiso   1.00
O423   O     0.56012   0.46042   0.25001   0.00000  Uiso   1.00
O424   O     0.56012   0.53958   0.25001   0.00000  Uiso   1.00
O425   O     0.43988   0.46042   0.25000   0.00000  Uiso   1.00
O426   O     0.50000   0.53959   0.18573   0.00000  Uiso   1.00
O427   O     0.50000   0.46041   0.31427   0.00000  Uiso   1.00
O428   O     0.50000   0.53959   0.31427   0.00000  Uiso   1.00
O429   O     0.50000   0.46041   0.18573   0.00000  Uiso   1.00
O430   O     0.49659   0.58364   0.02172   0.00000  Uiso   1.00
Br431  Br    0.81902   0.60313   0.11612   0.00000  Uiso   1.00
Br432  Br    0.91318   0.45123   0.37357   0.00000  Uiso   1.00
Br433  Br    0.75547   0.54820   0.37559   0.00000  Uiso   1.00
Br434  Br    0.86016   0.39858   0.12053   0.00000  Uiso   1.00
C435   C     0.75400   0.50027   0.25063   0.00000  Uiso   1.00
C436   C     0.97806   0.53999   0.23494   0.00000  Uiso   1.00
C437   C     0.97934   0.45801   0.25978   0.00000  Uiso   1.00
C438   C     0.68724   0.54172   0.23895   0.00000  Uiso   1.00
C439   C     0.83372   0.54176   0.04505   0.00000  Uiso   1.00
C440   C     0.86925   0.47920   0.45095   0.00000  Uiso   1.00
C441   C     0.80161   0.51742   0.45172   0.00000  Uiso   1.00
C442   C     0.84118   0.45646   0.04667   0.00000  Uiso   1.00
C443   C     0.83094   0.54235   0.09095   0.00000  Uiso   1.00
C444   C     0.86779   0.47861   0.40497   0.00000  Uiso   1.00
C445   C     0.80159   0.51938   0.40577   0.00000  Uiso   1.00
C446   C     0.91263   0.49970   0.24912   0.00000  Uiso   1.00
C447   C     0.84389   0.45735   0.09264   0.00000  Uiso   1.00
C448   C     0.83639   0.50002   0.11572   0.00000  Uiso   1.00
C449   C     0.83433   0.49937   0.38251   0.00000  Uiso   1.00
C450   C     0.83696   0.49872   0.02285   0.00000  Uiso   1.00
C451   C     0.83586   0.49814   0.47446   0.00000  Uiso   1.00
C452   C     0.95722   0.49907   0.24780   0.00000  Uiso   1.00
C453   C     0.70937   0.50077   0.25140   0.00000  Uiso   1.00
C454   C     0.86939   0.60019   0.01180   0.00000  Uiso   1.00
C455   C     0.93127   0.49291   0.48325   0.00000  Uiso   1.00
C456   C     0.74099   0.50244   0.48532   0.00000  Uiso   1.00
C457   C     0.83434   0.50009   0.16459   0.00000  Uiso   1.00
C458   C     0.80629   0.39559   0.01656   0.00000  Uiso   1.00
C459   C     0.71311   0.42147   0.32445   0.00000  Uiso   1.00
C460   C     0.95214   0.57571   0.17359   0.00000  Uiso   1.00
C461   C     0.96084   0.38624   0.23445   0.00000  Uiso   1.00
C462   C     0.70499   0.61467   0.26205   0.00000  Uiso   1.00
C463   C     0.83352   0.49985   0.33478   0.00000  Uiso   1.00
C464   C     0.80600   0.35867   0.22454   0.00000  Uiso   1.00
C465   C     0.86053   0.64134   0.27566   0.00000  Uiso   1.00
C466   C     0.86041   0.35771   0.27579   0.00000  Uiso   1.00
C467   C     0.80591   0.64232   0.22469   0.00000  Uiso   1.00
C468   C     0.68849   0.45966   0.26381   0.00000  Uiso   1.00
Cu469  Cu    0.83333   0.54689   0.25000   0.00000  Uiso   1.00
Cu470  Cu    0.83333   0.45311   0.25000   0.00000  Uiso   1.00
H471   H     0.78416   0.37784   0.20410   0.00000  Uiso   1.00
H472   H     0.96056   0.47507   0.49233   0.00000  Uiso   1.00
H473   H     0.75236   0.48148   0.01396   0.00000  Uiso   1.00
H474   H     0.73367   0.47904   0.45704   0.00000  Uiso   1.00
H475   H     0.71194   0.51973   0.49532   0.00000  Uiso   1.00
H476   H     0.78655   0.39590   0.04631   0.00000  Uiso   1.00
H477   H     0.80976   0.35845   0.00632   0.00000  Uiso   1.00
H478   H     0.79107   0.41479   0.48888   0.00000  Uiso   1.00
H479   H     0.73141   0.45222   0.33511   0.00000  Uiso   1.00
H480   H     0.72956   0.38928   0.33597   0.00000  Uiso   1.00
H481   H     0.68255   0.42206   0.34042   0.00000  Uiso   1.00
H482   H     0.88230   0.62215   0.29617   0.00000  Uiso   1.00
H483   H     0.93498   0.60713   0.16139   0.00000  Uiso   1.00
H484   H     0.93401   0.54420   0.16454   0.00000  Uiso   1.00
H485   H     0.98230   0.57494   0.15678   0.00000  Uiso   1.00
H486   H     0.94464   0.40186   0.20535   0.00000  Uiso   1.00
H487   H     0.94499   0.35325   0.24327   0.00000  Uiso   1.00
H488   H     0.99281   0.37652   0.22563   0.00000  Uiso   1.00
H489   H     0.72016   0.64770   0.25203   0.00000  Uiso   1.00
H490   H     0.72143   0.60072   0.29167   0.00000  Uiso   1.00
H491   H     0.67285   0.62397   0.27051   0.00000  Uiso   1.00
H492   H     0.88199   0.37615   0.29649   0.00000  Uiso   1.00
H493   H     0.78386   0.62391   0.20460   0.00000  Uiso   1.00
H494   H     0.88284   0.57996   0.48425   0.00000  Uiso   1.00
H495   H     0.89033   0.59951   0.04102   0.00000  Uiso   1.00
H496   H     0.86670   0.63727   0.00064   0.00000  Uiso   1.00
H497   H     0.92127   0.51335   0.01235   0.00000  Uiso   1.00
H498   H     0.93765   0.51684   0.45499   0.00000  Uiso   1.00
N499   N     0.83333   0.61736   0.25000   0.00000  Uiso   1.00
N500   N     0.83333   0.38264   0.25000   0.00000  Uiso   1.00
O501   O     0.77321   0.53958   0.25000   0.00000  Uiso   1.00
O502   O     0.90225   0.45826   0.47265   0.00000  Uiso   1.00
O503   O     0.76925   0.53765   0.47420   0.00000  Uiso   1.00
O504   O     0.84554   0.41401   0.02498   0.00000  Uiso   1.00
O505   O     0.70945   0.41978   0.27818   0.00000  Uiso   1.00
O506   O     0.95706   0.57946   0.21963   0.00000  Uiso   1.00
O507   O     0.95956   0.41683   0.27091   0.00000  Uiso   1.00
O508   O     0.70708   0.58254   0.22681   0.00000  Uiso   1.00
O509   O     0.89345   0.46042   0.25001   0.00000  Uiso   1.00
O510   O     0.89345   0.53958   0.25001   0.00000  Uiso   1.00
O511   O     0.77321   0.46042   0.25000   0.00000  Uiso   1.00
O512   O     0.83333   0.53959   0.18573   0.00000  Uiso   1.00
O513   O     0.83334   0.46041   0.31427   0.00000  Uiso   1.00
O514   O     0.83334   0.53959   0.31427   0.00000  Uiso   1.00
O515   O     0.83333   0.46041   0.18573   0.00000  Uiso   1.00
O516   O     0.82992   0.58364   0.02172   0.00000  Uiso   1.00
Br517  Br    0.15235   0.93646   0.11612   0.00000  Uiso   1.00
Br518  Br    0.24652   0.78456   0.37357   0.00000  Uiso   1.00
Br519  Br    0.08880   0.88154   0.37559   0.00000  Uiso   1.00
Br520  Br    0.19350   0.73192   0.12053   0.00000  Uiso   1.00
C521   C     0.08734   0.83361   0.25063   0.00000  Uiso   1.00
C522   C     0.31140   0.87333   0.23494   0.00000  Uiso   1.00
C523   C     0.31267   0.79134   0.25978   0.00000  Uiso   1.00
C524   C     0.02057   0.87505   0.23895   0.00000  Uiso   1.00
C525   C     0.16706   0.87510   0.04505   0.00000  Uiso   1.00
C526   C     0.20258   0.81254   0.45095   0.00000  Uiso   1.00
C527   C     0.13494   0.85075   0.45172   0.00000  Uiso   1.00
C528   C     0.17451   0.78979   0.04667   0.00000  Uiso   1.00
C529   C     0.16428   0.87568   0.09095   0.00000  Uiso   1.00
C530   C     0.20113   0.81194   0.40497   0.00000  Uiso   1.00
C531   C     0.13492   0.85272   0.40577   0.00000  Uiso   1.00
C532   C     0.24597   0.83303   0.24912   0.00000  Uiso   1.00
C533   C     0.17722   0.79068   0.09264   0.00000  Uiso   1.00
C534   C     0.16972   0.83336   0.11572   0.00000  Uiso   1.00
C535   C     0.16766   0.83270   0.38251   0.00000  Uiso   1.00
C536   C     0.17030   0.83206   0.02285   0.00000  Uiso   1.00
C537   C     0.16919   0.83147   0.47446   0.00000  Uiso   1.00
C538   C     0.29056   0.83240   0.24780   0.00000  Uiso   1.00
C539   C     0.04270   0.83410   0.25140   0.00000  Uiso   1.00
C540   C     0.20272   0.93353   0.01180   0.00000  Uiso   1.00
C541   C     0.26460   0.82624   0.48325   0.00000  Uiso   1.00
C542   C     0.07433   0.83577   0.48532   0.00000  Uiso   1.00
C543   C     0.16767   0.83342   0.16459   0.00000  Uiso   1.00
C544   C     0.13962   0.72893   0.01656   0.00000  Uiso   1.00
C545   C     0.04644   0.75480   0.32445   0.00000  Uiso   1.00
C546   C     0.28548   0.90905   0.17359   0.00000  Uiso   1.00
C547   C     0.29418   0.71957   0.23445   0.00000  Uiso   1.00
C548   C     0.03832   0.94800   0.26205   0.00000  Uiso   1.00
C549   C     0.16685   0.83319   0.33478   0.00000  Uiso   1.00
C550   C     0.13933   0.69200   0.22454   0.00000  Uiso   1.00
C551   C     0.19387   0.97467   0.27566   0.00000  Uiso   1.00
C552   C     0.19374   0.69104   0.27579   0.00000  Uiso   1.00
C553   C     0.13925   0.97566   0.22469   0.00000  Uiso   1.00
C554   C     0.02182   0.79300   0.26381   0.00000  Uiso   1.00
Cu555  Cu    0.16667   0.88022   0.25000   0.00000  Uiso   1.00
Cu556  Cu    0.16667   0.78645   0.25000   0.00000  Uiso   1.00
H557   H     0.11749   0.71118   0.20410   0.00000  Uiso   1.00
H558   H     0.29389   0.80841   0.49233   0.00000  Uiso   1.00
H559   H     0.08570   0.81482   0.01396   0.00000  Uiso   1.00
H560   H     0.06701   0.81238   0.45704   0.00000  Uiso   1.00
H561   H     0.04528   0.85306   0.49532   0.00000  Uiso   1.00
H562   H     0.11988   0.72923   0.04631   0.00000  Uiso   1.00
H563   H     0.14309   0.69178   0.00632   0.00000  Uiso   1.00
H564   H     0.12440   0.74812   0.48888   0.00000  Uiso   1.00
H565   H     0.06474   0.78556   0.33511   0.00000  Uiso   1.00
H566   H     0.06289   0.72262   0.33597   0.00000  Uiso   1.00
H567   H     0.01588   0.75539   0.34042   0.00000  Uiso   1.00
H568   H     0.21563   0.95548   0.29617   0.00000  Uiso   1.00
H569   H     0.26832   0.94046   0.16139   0.00000  Uiso   1.00
H570   H     0.26734   0.87754   0.16454   0.00000  Uiso   1.00
H571   H     0.31564   0.90828   0.15678   0.00000  Uiso   1.00
H572   H     0.27797   0.73519   0.20535   0.00000  Uiso   1.00
H573   H     0.27832   0.68658   0.24327   0.00000  Uiso   1.00
H574   H     0.32614   0.70985   0.22563   0.00000  Uiso   1.00
H575   H     0.05349   0.98103   0.25203   0.00000  Uiso   1.00
H576   H     0.05476   0.93405   0.29167   0.00000  Uiso   1.00
H577   H     0.00618   0.95730   0.27051   0.00000  Uiso   1.00
H578   H     0.21533   0.70948   0.29649   0.00000  Uiso   1.00
H579   H     0.11719   0.95725   0.20460   0.00000  Uiso   1.00
H580   H     0.21617   0.91329   0.48425   0.00000  Uiso   1.00
H581   H     0.22366   0.93285   0.04102   0.00000  Uiso   1.00
H582   H     0.20003   0.97061   0.00064   0.00000  Uiso   1.00
H583   H     0.25460   0.84668   0.01235   0.00000  Uiso   1.00
H584   H     0.27098   0.85017   0.45499   0.00000  Uiso   1.00
N585   N     0.16667   0.95069   0.25000   0.00000  Uiso   1.00
N586   N     0.16667   0.71598   0.25000   0.00000  Uiso   1.00
O587   O     0.10655   0.87291   0.25000   0.00000  Uiso   1.00
O588   O     0.23559   0.79159   0.47265   0.00000  Uiso   1.00
O589   O     0.10258   0.87098   0.47420   0.00000  Uiso   1.00
O590   O     0.17887   0.74734   0.02498   0.00000  Uiso   1.00
O591   O     0.04278   0.75312   0.27818   0.00000  Uiso   1.00
O592   O     0.29039   0.91279   0.21963   0.00000  Uiso   1.00
O593   O     0.29289   0.75017   0.27091   0.00000  Uiso   1.00
O594   O     0.04042   0.91587   0.22681   0.00000  Uiso   1.00
O595   O     0.22679   0.79375   0.25001   0.00000  Uiso   1.00
O596   O     0.22679   0.87291   0.25001   0.00000  Uiso   1.00
O597   O     0.10655   0.79375   0.25000   0.00000  Uiso   1.00
O598   O     0.16666   0.87293   0.18573   0.00000  Uiso   1.00
O599   O     0.16667   0.79374   0.31427   0.00000  Uiso   1.00
O600   O     0.16667   0.87293   0.31427   0.00000  Uiso   1.00
O601   O     0.16666   0.79374   0.18573   0.00000  Uiso   1.00
O602   O     0.16325   0.91697   0.02172   0.00000  Uiso   1.00
Br603  Br    0.48569   0.93646   0.11612   0.00000  Uiso   1.00
Br604  Br    0.57985   0.78456   0.37357   0.00000  Uiso   1.00
Br605  Br    0.42214   0.88154   0.37559   0.00000  Uiso   1.00
Br606  Br    0.52683   0.73192   0.12053   0.00000  Uiso   1.00
C607   C     0.42067   0.83361   0.25063   0.00000  Uiso   1.00
C608   C     0.64473   0.87333   0.23494   0.00000  Uiso   1.00
C609   C     0.64601   0.79134   0.25978   0.00000  Uiso   1.00
C610   C     0.35391   0.87505   0.23895   0.00000  Uiso   1.00
C611   C     0.50039   0.87510   0.04505   0.00000  Uiso   1.00
C612   C     0.53591   0.81254   0.45095   0.00000  Uiso   1.00
C613   C     0.46827   0.85075   0.45172   0.00000  Uiso   1.00
C614   C     0.50784   0.78979   0.04667   0.00000  Uiso   1.00
C615   C     0.49761   0.87568   0.09095   0.00000  Uiso   1.00
C616   C     0.53446   0.81194   0.40497   0.00000  Uiso   1.00
C617   C     0.46825   0.85272   0.40577   0.00000  Uiso   1.00
C618   C     0.57930   0.83303   0.24912   0.00000  Uiso   1.00
C619   C     0.51056   0.79068   0.09264   0.00000  Uiso   1.00
C620   C     0.50306   0.83336   0.11572   0.00000  Uiso   1.00
C621   C     0.50099   0.83270   0.38251   0.00000  Uiso   1.00
C622   C     0.50363   0.83206   0.02285   0.00000  Uiso   1.00
C623   C     0.50252   0.83147   0.47446   0.00000  Uiso   1.00
C624   C     0.62389   0.83240   0.24780   0.00000  Uiso   1.00
C625   C     0.37603   0.83410   0.25140   0.00000  Uiso   1.00
C626   C     0.53605   0.93353   0.01180   0.00000  Uiso   1.00
C627   C     0.59793   0.82624   0.48325   0.00000  Uiso   1.00
C628   C     0.40766   0.83577   0.48532   0.00000  Uiso   1.00
C629   C     0.50101   0.83342   0.16459   0.00000  Uiso   1.00
C630   C     0.47296   0.72893   0.01656   0.00000  Uiso   1.00
C631   C     0.37978   0.75480   0.32445   0.00000  Uiso   1.00
C632   C     0.61881   0.90905   0.17359   0.00000  Uiso   1.00
C633   C     0.62751   0.71957   0.23445   0.00000  Uiso   1.00
C634   C     0.37165   0.94800   0.26205   0.00000  Uiso   1.00
C635   C     0.50019   0.83319   0.33478   0.00000  Uiso   1.00
C636   C     0.47266   0.69200   0.22454   0.00000  Uiso   1.00
C637   C     0.52720   0.97467   0.27566   0.00000  Uiso   1.00
C638   C     0.52708   0.69104   0.27579   0.00000  Uiso   1.00
C639   C     0.47258   0.97566   0.22469   0.00000  Uiso   1.00
C640   C     0.35515   0.79300   0.26381   0.00000  Uiso   1.00
Cu641  Cu    0.50000   0.88022   0.25000   0.00000  Uiso   1.00
Cu642  Cu    0.50000   0.78645   0.25000   0.00000  Uiso   1.00
H643   H     0.45083   0.71118   0.20410   0.00000  Uiso   1.00
H644   H     0.62722   0.80841   0.49233   0.00000  Uiso   1.00
H645   H     0.41903   0.81482   0.01396   0.00000  Uiso   1.00
H646   H     0.40034   0.81238   0.45704   0.00000  Uiso   1.00
H647   H     0.37861   0.85306   0.49532   0.00000  Uiso   1.00
H648   H     0.45321   0.72923   0.04631   0.00000  Uiso   1.00
H649   H     0.47643   0.69178   0.00632   0.00000  Uiso   1.00
H650   H     0.45773   0.74812   0.48888   0.00000  Uiso   1.00
H651   H     0.39808   0.78556   0.33511   0.00000  Uiso   1.00
H652   H     0.39622   0.72262   0.33597   0.00000  Uiso   1.00
H653   H     0.34922   0.75539   0.34042   0.00000  Uiso   1.00
H654   H     0.54897   0.95548   0.29617   0.00000  Uiso   1.00
H655   H     0.60165   0.94046   0.16139   0.00000  Uiso   1.00
H656   H     0.60067   0.87754   0.16454   0.00000  Uiso   1.00
H657   H     0.64897   0.90828   0.15678   0.00000  Uiso   1.00
H658   H     0.61130   0.73519   0.20535   0.00000  Uiso   1.00
H659   H     0.61166   0.68658   0.24327   0.00000  Uiso   1.00
H660   H     0.65948   0.70985   0.22563   0.00000  Uiso   1.00
H661   H     0.38683   0.98103   0.25203   0.00000  Uiso   1.00
H662   H     0.38809   0.93405   0.29167   0.00000  Uiso   1.00
H663   H     0.33951   0.95730   0.27051   0.00000  Uiso   1.00
H664   H     0.54866   0.70948   0.29649   0.00000  Uiso   1.00
H665   H     0.45053   0.95725   0.20460   0.00000  Uiso   1.00
H666   H     0.54950   0.91329   0.48425   0.00000  Uiso   1.00
H667   H     0.55700   0.93285   0.04102   0.00000  Uiso   1.00
H668   H     0.53336   0.97061   0.00064   0.00000  Uiso   1.00
H669   H     0.58793   0.84668   0.01235   0.00000  Uiso   1.00
H670   H     0.60432   0.85017   0.45499   0.00000  Uiso   1.00
N671   N     0.50000   0.95069   0.25000   0.00000  Uiso   1.00
N672   N     0.50000   0.71598   0.25000   0.00000  Uiso   1.00
O673   O     0.43988   0.87291   0.25000   0.00000  Uiso   1.00
O674   O     0.56892   0.79159   0.47265   0.00000  Uiso   1.00
O675   O     0.43592   0.87098   0.47420   0.00000  Uiso   1.00
O676   O     0.51220   0.74734   0.02498   0.00000  Uiso   1.00
O677   O     0.37611   0.75312   0.27818   0.00000  Uiso   1.00
O678   O     0.62372   0.91279   0.21963   0.00000  Uiso   1.00
O679   O     0.62623   0.75017   0.27091   0.00000  Uiso   1.00
O680   O     0.37375   0.91587   0.22681   0.00000  Uiso   1.00
O681   O     0.56012   0.79375   0.25001   0.00000  Uiso   1.00
O682   O     0.56012   0.87291   0.25001   0.00000  Uiso   1.00
O683   O     0.43988   0.79375   0.25000   0.00000  Uiso   1.00
O684   O     0.50000   0.87293   0.18573   0.00000  Uiso   1.00
O685   O     0.50000   0.79374   0.31427   0.00000  Uiso   1.00
O686   O     0.50000   0.87293   0.31427   0.00000  Uiso   1.00
O687   O     0.50000   0.79374   0.18573   0.00000  Uiso   1.00
O688   O     0.49659   0.91697   0.02172   0.00000  Uiso   1.00
Br689  Br    0.81902   0.93646   0.11612   0.00000  Uiso   1.00
Br690  Br    0.91318   0.78456   0.37357   0.00000  Uiso   1.00
Br691  Br    0.75547   0.88154   0.37559   0.00000  Uiso   1.00
Br692  Br    0.86016   0.73192   0.12053   0.00000  Uiso   1.00
C693   C     0.75400   0.83361   0.25063   0.00000  Uiso   1.00
C694   C     0.97806   0.87333   0.23494   0.00000  Uiso   1.00
C695   C     0.97934   0.79134   0.25978   0.00000  Uiso   1.00
C696   C     0.68724   0.87505   0.23895   0.00000  Uiso   1.00
C697   C     0.83372   0.87510   0.04505   0.00000  Uiso   1.00
C698   C     0.86925   0.81254   0.45095   0.00000  Uiso   1.00
C699   C     0.80161   0.85075   0.45172   0.00000  Uiso   1.00
C700   C     0.84118   0.78979   0.04667   0.00000  Uiso   1.00
C701   C     0.83094   0.87568   0.09095   0.00000  Uiso   1.00
C702   C     0.86779   0.81194   0.40497   0.00000  Uiso   1.00
C703   C     0.80159   0.85272   0.40577   0.00000  Uiso   1.00
C704   C     0.91263   0.83303   0.24912   0.00000  Uiso   1.00
C705   C     0.84389   0.79068   0.09264   0.00000  Uiso   1.00
C706   C     0.83639   0.83336   0.11572   0.00000  Uiso   1.00
C707   C     0.83433   0.83270   0.38251   0.00000  Uiso   1.00
C708   C     0.83696   0.83206   0.02285   0.00000  Uiso   1.00
C709   C     0.83586   0.83147   0.47446   0.00000  Uiso   1.00
C710   C     0.95722   0.83240   0.24780   0.00000  Uiso   1.00
C711   C     0.70937   0.83410   0.25140   0.00000  Uiso   1.00
C712   C     0.86939   0.93353   0.01180   0.00000  Uiso   1.00
C713   C     0.93127   0.82624   0.48325   0.00000  Uiso   1.00
C714   C     0.74099   0.83577   0.48532   0.00000  Uiso   1.00
C715   C     0.83434   0.83342   0.16459   0.00000  Uiso   1.00
C716   C     0.80629   0.72893   0.01656   0.00000  Uiso   1.00
C717   C     0.71311   0.75480   0.32445   0.00000  Uiso   1.00
C718   C     0.95214   0.90905   0.17359   0.00000  Uiso   1.00
C719   C     0.96084   0.71957   0.23445   0.00000  Uiso   1.00
C720   C     0.70499   0.94800   0.26205   0.00000  Uiso   1.00
C721   C     0.83352   0.83319   0.33478   0.00000  Uiso   1.00
C722   C     0.80600   0.69200   0.22454   0.00000  Uiso   1.00
C723   C     0.86053   0.97467   0.27566   0.00000  Uiso   1.00
C724   C     0.86041   0.69104   0.27579   0.00000  Uiso   1.00
C725   C     0.80591   0.97566   0.22469   0.00000  Uiso   1.00
C726   C     0.68849   0.79300   0.26381   0.00000  Uiso   1.00
Cu727  Cu    0.83333   0.88022   0.25000   0.00000  Uiso   1.00
Cu728  Cu    0.83333   0.78645   0.25000   0.00000  Uiso   1.00
H729   H     0.78416   0.71118   0.20410   0.00000  Uiso   1.00
H730   H     0.96056   0.80841   0.49233   0.00000  Uiso   1.00
H731   H     0.75236   0.81482   0.01396   0.00000  Uiso   1.00
H732   H     0.73367   0.81238   0.45704   0.00000  Uiso   1.00
H733   H     0.71194   0.85306   0.49532   0.00000  Uiso   1.00
H734   H     0.78655   0.72923   0.04631   0.00000  Uiso   1.00
H735   H     0.80976   0.69178   0.00632   0.00000  Uiso   1.00
H736   H     0.79107   0.74812   0.48888   0.00000  Uiso   1.00
H737   H     0.73141   0.78556   0.33511   0.00000  Uiso   1.00
H738   H     0.72956   0.72262   0.33597   0.00000  Uiso   1.00
H739   H     0.68255   0.75539   0.34042   0.00000  Uiso   1.00
H740   H     0.88230   0.95548   0.29617   0.00000  Uiso   1.00
H741   H     0.93498   0.94046   0.16139   0.00000  Uiso   1.00
H742   H     0.93401   0.87754   0.16454   0.00000  Uiso   1.00
H743   H     0.98230   0.90828   0.15678   0.00000  Uiso   1.00
H744   H     0.94464   0.73519   0.20535   0.00000  Uiso   1.00
H745   H     0.94499   0.68658   0.24327   0.00000  Uiso   1.00
H746   H     0.99281   0.70985   0.22563   0.00000  Uiso   1.00
H747   H     0.72016   0.98103   0.25203   0.00000  Uiso   1.00
H748   H     0.72143   0.93405   0.29167   0.00000  Uiso   1.00
H749   H     0.67285   0.95730   0.27051   0.00000  Uiso   1.00
H750   H     0.88199   0.70948   0.29649   0.00000  Uiso   1.00
H751   H     0.78386   0.95725   0.20460   0.00000  Uiso   1.00
H752   H     0.88284   0.91329   0.48425   0.00000  Uiso   1.00
H753   H     0.89033   0.93285   0.04102   0.00000  Uiso   1.00
H754   H     0.86670   0.97061   0.00064   0.00000  Uiso   1.00
H755   H     0.92127   0.84668   0.01235   0.00000  Uiso   1.00
H756   H     0.93765   0.85017   0.45499   0.00000  Uiso   1.00
N757   N     0.83333   0.95069   0.25000   0.00000  Uiso   1.00
N758   N     0.83333   0.71598   0.25000   0.00000  Uiso   1.00
O759   O     0.77321   0.87291   0.25000   0.00000  Uiso   1.00
O760   O     0.90225   0.79159   0.47265   0.00000  Uiso   1.00
O761   O     0.76925   0.87098   0.47420   0.00000  Uiso   1.00
O762   O     0.84554   0.74734   0.02498   0.00000  Uiso   1.00
O763   O     0.70945   0.75312   0.27818   0.00000  Uiso   1.00
O764   O     0.95706   0.91279   0.21963   0.00000  Uiso   1.00
O765   O     0.95956   0.75017   0.27091   0.00000  Uiso   1.00
O766   O     0.70708   0.91587   0.22681   0.00000  Uiso   1.00
O767   O     0.89345   0.79375   0.25001   0.00000  Uiso   1.00
O768   O     0.89345   0.87291   0.25001   0.00000  Uiso   1.00
O769   O     0.77321   0.79375   0.25000   0.00000  Uiso   1.00
O770   O     0.83333   0.87293   0.18573   0.00000  Uiso   1.00
O771   O     0.83334   0.79374   0.31427   0.00000  Uiso   1.00
O772   O     0.83334   0.87293   0.31427   0.00000  Uiso   1.00
O773   O     0.83333   0.79374   0.18573   0.00000  Uiso   1.00
O774   O     0.82992   0.91697   0.02172   0.00000  Uiso   1.00
Br775  Br    0.15235   0.26980   0.61612   0.00000  Uiso   1.00
Br776  Br    0.24652   0.11790   0.87357   0.00000  Uiso   1.00
Br777  Br    0.08880   0.21487   0.87559   0.00000  Uiso   1.00
Br778  Br    0.19350   0.06525   0.62053   0.00000  Uiso   1.00
C779   C     0.08734   0.16694   0.75063   0.00000  Uiso   1.00
C780   C     0.31140   0.20666   0.73494   0.00000  Uiso   1.00
C781   C     0.31267   0.12468   0.75978   0.00000  Uiso   1.00
C782   C     0.02057   0.20839   0.73895   0.00000  Uiso   1.00
C783   C     0.16706   0.20843   0.54505   0.00000  Uiso   1.00
C784   C     0.20258   0.14587   0.95095   0.00000  Uiso   1.00
C785   C     0.13494   0.18408   0.95172   0.00000  Uiso   1.00
C786   C     0.17451   0.12313   0.54667   0.00000  Uiso   1.00
C787   C     0.16428   0.20902   0.59095   0.00000  Uiso   1.00
C788   C     0.20113   0.14528   0.90497   0.00000  Uiso   1.00
C789   C     0.13492   0.18605   0.90577   0.00000  Uiso   1.00
C790   C     0.24597   0.16637   0.74912   0.00000  Uiso   1.00
C791   C     0.17722   0.12401   0.59264   0.00000  Uiso   1.00
C792   C     0.16972   0.16669   0.61572   0.00000  Uiso   1.00
C793   C     0.16766   0.16604   0.88251   0.00000  Uiso   1.00
C794   C     0.17030   0.16539   0.52285   0.00000  Uiso   1.00
C795   C     0.16919   0.16481   0.97446   0.00000  Uiso   1.00
C796   C     0.29056   0.16574   0.74780   0.00000  Uiso   1.00
C797   C     0.04270   0.16743   0.75140   0.00000  Uiso   1.00
C798   C     0.20272   0.26686   0.51180   0.00000  Uiso   1.00
C799   C     0.26460   0.15958   0.98325   0.00000  Uiso   1.00
C800   C     0.07433   0.16910   0.98532   0.00000  Uiso   1.00
C801   C     0.16767   0.16675   0.66459   0.00000  Uiso   1.00
C802   C     0.13962   0.06226   0.51656   0.00000  Uiso   1.00
C803   C     0.04644   0.08813   0.82445   0.00000  Uiso   1.00
C804   C     0.28548   0.24238   0.67359   0.00000  Uiso   1.00
C805   C     0.29418   0.05291   0.73445   0.00000  Uiso   1.00
C806   C     0.03832   0.28134   0.76205   0.00000  Uiso   1.00
C807   C     0.16685   0.16652   0.83478   0.00000  Uiso   1.00
C808   C     0.13933   0.02533   0.72454   0.00000  Uiso   1.00
C809   C     0.19387   0.30800   0.77566   0.00000  Uiso   1.00
C810   C     0.19374   0.02437   0.77579   0.00000  Uiso   1.00
C811   C     0.13925   0.30899   0.72469   0.00000  Uiso   1.00
C812   C     0.02182   0.12633   0.76381   0.00000  Uiso   1.00
Cu813  Cu    0.16667   0.21355   0.75000   0.00000  Uiso   1.00
Cu814  Cu    0.16667   0.11978   0.75000   0.00000  Uiso   1.00
H815   H     0.11749   0.04451   0.70410   0.00000  Uiso   1.00
H816   H     0.29389   0.14174   0.99233   0.00000  Uiso   1.00
H817   H     0.08570   0.14815   0.51396   0.00000  Uiso   1.00
H818   H     0.06701   0.14571   0.95704   0.00000  Uiso   1.00
H819   H     0.04528   0.18639   0.99532   0.00000  Uiso   1.00
H820   H     0.11988   0.06257   0.54631   0.00000  Uiso   1.00
H821   H     0.14309   0.02511   0.50632   0.00000  Uiso   1.00
H822   H     0.12440   0.08145   0.98888   0.00000  Uiso   1.00
H823   H     0.06474   0.11889   0.83511   0.00000  Uiso   1.00
H824   H     0.06289   0.05595   0.83597   0.00000  Uiso   1.00
H825   H     0.01588   0.08873   0.84042   0.00000  Uiso   1.00
H826   H     0.21563   0.28882   0.79617   0.00000  Uiso   1.00
H827   H     0.26832   0.27379   0.66139   0.00000  Uiso   1.00
H828   H     0.26734   0.21087   0.66454   0.00000  Uiso   1.00
H829   H     0.31564   0.24161   0.65678   0.00000  Uiso   1.00
H830   H     0.27797   0.06853   0.70535   0.00000  Uiso   1.00
H831   H     0.27832   0.01992   0.74327   0.00000  Uiso   1.00
H832   H     0.32614   0.04318   0.72563   0.00000  Uiso   1.00
H833   H     0.05349   0.31436   0.75203   0.00000  Uiso   1.00
H834   H     0.05476   0.26739   0.79167   0.00000  Uiso   1.00
H835   H     0.00618   0.29064   0.77051   0.00000  Uiso   1.00
H836   H     0.21533   0.04281   0.79649   0.00000  Uiso   1.00
H837   H     0.11719   0.29058   0.70460   0.00000  Uiso   1.00
H838   H     0.21617   0.24663   0.98425   0.00000  Uiso   1.00
H839   H     0.22366   0.26618   0.54102   0.00000  Uiso   1.00
H840   H     0.20003   0.30394   0.50064   0.00000  Uiso   1.00
H841   H     0.25460   0.18002   0.51235   0.00000  Uiso   1.00
H842   H     0.27098   0.18350   0.95499   0.00000  Uiso   1.00
N843   N     0.16667   0.28402   0.75000   0.00000  Uiso   1.00
N844   N     0.16667   0.04931   0.75000   0.00000  Uiso   1.00
O845   O     0.10655   0.20625   0.75000   0.00000  Uiso   1.00
O846   O     0.23559   0.12493   0.97265   0.00000  Uiso   1.00
O847   O     0.10258   0.20432   0.97420   0.00000  Uiso   1.00
O848   O     0.17887   0.08068   0.52498   0.00000  Uiso   1.00
O849   O     0.04278   0.08645   0.77818   0.00000  Uiso   1.00
O850   O     0.29039   0.24612   0.71963   0.00000  Uiso   1.00
O851   O     0.29289   0.08350   0.77091   0.00000  Uiso   1.00
O852   O     0.04042   0.24920   0.72681   0.00000  Uiso   1.00
O853   O     0.22679   0.12709   0.75001   0.00000  Uiso   1.00
O854   O     0.22679   0.20625   0.75001   0.00000  Uiso   1.00
O855   O     0.10655   0.12709   0.75000   0.00000  Uiso   1.00
O856   O     0.16666   0.20626   0.68573   0.00000  Uiso   1.00
O857   O     0.16667   0.12707   0.81427   0.00000  Uiso   1.00
O858   O     0.16667   0.20626   0.81427   0.00000  Uiso   1.00
O859   O     0.16666   0.12707   0.68573   0.00000  Uiso   1.00
O860   O     0.16325   0.25030   0.52172   0.00000  Uiso   1.00
Br861  Br    0.48569   0.26980   0.61612   0.00000  Uiso   1.00
Br862  Br    0.57985   0.11790   0.87357   0.00000  Uiso   1.00
Br863  Br    0.42214   0.21487   0.87559   0.00000  Uiso   1.00
Br864  Br    0.52683   0.06525   0.62053   0.00000  Uiso   1.00
C865   C     0.42067   0.16694   0.75063   0.00000  Uiso   1.00
C866   C     0.64473   0.20666   0.73494   0.00000  Uiso   1.00
C867   C     0.64601   0.12468   0.75978   0.00000  Uiso   1.00
C868   C     0.35391   0.20839   0.73895   0.00000  Uiso   1.00
C869   C     0.50039   0.20843   0.54505   0.00000  Uiso   1.00
C870   C     0.53591   0.14587   0.95095   0.00000  Uiso   1.00
C871   C     0.46827   0.18408   0.95172   0.00000  Uiso   1.00
C872   C     0.50784   0.12313   0.54667   0.00000  Uiso   1.00
C873   C     0.49761   0.20902   0.59095   0.00000  Uiso   1.00
C874   C     0.53446   0.14528   0.90497   0.00000  Uiso   1.00
C875   C     0.46825   0.18605   0.90577   0.00000  Uiso   1.00
C876   C     0.57930   0.16637   0.74912   0.00000  Uiso   1.00
C877   C     0.51056   0.12401   0.59264   0.00000  Uiso   1.00
C878   C     0.50306   0.16669   0.61572   0.00000  Uiso   1.00
C879   C     0.50099   0.16604   0.88251   0.00000  Uiso   1.00
C880   C     0.50363   0.16539   0.52285   0.00000  Uiso   1.00
C881   C     0.50252   0.16481   0.97446   0.00000  Uiso   1.00
C882   C     0.62389   0.16574   0.74780   0.00000  Uiso   1.00
C883   C     0.37603   0.16743   0.75140   0.00000  Uiso   1.00
C884   C     0.53605   0.26686   0.51180   0.00000  Uiso   1.00
C885   C     0.59793   0.15958   0.98325   0.00000  Uiso   1.00
C886   C     0.40766   0.16910   0.98532   0.00000  Uiso   1.00
C887   C     0.50101   0.16675   0.66459   0.00000  Uiso   1.00
C888   C     0.47296   0.06226   0.51656   0.00000  Uiso   1.00
C889   C     0.37978   0.08813   0.82445   0.00000  Uiso   1.00
C890   C     0.61881   0.24238   0.67359   0.00000  Uiso   1.00
C891   C     0.62751   0.05291   0.73445   0.00000  Uiso   1.00
C892   C     0.37165   0.28134   0.76205   0.00000  Uiso   1.00
C893   C     0.50019   0.16652   0.83478   0.00000  Uiso   1.00
C894   C     0.47266   0.02533   0.72454   0.00000  Uiso   1.00
C895   C     0.52720   0.30800   0.77566   0.00000  Uiso   1.00
C896   C     0.52708   0.02437   0.77579   0.00000  Uiso   1.00
C897   C     0.47258   0.30899   0.72469   0.00000  Uiso   1.00
C898   C     0.35515   0.12633   0.76381   0.00000  Uiso   1.00
Cu899  Cu    0.50000   0.21355   0.75000   0.00000  Uiso   1.00
Cu900  Cu    0.50000   0.11978   0.75000   0.00000  Uiso   1.00
H901   H     0.45083   0.04451   0.70410   0.00000  Uiso   1.00
H902   H     0.62722   0.14174   0.99233   0.00000  Uiso   1.00
H903   H     0.41903   0.14815   0.51396   0.00000  Uiso   1.00
H904   H     0.40034   0.14571   0.95704   0.00000  Uiso   1.00
H905   H     0.37861   0.18639   0.99532   0.00000  Uiso   1.00
H906   H     0.45321   0.06257   0.54631   0.00000  Uiso   1.00
H907   H     0.47643   0.02511   0.50632   0.00000  Uiso   1.00
H908   H     0.45773   0.08145   0.98888   0.00000  Uiso   1.00
H909   H     0.39808   0.11889   0.83511   0.00000  Uiso   1.00
H910   H     0.39622   0.05595   0.83597   0.00000  Uiso   1.00
H911   H     0.34922   0.08873   0.84042   0.00000  Uiso   1.00
H912   H     0.54897   0.28882   0.79617   0.00000  Uiso   1.00
H913   H     0.60165   0.27379   0.66139   0.00000  Uiso   1.00
H914   H     0.60067   0.21087   0.66454   0.00000  Uiso   1.00
H915   H     0.64897   0.24161   0.65678   0.00000  Uiso   1.00
H916   H     0.61130   0.06853   0.70535   0.00000  Uiso   1.00
H917   H     0.61166   0.01992   0.74327   0.00000  Uiso   1.00
H918   H     0.65948   0.04318   0.72563   0.00000  Uiso   1.00
H919   H     0.38683   0.31436   0.75203   0.00000  Uiso   1.00
H920   H     0.38809   0.26739   0.79167   0.00000  Uiso   1.00
H921   H     0.33951   0.29064   0.77051   0.00000  Uiso   1.00
H922   H     0.54866   0.04281   0.79649   0.00000  Uiso   1.00
H923   H     0.45053   0.29058   0.70460   0.00000  Uiso   1.00
H924   H     0.54950   0.24663   0.98425   0.00000  Uiso   1.00
H925   H     0.55700   0.26618   0.54102   0.00000  Uiso   1.00
H926   H     0.53336   0.30394   0.50064   0.00000  Uiso   1.00
H927   H     0.58793   0.18002   0.51235   0.00000  Uiso   1.00
H928   H     0.60432   0.18350   0.95499   0.00000  Uiso   1.00
N929   N     0.50000   0.28402   0.75000   0.00000  Uiso   1.00
N930   N     0.50000   0.04931   0.75000   0.00000  Uiso   1.00
O931   O     0.43988   0.20625   0.75000   0.00000  Uiso   1.00
O932   O     0.56892   0.12493   0.97265   0.00000  Uiso   1.00
O933   O     0.43592   0.20432   0.97420   0.00000  Uiso   1.00
O934   O     0.51220   0.08068   0.52498   0.00000  Uiso   1.00
O935   O     0.37611   0.08645   0.77818   0.00000  Uiso   1.00
O936   O     0.62372   0.24612   0.71963   0.00000  Uiso   1.00
O937   O     0.62623   0.08350   0.77091   0.00000  Uiso   1.00
O938   O     0.37375   0.24920   0.72681   0.00000  Uiso   1.00
O939   O     0.56012   0.12709   0.75001   0.00000  Uiso   1.00
O940   O     0.56012   0.20625   0.75001   0.00000  Uiso   1.00
O941   O     0.43988   0.12709   0.75000   0.00000  Uiso   1.00
O942   O     0.50000   0.20626   0.68573   0.00000  Uiso   1.00
O943   O     0.50000   0.12707   0.81427   0.00000  Uiso   1.00
O944   O     0.50000   0.20626   0.81427   0.00000  Uiso   1.00
O945   O     0.50000   0.12707   0.68573   0.00000  Uiso   1.00
O946   O     0.49659   0.25030   0.52172   0.00000  Uiso   1.00
Br947  Br    0.81902   0.26980   0.61612   0.00000  Uiso   1.00
Br948  Br    0.91318   0.11790   0.87357   0.00000  Uiso   1.00
Br949  Br    0.75547   0.21487   0.87559   0.00000  Uiso   1.00
Br950  Br    0.86016   0.06525   0.62053   0.00000  Uiso   1.00
C951   C     0.75400   0.16694   0.75063   0.00000  Uiso   1.00
C952   C     0.97806   0.20666   0.73494   0.00000  Uiso   1.00
C953   C     0.97934   0.12468   0.75978   0.00000  Uiso   1.00
C954   C     0.68724   0.20839   0.73895   0.00000  Uiso   1.00
C955   C     0.83372   0.20843   0.54505   0.00000  Uiso   1.00
C956   C     0.86925   0.14587   0.95095   0.00000  Uiso   1.00
C957   C     0.80161   0.18408   0.95172   0.00000  Uiso   1.00
C958   C     0.84118   0.12313   0.54667   0.00000  Uiso   1.00
C959   C     0.83094   0.20902   0.59095   0.00000  Uiso   1.00
C960   C     0.86779   0.14528   0.90497   0.00000  Uiso   1.00
C961   C     0.80159   0.18605   0.90577   0.00000  Uiso   1.00
C962   C     0.91263   0.16637   0.74912   0.00000  Uiso   1.00
C963   C     0.84389   0.12401   0.59264   0.00000  Uiso   1.00
C964   C     0.83639   0.16669   0.61572   0.00000  Uiso   1.00
C965   C     0.83433   0.16604   0.88251   0.00000  Uiso   1.00
C966   C     0.83696   0.16539   0.52285   0.00000  Uiso   1.00
C967   C     0.83586   0.16481   0.97446   0.00000  Uiso   1.00
C968   C     0.95722   0.16574   0.74780   0.00000  Uiso   1.00
C969   C     0.70937   0.16743   0.75140   0.00000  Uiso   1.00
C970   C     0.86939   0.26686   0.51180   0.00000  Uiso   1.00
C971   C     0.93127   0.15958   0.98325   0.00000  Uiso   1.00
C972   C     0.74099   0.16910   0.98532   0.00000  Uiso   1.00
C973   C     0.83434   0.16675   0.66459   0.00000  Uiso   1.00
C974   C     0.80629   0.06226   0.51656   0.00000  Uiso   1.00
C975   C     0.71311   0.08813   0.82445   0.00000  Uiso   1.00
C976   C     0.95214   0.24238   0.67359   0.00000  Uiso   1.00
C977   C     0.96084   0.05291   0.73445   0.00000  Uiso   1.00
C978   C     0.70499   0.28134   0.76205   0.00000  Uiso   1.00
C979   C     0.83352   0.16652   0.83478   0.00000  Uiso   1.00
C980   C     0.80600   0.02533   0.72454   0.00000  Uiso   1.00
C981   C     0.86053   0.30800   0.77566   0.00000  Uiso   1.00
C982   C     0.86041   0.02437   0.77579   0.00000  Uiso   1.00
C983   C     0.80591   0.30899   0.72469   0.00000  Uiso   1.00
C984   C     0.68849   0.12633   0.76381   0.00000  Uiso   1.00
Cu985  Cu    0.83333   0.21355   0.75000   0.00000  Uiso   1.00
Cu986  Cu    0.83333   0.11978   0.75000   0.00000  Uiso   1.00
H987   H     0.78416   0.04451   0.70410   0.00000  Uiso   1.00
H988   H     0.96056   0.14174   0.99233   0.00000  Uiso   1.00
H989   H     0.75236   0.14815   0.51396   0.00000  Uiso   1.00
H990   H     0.73367   0.14571   0.95704   0.00000  Uiso   1.00
H991   H     0.71194   0.18639   0.99532   0.00000  Uiso   1.00
H992   H     0.78655   0.06257   0.54631   0.00000  Uiso   1.00
H993   H     0.80976   0.02511   0.50632   0.00000  Uiso   1.00
H994   H     0.79107   0.08145   0.98888   0.00000  Uiso   1.00
H995   H     0.73141   0.11889   0.83511   0.00000  Uiso   1.00
H996   H     0.72956   0.05595   0.83597   0.00000  Uiso   1.00
H997   H     0.68255   0.08873   0.84042   0.00000  Uiso   1.00
H998   H     0.88230   0.28882   0.79617   0.00000  Uiso   1.00
H999   H     0.93498   0.27379   0.66139   0.00000  Uiso   1.00
H1000  H     0.93401   0.21087   0.66454   0.00000  Uiso   1.00
H1001  H     0.98230   0.24161   0.65678   0.00000  Uiso   1.00
H1002  H     0.94464   0.06853   0.70535   0.00000  Uiso   1.00
H1003  H     0.94499   0.01992   0.74327   0.00000  Uiso   1.00
H1004  H     0.99281   0.04318   0.72563   0.00000  Uiso   1.00
H1005  H     0.72016   0.31436   0.75203   0.00000  Uiso   1.00
H1006  H     0.72143   0.26739   0.79167   0.00000  Uiso   1.00
H1007  H     0.67285   0.29064   0.77051   0.00000  Uiso   1.00
H1008  H     0.88199   0.04281   0.79649   0.00000  Uiso   1.00
H1009  H     0.78386   0.29058   0.70460   0.00000  Uiso   1.00
H1010  H     0.88284   0.24663   0.98425   0.00000  Uiso   1.00
H1011  H     0.89033   0.26618   0.54102   0.00000  Uiso   1.00
H1012  H     0.86670   0.30394   0.50064   0.00000  Uiso   1.00
H1013  H     0.92127   0.18002   0.51235   0.00000  Uiso   1.00
H1014  H     0.93765   0.18350   0.95499   0.00000  Uiso   1.00
N1015  N     0.83333   0.28402   0.75000   0.00000  Uiso   1.00
N1016  N     0.83333   0.04931   0.75000   0.00000  Uiso   1.00
O1017  O     0.77321   0.20625   0.75000   0.00000  Uiso   1.00
O1018  O     0.90225   0.12493   0.97265   0.00000  Uiso   1.00
O1019  O     0.76925   0.20432   0.97420   0.00000  Uiso   1.00
O1020  O     0.84554   0.08068   0.52498   0.00000  Uiso   1.00
O1021  O     0.70945   0.08645   0.77818   0.00000  Uiso   1.00
O1022  O     0.95706   0.24612   0.71963   0.00000  Uiso   1.00
O1023  O     0.95956   0.08350   0.77091   0.00000  Uiso   1.00
O1024  O     0.70708   0.24920   0.72681   0.00000  Uiso   1.00
O1025  O     0.89345   0.12709   0.75001   0.00000  Uiso   1.00
O1026  O     0.89345   0.20625   0.75001   0.00000  Uiso   1.00
O1027  O     0.77321   0.12709   0.75000   0.00000  Uiso   1.00
O1028  O     0.83333   0.20626   0.68573   0.00000  Uiso   1.00
O1029  O     0.83334   0.12707   0.81427   0.00000  Uiso   1.00
O1030  O     0.83334   0.20626   0.81427   0.00000  Uiso   1.00
O1031  O     0.83333   0.12707   0.68573   0.00000  Uiso   1.00
O1032  O     0.82992   0.25030   0.52172   0.00000  Uiso   1.00
Br1033 Br    0.15235   0.60313   0.61612   0.00000  Uiso   1.00
Br1034 Br    0.24652   0.45123   0.87357   0.00000  Uiso   1.00
Br1035 Br    0.08880   0.54820   0.87559   0.00000  Uiso   1.00
Br1036 Br    0.19350   0.39858   0.62053   0.00000  Uiso   1.00
C1037  C     0.08734   0.50027   0.75063   0.00000  Uiso   1.00
C1038  C     0.31140   0.53999   0.73494   0.00000  Uiso   1.00
C1039  C     0.31267   0.45801   0.75978   0.00000  Uiso   1.00
C1040  C     0.02057   0.54172   0.73895   0.00000  Uiso   1.00
C1041  C     0.16706   0.54176   0.54505   0.00000  Uiso   1.00
C1042  C     0.20258   0.47920   0.95095   0.00000  Uiso   1.00
C1043  C     0.13494   0.51742   0.95172   0.00000  Uiso   1.00
C1044  C     0.17451   0.45646   0.54667   0.00000  Uiso   1.00
C1045  C     0.16428   0.54235   0.59095   0.00000  Uiso   1.00
C1046  C     0.20113   0.47861   0.90497   0.00000  Uiso   1.00
C1047  C     0.13492   0.51938   0.90577   0.00000  Uiso   1.00
C1048  C     0.24597   0.49970   0.74912   0.00000  Uiso   1.00
C1049  C     0.17722   0.45735   0.59264   0.00000  Uiso   1.00
C1050  C     0.16972   0.50002   0.61572   0.00000  Uiso   1.00
C1051  C     0.16766   0.49937   0.88251   0.00000  Uiso   1.00
C1052  C     0.17030   0.49872   0.52285   0.00000  Uiso   1.00
C1053  C     0.16919   0.49814   0.97446   0.00000  Uiso   1.00
C1054  C     0.29056   0.49907   0.74780   0.00000  Uiso   1.00
C1055  C     0.04270   0.50077   0.75140   0.00000  Uiso   1.00
C1056  C     0.20272   0.60019   0.51180   0.00000  Uiso   1.00
C1057  C     0.26460   0.49291   0.98325   0.00000  Uiso   1.00
C1058  C     0.07433   0.50244   0.98532   0.00000  Uiso   1.00
C1059  C     0.16767   0.50009   0.66459   0.00000  Uiso   1.00
C1060  C     0.13962   0.39559   0.51656   0.00000  Uiso   1.00
C1061  C     0.04644   0.42147   0.82445   0.00000  Uiso   1.00
C1062  C     0.28548   0.57571   0.67359   0.00000  Uiso   1.00
C1063  C     0.29418   0.38624   0.73445   0.00000  Uiso   1.00
C1064  C     0.03832   0.61467   0.76205   0.00000  Uiso   1.00
C1065  C     0.16685   0.49985   0.83478   0.00000  Uiso   1.00
C1066  C     0.13933   0.35867   0.72454   0.00000  Uiso   1.00
C1067  C     0.19387   0.64134   0.77566   0.00000  Uiso   1.00
C1068  C     0.19374   0.35771   0.77579   0.00000  Uiso   1.00
C1069  C     0.13925   0.64232   0.72469   0.00000  Uiso   1.00
C1070  C     0.02182   0.45966   0.76381   0.00000  Uiso   1.00
Cu1071 Cu    0.16667   0.54689   0.75000   0.00000  Uiso   1.00
Cu1072 Cu    0.16667   0.45311   0.75000   0.00000  Uiso   1.00
H1073  H     0.11749   0.37784   0.70410   0.00000  Uiso   1.00
H1074  H     0.29389   0.47507   0.99233   0.00000  Uiso   1.00
H1075  H     0.08570   0.48148   0.51396   0.00000  Uiso   1.00
H1076  H     0.06701   0.47904   0.95704   0.00000  Uiso   1.00
H1077  H     0.04528   0.51973   0.99532   0.00000  Uiso   1.00
H1078  H     0.11988   0.39590   0.54631   0.00000  Uiso   1.00
H1079  H     0.14309   0.35845   0.50632   0.00000  Uiso   1.00
H1080  H     0.12440   0.41479   0.98888   0.00000  Uiso   1.00
H1081  H     0.06474   0.45222   0.83511   0.00000  Uiso   1.00
H1082  H     0.06289   0.38928   0.83597   0.00000  Uiso   1.00
H1083  H     0.01588   0.42206   0.84042   0.00000  Uiso   1.00
H1084  H     0.21563   0.62215   0.79617   0.00000  Uiso   1.00
H1085  H     0.26832   0.60713   0.66139   0.00000  Uiso   1.00
H1086  H     0.26734   0.54420   0.66454   0.00000  Uiso   1.00
H1087  H     0.31564   0.57494   0.65678   0.00000  Uiso   1.00
H1088  H     0.27797   0.40186   0.70535   0.00000  Uiso   1.00
H1089  H     0.27832   0.35325   0.74327   0.00000  Uiso   1.00
H1090  H     0.32614   0.37652   0.72563   0.00000  Uiso   1.00
H1091  H     0.05349   0.64770   0.75203   0.00000  Uiso   1.00
H1092  H     0.05476   0.60072   0.79167   0.00000  Uiso   1.00
H1093  H     0.00618   0.62397   0.77051   0.00000  Uiso   1.00
H1094  H     0.21533   0.37615   0.79649   0.00000  Uiso   1.00
H1095  H     0.11719   0.62391   0.70460   0.00000  Uiso   1.00
H1096  H     0.21617   0.57996   0.98425   0.00000  Uiso   1.00
H1097  H     0.22366   0.59951   0.54102   0.00000  Uiso   1.00
H1098  H     0.20003   0.63727   0.50064   0.00000  Uiso   1.00
H1099  H     0.25460   0.51335   0.51235   0.00000  Uiso   1.00
H1100  H     0.27098   0.51684   0.95499   0.00000  Uiso   1.00
N1101  N     0.16667   0.61736   0.75000   0.00000  Uiso   1.00
N1102  N     0.16667   0.38264   0.75000   0.00000  Uiso   1.00
O1103  O     0.10655   0.53958   0.75000   0.00000  Uiso   1.00
O1104  O     0.23559   0.45826   0.97265   0.00000  Uiso   1.00
O1105  O     0.10258   0.53765   0.97420   0.00000  Uiso   1.00
O1106  O     0.17887   0.41401   0.52498   0.00000  Uiso   1.00
O1107  O     0.04278   0.41978   0.77818   0.00000  Uiso   1.00
O1108  O     0.29039   0.57946   0.71963   0.00000  Uiso   1.00
O1109  O     0.29289   0.41683   0.77091   0.00000  Uiso   1.00
O1110  O     0.04042   0.58254   0.72681   0.00000  Uiso   1.00
O1111  O     0.22679   0.46042   0.75001   0.00000  Uiso   1.00
O1112  O     0.22679   0.53958   0.75001   0.00000  Uiso   1.00
O1113  O     0.10655   0.46042   0.75000   0.00000  Uiso   1.00
O1114  O     0.16666   0.53959   0.68573   0.00000  Uiso   1.00
O1115  O     0.16667   0.46041   0.81427   0.00000  Uiso   1.00
O1116  O     0.16667   0.53959   0.81427   0.00000  Uiso   1.00
O1117  O     0.16666   0.46041   0.68573   0.00000  Uiso   1.00
O1118  O     0.16325   0.58364   0.52172   0.00000  Uiso   1.00
Br1119 Br    0.48569   0.60313   0.61612   0.00000  Uiso   1.00
Br1120 Br    0.57985   0.45123   0.87357   0.00000  Uiso   1.00
Br1121 Br    0.42214   0.54820   0.87559   0.00000  Uiso   1.00
Br1122 Br    0.52683   0.39858   0.62053   0.00000  Uiso   1.00
C1123  C     0.42067   0.50027   0.75063   0.00000  Uiso   1.00
C1124  C     0.64473   0.53999   0.73494   0.00000  Uiso   1.00
C1125  C     0.64601   0.45801   0.75978   0.00000  Uiso   1.00
C1126  C     0.35391   0.54172   0.73895   0.00000  Uiso   1.00
C1127  C     0.50039   0.54176   0.54505   0.00000  Uiso   1.00
C1128  C     0.53591   0.47920   0.95095   0.00000  Uiso   1.00
C1129  C     0.46827   0.51742   0.95172   0.00000  Uiso   1.00
C1130  C     0.50784   0.45646   0.54667   0.00000  Uiso   1.00
C1131  C     0.49761   0.54235   0.59095   0.00000  Uiso   1.00
C1132  C     0.53446   0.47861   0.90497   0.00000  Uiso   1.00
C1133  C     0.46825   0.51938   0.90577   0.00000  Uiso   1.00
C1134  C     0.57930   0.49970   0.74912   0.00000  Uiso   1.00
C1135  C     0.51056   0.45735   0.59264   0.00000  Uiso   1.00
C1136  C     0.50306   0.50002   0.61572   0.00000  Uiso   1.00
C1137  C     0.50099   0.49937   0.88251   0.00000  Uiso   1.00
C1138  C     0.50363   0.49872   0.52285   0.00000  Uiso   1.00
C1139  C     0.50252   0.49814   0.97446   0.00000  Uiso   1.00
C1140  C     0.62389   0.49907   0.74780   0.00000  Uiso   1.00
C1141  C     0.37603   0.50077   0.75140   0.00000  Uiso   1.00
C1142  C     0.53605   0.60019   0.51180   0.00000  Uiso   1.00
C1143  C     0.59793   0.49291   0.98325   0.00000  Uiso   1.00
C1144  C     0.40766   0.50244   0.98532   0.00000  Uiso   1.00
C1145  C     0.50101   0.50009   0.66459   0.00000  Uiso   1.00
C1146  C     0.47296   0.39559   0.51656   0.00000  Uiso   1.00
C1147  C     0.37978   0.42147   0.82445   0.00000  Uiso   1.00
C1148  C     0.61881   0.57571   0.67359   0.00000  Uiso   1.00
C1149  C     0.62751   0.38624   0.73445   0.00000  Uiso   1.00
C1150  C     0.37165   0.61467   0.76205   0.00000  Uiso   1.00
C1151  C     0.50019   0.49985   0.83478   0.00000  Uiso   1.00
C1152  C     0.47266   0.35867   0.72454   0.00000  Uiso   1.00
C1153  C     0.52720   0.64134   0.77566   0.00000  Uiso   1.00
C1154  C     0.52708   0.35771   0.77579   0.00000  Uiso   1.00
C1155  C     0.47258   0.64232   0.72469   0.00000  Uiso   1.00
C1156  C     0.35515   0.45966   0.76381   0.00000  Uiso   1.00
Cu1157 Cu    0.50000   0.54689   0.75000   0.00000  Uiso   1.00
Cu1158 Cu    0.50000   0.45311   0.75000   0.00000  Uiso   1.00
H1159  H     0.45083   0.37784   0.70410   0.00000  Uiso   1.00
H1160  H     0.62722   0.47507   0.99233   0.00000  Uiso   1.00
H1161  H     0.41903   0.48148   0.51396   0.00000  Uiso   1.00
H1162  H     0.40034   0.47904   0.95704   0.00000  Uiso   1.00
H1163  H     0.37861   0.51973   0.99532   0.00000  Uiso   1.00
H1164  H     0.45321   0.39590   0.54631   0.00000  Uiso   1.00
H1165  H     0.47643   0.35845   0.50632   0.00000  Uiso   1.00
H1166  H     0.45773   0.41479   0.98888   0.00000  Uiso   1.00
H1167  H     0.39808   0.45222   0.83511   0.00000  Uiso   1.00
H1168  H     0.39622   0.38928   0.83597   0.00000  Uiso   1.00
H1169  H     0.34922   0.42206   0.84042   0.00000  Uiso   1.00
H1170  H     0.54897   0.62215   0.79617   0.00000  Uiso   1.00
H1171  H     0.60165   0.60713   0.66139   0.00000  Uiso   1.00
H1172  H     0.60067   0.54420   0.66454   0.00000  Uiso   1.00
H1173  H     0.64897   0.57494   0.65678   0.00000  Uiso   1.00
H1174  H     0.61130   0.40186   0.70535   0.00000  Uiso   1.00
H1175  H     0.61166   0.35325   0.74327   0.00000  Uiso   1.00
H1176  H     0.65948   0.37652   0.72563   0.00000  Uiso   1.00
H1177  H     0.38683   0.64770   0.75203   0.00000  Uiso   1.00
H1178  H     0.38809   0.60072   0.79167   0.00000  Uiso   1.00
H1179  H     0.33951   0.62397   0.77051   0.00000  Uiso   1.00
H1180  H     0.54866   0.37615   0.79649   0.00000  Uiso   1.00
H1181  H     0.45053   0.62391   0.70460   0.00000  Uiso   1.00
H1182  H     0.54950   0.57996   0.98425   0.00000  Uiso   1.00
H1183  H     0.55700   0.59951   0.54102   0.00000  Uiso   1.00
H1184  H     0.53336   0.63727   0.50064   0.00000  Uiso   1.00
H1185  H     0.58793   0.51335   0.51235   0.00000  Uiso   1.00
H1186  H     0.60432   0.51684   0.95499   0.00000  Uiso   1.00
N1187  N     0.50000   0.61736   0.75000   0.00000  Uiso   1.00
N1188  N     0.50000   0.38264   0.75000   0.00000  Uiso   1.00
O1189  O     0.43988   0.53958   0.75000   0.00000  Uiso   1.00
O1190  O     0.56892   0.45826   0.97265   0.00000  Uiso   1.00
O1191  O     0.43592   0.53765   0.97420   0.00000  Uiso   1.00
O1192  O     0.51220   0.41401   0.52498   0.00000  Uiso   1.00
O1193  O     0.37611   0.41978   0.77818   0.00000  Uiso   1.00
O1194  O     0.62372   0.57946   0.71963   0.00000  Uiso   1.00
O1195  O     0.62623   0.41683   0.77091   0.00000  Uiso   1.00
O1196  O     0.37375   0.58254   0.72681   0.00000  Uiso   1.00
O1197  O     0.56012   0.46042   0.75001   0.00000  Uiso   1.00
O1198  O     0.56012   0.53958   0.75001   0.00000  Uiso   1.00
O1199  O     0.43988   0.46042   0.75000   0.00000  Uiso   1.00
O1200  O     0.50000   0.53959   0.68573   0.00000  Uiso   1.00
O1201  O     0.50000   0.46041   0.81427   0.00000  Uiso   1.00
O1202  O     0.50000   0.53959   0.81427   0.00000  Uiso   1.00
O1203  O     0.50000   0.46041   0.68573   0.00000  Uiso   1.00
O1204  O     0.49659   0.58364   0.52172   0.00000  Uiso   1.00
Br1205 Br    0.81902   0.60313   0.61612   0.00000  Uiso   1.00
Br1206 Br    0.91318   0.45123   0.87357   0.00000  Uiso   1.00
Br1207 Br    0.75547   0.54820   0.87559   0.00000  Uiso   1.00
Br1208 Br    0.86016   0.39858   0.62053   0.00000  Uiso   1.00
C1209  C     0.75400   0.50027   0.75063   0.00000  Uiso   1.00
C1210  C     0.97806   0.53999   0.73494   0.00000  Uiso   1.00
C1211  C     0.97934   0.45801   0.75978   0.00000  Uiso   1.00
C1212  C     0.68724   0.54172   0.73895   0.00000  Uiso   1.00
C1213  C     0.83372   0.54176   0.54505   0.00000  Uiso   1.00
C1214  C     0.86925   0.47920   0.95095   0.00000  Uiso   1.00
C1215  C     0.80161   0.51742   0.95172   0.00000  Uiso   1.00
C1216  C     0.84118   0.45646   0.54667   0.00000  Uiso   1.00
C1217  C     0.83094   0.54235   0.59095   0.00000  Uiso   1.00
C1218  C     0.86779   0.47861   0.90497   0.00000  Uiso   1.00
C1219  C     0.80159   0.51938   0.90577   0.00000  Uiso   1.00
C1220  C     0.91263   0.49970   0.74912   0.00000  Uiso   1.00
C1221  C     0.84389   0.45735   0.59264   0.00000  Uiso   1.00
C1222  C     0.83639   0.50002   0.61572   0.00000  Uiso   1.00
C1223  C     0.83433   0.49937   0.88251   0.00000  Uiso   1.00
C1224  C     0.83696   0.49872   0.52285   0.00000  Uiso   1.00
C1225  C     0.83586   0.49814   0.97446   0.00000  Uiso   1.00
C1226  C     0.95722   0.49907   0.74780   0.00000  Uiso   1.00
C1227  C     0.70937   0.50077   0.75140   0.00000  Uiso   1.00
C1228  C     0.86939   0.60019   0.51180   0.00000  Uiso   1.00
C1229  C     0.93127   0.49291   0.98325   0.00000  Uiso   1.00
C1230  C     0.74099   0.50244   0.98532   0.00000  Uiso   1.00
C1231  C     0.83434   0.50009   0.66459   0.00000  Uiso   1.00
C1232  C     0.80629   0.39559   0.51656   0.00000  Uiso   1.00
C1233  C     0.71311   0.42147   0.82445   0.00000  Uiso   1.00
C1234  C     0.95214   0.57571   0.67359   0.00000  Uiso   1.00
C1235  C     0.96084   0.38624   0.73445   0.00000  Uiso   1.00
C1236  C     0.70499   0.61467   0.76205   0.00000  Uiso   1.00
C1237  C     0.83352   0.49985   0.83478   0.00000  Uiso   1.00
C1238  C     0.80600   0.35867   0.72454   0.00000  Uiso   1.00
C1239  C     0.86053   0.64134   0.77566   0.00000  Uiso   1.00
C1240  C     0.86041   0.35771   0.77579   0.00000  Uiso   1.00
C1241  C     0.80591   0.64232   0.72469   0.00000  Uiso   1.00
C1242  C     0.68849   0.45966   0.76381   0.00000  Uiso   1.00
Cu1243 Cu    0.83333   0.54689   0.75000   0.00000  Uiso   1.00
Cu1244 Cu    0.83333   0.45311   0.75000   0.00000  Uiso   1.00
H1245  H     0.78416   0.37784   0.70410   0.00000  Uiso   1.00
H1246  H     0.96056   0.47507   0.99233   0.00000  Uiso   1.00
H1247  H     0.75236   0.48148   0.51396   0.00000  Uiso   1.00
H1248  H     0.73367   0.47904   0.95704   0.00000  Uiso   1.00
H1249  H     0.71194   0.51973   0.99532   0.00000  Uiso   1.00
H1250  H     0.78655   0.39590   0.54631   0.00000  Uiso   1.00
H1251  H     0.80976   0.35845   0.50632   0.00000  Uiso   1.00
H1252  H     0.79107   0.41479   0.98888   0.00000  Uiso   1.00
H1253  H     0.73141   0.45222   0.83511   0.00000  Uiso   1.00
H1254  H     0.72956   0.38928   0.83597   0.00000  Uiso   1.00
H1255  H     0.68255   0.42206   0.84042   0.00000  Uiso   1.00
H1256  H     0.88230   0.62215   0.79617   0.00000  Uiso   1.00
H1257  H     0.93498   0.60713   0.66139   0.00000  Uiso   1.00
H1258  H     0.93401   0.54420   0.66454   0.00000  Uiso   1.00
H1259  H     0.98230   0.57494   0.65678   0.00000  Uiso   1.00
H1260  H     0.94464   0.40186   0.70535   0.00000  Uiso   1.00
H1261  H     0.94499   0.35325   0.74327   0.00000  Uiso   1.00
H1262  H     0.99281   0.37652   0.72563   0.00000  Uiso   1.00
H1263  H     0.72016   0.64770   0.75203   0.00000  Uiso   1.00
H1264  H     0.72143   0.60072   0.79167   0.00000  Uiso   1.00
H1265  H     0.67285   0.62397   0.77051   0.00000  Uiso   1.00
H1266  H     0.88199   0.37615   0.79649   0.00000  Uiso   1.00
H1267  H     0.78386   0.62391   0.70460   0.00000  Uiso   1.00
H1268  H     0.88284   0.57996   0.98425   0.00000  Uiso   1.00
H1269  H     0.89033   0.59951   0.54102   0.00000  Uiso   1.00
H1270  H     0.86670   0.63727   0.50064   0.00000  Uiso   1.00
H1271  H     0.92127   0.51335   0.51235   0.00000  Uiso   1.00
H1272  H     0.93765   0.51684   0.95499   0.00000  Uiso   1.00
N1273  N     0.83333   0.61736   0.75000   0.00000  Uiso   1.00
N1274  N     0.83333   0.38264   0.75000   0.00000  Uiso   1.00
O1275  O     0.77321   0.53958   0.75000   0.00000  Uiso   1.00
O1276  O     0.90225   0.45826   0.97265   0.00000  Uiso   1.00
O1277  O     0.76925   0.53765   0.97420   0.00000  Uiso   1.00
O1278  O     0.84554   0.41401   0.52498   0.00000  Uiso   1.00
O1279  O     0.70945   0.41978   0.77818   0.00000  Uiso   1.00
O1280  O     0.95706   0.57946   0.71963   0.00000  Uiso   1.00
O1281  O     0.95956   0.41683   0.77091   0.00000  Uiso   1.00
O1282  O     0.70708   0.58254   0.72681   0.00000  Uiso   1.00
O1283  O     0.89345   0.46042   0.75001   0.00000  Uiso   1.00
O1284  O     0.89345   0.53958   0.75001   0.00000  Uiso   1.00
O1285  O     0.77321   0.46042   0.75000   0.00000  Uiso   1.00
O1286  O     0.83333   0.53959   0.68573   0.00000  Uiso   1.00
O1287  O     0.83334   0.46041   0.81427   0.00000  Uiso   1.00
O1288  O     0.83334   0.53959   0.81427   0.00000  Uiso   1.00
O1289  O     0.83333   0.46041   0.68573   0.00000  Uiso   1.00
O1290  O     0.82992   0.58364   0.52172   0.00000  Uiso   1.00
Br1291 Br    0.15235   0.93646   0.61612   0.00000  Uiso   1.00
Br1292 Br    0.24652   0.78456   0.87357   0.00000  Uiso   1.00
Br1293 Br    0.08880   0.88154   0.87559   0.00000  Uiso   1.00
Br1294 Br    0.19350   0.73192   0.62053   0.00000  Uiso   1.00
C1295  C     0.08734   0.83361   0.75063   0.00000  Uiso   1.00
C1296  C     0.31140   0.87333   0.73494   0.00000  Uiso   1.00
C1297  C     0.31267   0.79134   0.75978   0.00000  Uiso   1.00
C1298  C     0.02057   0.87505   0.73895   0.00000  Uiso   1.00
C1299  C     0.16706   0.87510   0.54505   0.00000  Uiso   1.00
C1300  C     0.20258   0.81254   0.95095   0.00000  Uiso   1.00
C1301  C     0.13494   0.85075   0.95172   0.00000  Uiso   1.00
C1302  C     0.17451   0.78979   0.54667   0.00000  Uiso   1.00
C1303  C     0.16428   0.87568   0.59095   0.00000  Uiso   1.00
C1304  C     0.20113   0.81194   0.90497   0.00000  Uiso   1.00
C1305  C     0.13492   0.85272   0.90577   0.00000  Uiso   1.00
C1306  C     0.24597   0.83303   0.74912   0.00000  Uiso   1.00
C1307  C     0.17722   0.79068   0.59264   0.00000  Uiso   1.00
C1308  C     0.16972   0.83336   0.61572   0.00000  Uiso   1.00
C1309  C     0.16766   0.83270   0.88251   0.00000  Uiso   1.00
C1310  C     0.17030   0.83206   0.52285   0.00000  Uiso   1.00
C1311  C     0.16919   0.83147   0.97446   0.00000  Uiso   1.00
C1312  C     0.29056   0.83240   0.74780   0.00000  Uiso   1.00
C1313  C     0.04270   0.83410   0.75140   0.00000  Uiso   1.00
C1314  C     0.20272   0.93353   0.51180   0.00000  Uiso   1.00
C1315  C     0.26460   0.82624   0.98325   0.00000  Uiso   1.00
C1316  C     0.07433   0.83577   0.98532   0.00000  Uiso   1.00
C1317  C     0.16767   0.83342   0.66459   0.00000  Uiso   1.00
C1318  C     0.13962   0.72893   0.51656   0.00000  Uiso   1.00
C1319  C     0.04644   0.75480   0.82445   0.00000  Uiso   1.00
C1320  C     0.28548   0.90905   0.67359   0.00000  Uiso   1.00
C1321  C     0.29418   0.71957   0.73445   0.00000  Uiso   1.00
C1322  C     0.03832   0.94800   0.76205   0.00000  Uiso   1.00
C1323  C     0.16685   0.83319   0.83478   0.00000  Uiso   1.00
C1324  C     0.13933   0.69200   0.72454   0.00000  Uiso   1.00
C1325  C     0.19387   0.97467   0.77566   0.00000  Uiso   1.00
C1326  C     0.19374   0.69104   0.77579   0.00000  Uiso   1.00
C1327  C     0.13925   0.97566   0.72469   0.00000  Uiso   1.00
C1328  C     0.02182   0.79300   0.76381   0.00000  Uiso   1.00
Cu1329 Cu    0.16667   0.88022   0.75000   0.00000  Uiso   1.00
Cu1330 Cu    0.16667   0.78645   0.75000   0.00000  Uiso   1.00
H1331  H     0.11749   0.71118   0.70410   0.00000  Uiso   1.00
H1332  H     0.29389   0.80841   0.99233   0.00000  Uiso   1.00
H1333  H     0.08570   0.81482   0.51396   0.00000  Uiso   1.00
H1334  H     0.06701   0.81238   0.95704   0.00000  Uiso   1.00
H1335  H     0.04528   0.85306   0.99532   0.00000  Uiso   1.00
H1336  H     0.11988   0.72923   0.54631   0.00000  Uiso   1.00
H1337  H     0.14309   0.69178   0.50632   0.00000  Uiso   1.00
H1338  H     0.12440   0.74812   0.98888   0.00000  Uiso   1.00
H1339  H     0.06474   0.78556   0.83511   0.00000  Uiso   1.00
H1340  H     0.06289   0.72262   0.83597   0.00000  Uiso   1.00
H1341  H     0.01588   0.75539   0.84042   0.00000  Uiso   1.00
H1342  H     0.21563   0.95548   0.79617   0.00000  Uiso   1.00
H1343  H     0.26832   0.94046   0.66139   0.00000  Uiso   1.00
H1344  H     0.26734   0.87754   0.66454   0.00000  Uiso   1.00
H1345  H     0.31564   0.90828   0.65678   0.00000  Uiso   1.00
H1346  H     0.27797   0.73519   0.70535   0.00000  Uiso   1.00
H1347  H     0.27832   0.68658   0.74327   0.00000  Uiso   1.00
H1348  H     0.32614   0.70985   0.72563   0.00000  Uiso   1.00
H1349  H     0.05349   0.98103   0.75203   0.00000  Uiso   1.00
H1350  H     0.05476   0.93405   0.79167   0.00000  Uiso   1.00
H1351  H     0.00618   0.95730   0.77051   0.00000  Uiso   1.00
H1352  H     0.21533   0.70948   0.79649   0.00000  Uiso   1.00
H1353  H     0.11719   0.95725   0.70460   0.00000  Uiso   1.00
H1354  H     0.21617   0.91329   0.98425   0.00000  Uiso   1.00
H1355  H     0.22366   0.93285   0.54102   0.00000  Uiso   1.00
H1356  H     0.20003   0.97061   0.50064   0.00000  Uiso   1.00
H1357  H     0.25460   0.84668   0.51235   0.00000  Uiso   1.00
H1358  H     0.27098   0.85017   0.95499   0.00000  Uiso   1.00
N1359  N     0.16667   0.95069   0.75000   0.00000  Uiso   1.00
N1360  N     0.16667   0.71598   0.75000   0.00000  Uiso   1.00
O1361  O     0.10655   0.87291   0.75000   0.00000  Uiso   1.00
O1362  O     0.23559   0.79159   0.97265   0.00000  Uiso   1.00
O1363  O     0.10258   0.87098   0.97420   0.00000  Uiso   1.00
O1364  O     0.17887   0.74734   0.52498   0.00000  Uiso   1.00
O1365  O     0.04278   0.75312   0.77818   0.00000  Uiso   1.00
O1366  O     0.29039   0.91279   0.71963   0.00000  Uiso   1.00
O1367  O     0.29289   0.75017   0.77091   0.00000  Uiso   1.00
O1368  O     0.04042   0.91587   0.72681   0.00000  Uiso   1.00
O1369  O     0.22679   0.79375   0.75001   0.00000  Uiso   1.00
O1370  O     0.22679   0.87291   0.75001   0.00000  Uiso   1.00
O1371  O     0.10655   0.79375   0.75000   0.00000  Uiso   1.00
O1372  O     0.16666   0.87293   0.68573   0.00000  Uiso   1.00
O1373  O     0.16667   0.79374   0.81427   0.00000  Uiso   1.00
O1374  O     0.16667   0.87293   0.81427   0.00000  Uiso   1.00
O1375  O     0.16666   0.79374   0.68573   0.00000  Uiso   1.00
O1376  O     0.16325   0.91697   0.52172   0.00000  Uiso   1.00
Br1377 Br    0.48569   0.93646   0.61612   0.00000  Uiso   1.00
Br1378 Br    0.57985   0.78456   0.87357   0.00000  Uiso   1.00
Br1379 Br    0.42214   0.88154   0.87559   0.00000  Uiso   1.00
Br1380 Br    0.52683   0.73192   0.62053   0.00000  Uiso   1.00
C1381  C     0.42067   0.83361   0.75063   0.00000  Uiso   1.00
C1382  C     0.64473   0.87333   0.73494   0.00000  Uiso   1.00
C1383  C     0.64601   0.79134   0.75978   0.00000  Uiso   1.00
C1384  C     0.35391   0.87505   0.73895   0.00000  Uiso   1.00
C1385  C     0.50039   0.87510   0.54505   0.00000  Uiso   1.00
C1386  C     0.53591   0.81254   0.95095   0.00000  Uiso   1.00
C1387  C     0.46827   0.85075   0.95172   0.00000  Uiso   1.00
C1388  C     0.50784   0.78979   0.54667   0.00000  Uiso   1.00
C1389  C     0.49761   0.87568   0.59095   0.00000  Uiso   1.00
C1390  C     0.53446   0.81194   0.90497   0.00000  Uiso   1.00
C1391  C     0.46825   0.85272   0.90577   0.00000  Uiso   1.00
C1392  C     0.57930   0.83303   0.74912   0.00000  Uiso   1.00
C1393  C     0.51056   0.79068   0.59264   0.00000  Uiso   1.00
C1394  C     0.50306   0.83336   0.61572   0.00000  Uiso   1.00
C1395  C     0.50099   0.83270   0.88251   0.00000  Uiso   1.00
C1396  C     0.50363   0.83206   0.52285   0.00000  Uiso   1.00
C1397  C     0.50252   0.83147   0.97446   0.00000  Uiso   1.00
C1398  C     0.62389   0.83240   0.74780   0.00000  Uiso   1.00
C1399  C     0.37603   0.83410   0.75140   0.00000  Uiso   1.00
C1400  C     0.53605   0.93353   0.51180   0.00000  Uiso   1.00
C1401  C     0.59793   0.82624   0.98325   0.00000  Uiso   1.00
C1402  C     0.40766   0.83577   0.98532   0.00000  Uiso   1.00
C1403  C     0.50101   0.83342   0.66459   0.00000  Uiso   1.00
C1404  C     0.47296   0.72893   0.51656   0.00000  Uiso   1.00
C1405  C     0.37978   0.75480   0.82445   0.00000  Uiso   1.00
C1406  C     0.61881   0.90905   0.67359   0.00000  Uiso   1.00
C1407  C     0.62751   0.71957   0.73445   0.00000  Uiso   1.00
C1408  C     0.37165   0.94800   0.76205   0.00000  Uiso   1.00
C1409  C     0.50019   0.83319   0.83478   0.00000  Uiso   1.00
C1410  C     0.47266   0.69200   0.72454   0.00000  Uiso   1.00
C1411  C     0.52720   0.97467   0.77566   0.00000  Uiso   1.00
C1412  C     0.52708   0.69104   0.77579   0.00000  Uiso   1.00
C1413  C     0.47258   0.97566   0.72469   0.00000  Uiso   1.00
C1414  C     0.35515   0.79300   0.76381   0.00000  Uiso   1.00
Cu1415 Cu    0.50000   0.88022   0.75000   0.00000  Uiso   1.00
Cu1416 Cu    0.50000   0.78645   0.75000   0.00000  Uiso   1.00
H1417  H     0.45083   0.71118   0.70410   0.00000  Uiso   1.00
H1418  H     0.62722   0.80841   0.99233   0.00000  Uiso   1.00
H1419  H     0.41903   0.81482   0.51396   0.00000  Uiso   1.00
H1420  H     0.40034   0.81238   0.95704   0.00000  Uiso   1.00
H1421  H     0.37861   0.85306   0.99532   0.00000  Uiso   1.00
H1422  H     0.45321   0.72923   0.54631   0.00000  Uiso   1.00
H1423  H     0.47643   0.69178   0.50632   0.00000  Uiso   1.00
H1424  H     0.45773   0.74812   0.98888   0.00000  Uiso   1.00
H1425  H     0.39808   0.78556   0.83511   0.00000  Uiso   1.00
H1426  H     0.39622   0.72262   0.83597   0.00000  Uiso   1.00
H1427  H     0.34922   0.75539   0.84042   0.00000  Uiso   1.00
H1428  H     0.54897   0.95548   0.79617   0.00000  Uiso   1.00
H1429  H     0.60165   0.94046   0.66139   0.00000  Uiso   1.00
H1430  H     0.60067   0.87754   0.66454   0.00000  Uiso   1.00
H1431  H     0.64897   0.90828   0.65678   0.00000  Uiso   1.00
H1432  H     0.61130   0.73519   0.70535   0.00000  Uiso   1.00
H1433  H     0.61166   0.68658   0.74327   0.00000  Uiso   1.00
H1434  H     0.65948   0.70985   0.72563   0.00000  Uiso   1.00
H1435  H     0.38683   0.98103   0.75203   0.00000  Uiso   1.00
H1436  H     0.38809   0.93405   0.79167   0.00000  Uiso   1.00
H1437  H     0.33951   0.95730   0.77051   0.00000  Uiso   1.00
H1438  H     0.54866   0.70948   0.79649   0.00000  Uiso   1.00
H1439  H     0.45053   0.95725   0.70460   0.00000  Uiso   1.00
H1440  H     0.54950   0.91329   0.98425   0.00000  Uiso   1.00
H1441  H     0.55700   0.93285   0.54102   0.00000  Uiso   1.00
H1442  H     0.53336   0.97061   0.50064   0.00000  Uiso   1.00
H1443  H     0.58793   0.84668   0.51235   0.00000  Uiso   1.00
H1444  H     0.60432   0.85017   0.95499   0.00000  Uiso   1.00
N1445  N     0.50000   0.95069   0.75000   0.00000  Uiso   1.00
N1446  N     0.50000   0.71598   0.75000   0.00000  Uiso   1.00
O1447  O     0.43988   0.87291   0.75000   0.00000  Uiso   1.00
O1448  O     0.56892   0.79159   0.97265   0.00000  Uiso   1.00
O1449  O     0.43592   0.87098   0.97420   0.00000  Uiso   1.00
O1450  O     0.51220   0.74734   0.52498   0.00000  Uiso   1.00
O1451  O     0.37611   0.75312   0.77818   0.00000  Uiso   1.00
O1452  O     0.62372   0.91279   0.71963   0.00000  Uiso   1.00
O1453  O     0.62623   0.75017   0.77091   0.00000  Uiso   1.00
O1454  O     0.37375   0.91587   0.72681   0.00000  Uiso   1.00
O1455  O     0.56012   0.79375   0.75001   0.00000  Uiso   1.00
O1456  O     0.56012   0.87291   0.75001   0.00000  Uiso   1.00
O1457  O     0.43988   0.79375   0.75000   0.00000  Uiso   1.00
O1458  O     0.50000   0.87293   0.68573   0.00000  Uiso   1.00
O1459  O     0.50000   0.79374   0.81427   0.00000  Uiso   1.00
O1460  O     0.50000   0.87293   0.81427   0.00000  Uiso   1.00
O1461  O     0.50000   0.79374   0.68573   0.00000  Uiso   1.00
O1462  O     0.49659   0.91697   0.52172   0.00000  Uiso   1.00
Br1463 Br    0.81902   0.93646   0.61612   0.00000  Uiso   1.00
Br1464 Br    0.91318   0.78456   0.87357   0.00000  Uiso   1.00
Br1465 Br    0.75547   0.88154   0.87559   0.00000  Uiso   1.00
Br1466 Br    0.86016   0.73192   0.62053   0.00000  Uiso   1.00
C1467  C     0.75400   0.83361   0.75063   0.00000  Uiso   1.00
C1468  C     0.97806   0.87333   0.73494   0.00000  Uiso   1.00
C1469  C     0.97934   0.79134   0.75978   0.00000  Uiso   1.00
C1470  C     0.68724   0.87505   0.73895   0.00000  Uiso   1.00
C1471  C     0.83372   0.87510   0.54505   0.00000  Uiso   1.00
C1472  C     0.86925   0.81254   0.95095   0.00000  Uiso   1.00
C1473  C     0.80161   0.85075   0.95172   0.00000  Uiso   1.00
C1474  C     0.84118   0.78979   0.54667   0.00000  Uiso   1.00
C1475  C     0.83094   0.87568   0.59095   0.00000  Uiso   1.00
C1476  C     0.86779   0.81194   0.90497   0.00000  Uiso   1.00
C1477  C     0.80159   0.85272   0.90577   0.00000  Uiso   1.00
C1478  C     0.91263   0.83303   0.74912   0.00000  Uiso   1.00
C1479  C     0.84389   0.79068   0.59264   0.00000  Uiso   1.00
C1480  C     0.83639   0.83336   0.61572   0.00000  Uiso   1.00
C1481  C     0.83433   0.83270   0.88251   0.00000  Uiso   1.00
C1482  C     0.83696   0.83206   0.52285   0.00000  Uiso   1.00
C1483  C     0.83586   0.83147   0.97446   0.00000  Uiso   1.00
C1484  C     0.95722   0.83240   0.74780   0.00000  Uiso   1.00
C1485  C     0.70937   0.83410   0.75140   0.00000  Uiso   1.00
C1486  C     0.86939   0.93353   0.51180   0.00000  Uiso   1.00
C1487  C     0.93127   0.82624   0.98325   0.00000  Uiso   1.00
C1488  C     0.74099   0.83577   0.98532   0.00000  Uiso   1.00
C1489  C     0.83434   0.83342   0.66459   0.00000  Uiso   1.00
C1490  C     0.80629   0.72893   0.51656   0.00000  Uiso   1.00
C1491  C     0.71311   0.75480   0.82445   0.00000  Uiso   1.00
C1492  C     0.95214   0.90905   0.67359   0.00000  Uiso   1.00
C1493  C     0.96084   0.71957   0.73445   0.00000  Uiso   1.00
C1494  C     0.70499   0.94800   0.76205   0.00000  Uiso   1.00
C1495  C     0.83352   0.83319   0.83478   0.00000  Uiso   1.00
C1496  C     0.80600   0.69200   0.72454   0.00000  Uiso   1.00
C1497  C     0.86053   0.97467   0.77566   0.00000  Uiso   1.00
C1498  C     0.86041   0.69104   0.77579   0.00000  Uiso   1.00
C1499  C     0.80591   0.97566   0.72469   0.00000  Uiso   1.00
C1500  C     0.68849   0.79300   0.76381   0.00000  Uiso   1.00
Cu1501 Cu    0.83333   0.88022   0.75000   0.00000  Uiso   1.00
Cu1502 Cu    0.83333   0.78645   0.75000   0.00000  Uiso   1.00
H1503  H     0.78416   0.71118   0.70410   0.00000  Uiso   1.00
H1504  H     0.96056   0.80841   0.99233   0.00000  Uiso   1.00
H1505  H     0.75236   0.81482   0.51396   0.00000  Uiso   1.00
H1506  H     0.73367   0.81238   0.95704   0.00000  Uiso   1.00
H1507  H     0.71194   0.85306   0.99532   0.00000  Uiso   1.00
H1508  H     0.78655   0.72923   0.54631   0.00000  Uiso   1.00
H1509  H     0.80976   0.69178   0.50632   0.00000  Uiso   1.00
H1510  H     0.79107   0.74812   0.98888   0.00000  Uiso   1.00
H1511  H     0.73141   0.78556   0.83511   0.00000  Uiso   1.00
H1512  H     0.72956   0.72262   0.83597   0.00000  Uiso   1.00
H1513  H     0.68255   0.75539   0.84042   0.00000  Uiso   1.00
H1514  H     0.88230   0.95548   0.79617   0.00000  Uiso   1.00
H1515  H     0.93498   0.94046   0.66139   0.00000  Uiso   1.00
H1516  H     0.93401   0.87754   0.66454   0.00000  Uiso   1.00
H1517  H     0.98230   0.90828   0.65678   0.00000  Uiso   1.00
H1518  H     0.94464   0.73519   0.70535   0.00000  Uiso   1.00
H1519  H     0.94499   0.68658   0.74327   0.00000  Uiso   1.00
H1520  H     0.99281   0.70985   0.72563   0.00000  Uiso   1.00
H1521  H     0.72016   0.98103   0.75203   0.00000  Uiso   1.00
H1522  H     0.72143   0.93405   0.79167   0.00000  Uiso   1.00
H1523  H     0.67285   0.95730   0.77051   0.00000  Uiso   1.00
H1524  H     0.88199   0.70948   0.79649   0.00000  Uiso   1.00
H1525  H     0.78386   0.95725   0.70460   0.00000  Uiso   1.00
H1526  H     0.88284   0.91329   0.98425   0.00000  Uiso   1.00
H1527  H     0.89033   0.93285   0.54102   0.00000  Uiso   1.00
H1528  H     0.86670   0.97061   0.50064   0.00000  Uiso   1.00
H1529  H     0.92127   0.84668   0.51235   0.00000  Uiso   1.00
H1530  H     0.93765   0.85017   0.95499   0.00000  Uiso   1.00
N1531  N     0.83333   0.95069   0.75000   0.00000  Uiso   1.00
N1532  N     0.83333   0.71598   0.75000   0.00000  Uiso   1.00
O1533  O     0.77321   0.87291   0.75000   0.00000  Uiso   1.00
O1534  O     0.90225   0.79159   0.97265   0.00000  Uiso   1.00
O1535  O     0.76925   0.87098   0.97420   0.00000  Uiso   1.00
O1536  O     0.84554   0.74734   0.52498   0.00000  Uiso   1.00
O1537  O     0.70945   0.75312   0.77818   0.00000  Uiso   1.00
O1538  O     0.95706   0.91279   0.71963   0.00000  Uiso   1.00
O1539  O     0.95956   0.75017   0.77091   0.00000  Uiso   1.00
O1540  O     0.70708   0.91587   0.72681   0.00000  Uiso   1.00
O1541  O     0.89345   0.79375   0.75001   0.00000  Uiso   1.00
O1542  O     0.89345   0.87291   0.75001   0.00000  Uiso   1.00
O1543  O     0.77321   0.79375   0.75000   0.00000  Uiso   1.00
O1544  O     0.83333   0.87293   0.68573   0.00000  Uiso   1.00
O1545  O     0.83334   0.79374   0.81427   0.00000  Uiso   1.00
O1546  O     0.83334   0.87293   0.81427   0.00000  Uiso   1.00
O1547  O     0.83333   0.79374   0.68573   0.00000  Uiso   1.00
O1548  O     0.82992   0.91697   0.52172   0.00000  Uiso   1.00
loop_
_geom_bond_atom_site_label_1
_geom_bond_atom_site_label_2
_geom_bond_distance
_geom_bond_site_symmetry_2
_ccdc_geom_bond_type
Br1    C13     1.931   .     S
Br2    C14     1.929   .     S
Br3    C15     1.928   .     S
Br4    C17     1.936   .     S
C5     O81     1.290   .     A
C5     C23     1.457   .     S
C5     O71     1.287   .     A
C6     C22     1.409   .     A
C6     O76     1.385   .     S
C6     C94     1.393   .     S
C7     O77     1.385   .     S
C7     C22     1.411   .     A
C7     C124    1.392   .     S
C8     C23     1.412   .     A
C8     O78     1.385   .     S
C8     C178    1.393   1_455 S
C9     C13     1.397   .     A
C9     O86     1.386   .     S
C9     C20     1.404   .     A
C10    C21     1.412   .     A
C10    C14     1.397   .     A
C10    O72     1.385   .     S
C11    C15     1.396   .     A
C11    C21     1.413   .     A
C11    O73     1.385   .     S
C12    O74     1.385   .     S
C12    C17     1.398   .     A
C12    C20     1.404   .     A
C13    C18     1.424   .     A
C14    C19     1.405   .     A
C15    C19     1.404   .     A
C16    O80     1.290   .     A
C16    C22     1.456   .     S
C16    O79     1.287   .     A
C17    C18     1.425   .     A
C18    C27     1.486   .     S
C19    C33     1.449   .     S
C20    C795    1.470   1_554 S
C21    C794    1.470   .     S
C23    C38     1.410   .     A
C24    H66     1.108   .     S
C24    H65     1.115   .     S
C24    O86     1.411   .     S
C24    H838    1.109   1_554 S
C25    H68     1.115   .     S
C25    O72     1.410   .     S
C25    H42     1.109   .     S
C25    H841    1.110   .     S
C26    O73     1.410   .     S
C26    H44     1.115   .     S
C26    H45     1.109   .     S
C26    H817    1.110   .     S
C27    O85     1.296   .     A
C27    O82     1.297   .     A
C28    H47     1.108   .     S
C28    O74     1.411   .     S
C28    H46     1.115   .     S
C28    H822    1.110   1_554 S
C29    H49     1.112   .     S
C29    H50     1.109   .     S
C29    H51     1.113   .     S
C29    O75     1.410   .     S
C30    H54     1.114   .     S
C30    H53     1.109   .     S
C30    O76     1.410   .     S
C30    H55     1.113   .     S
C31    H58     1.112   .     S
C31    H56     1.113   .     S
C31    O77     1.413   .     S
C31    H57     1.109   .     S
C32    H61     1.112   .     S
C32    H60     1.112   .     S
C32    O78     1.413   .     S
C32    H59     1.109   .     S
C33    O83     1.286   .     A
C33    O84     1.287   .     A
C34    N70     1.366   .     A
C34    H41     1.082   .     S
C34    C553    1.413   1_545 S
C35    N69     1.366   .     A
C35    H52     1.082   .     S
C35    C294    1.413   .     S
C36    H62     1.081   .     S
C36    N70     1.366   .     A
C36    C551    1.413   1_545 S
C37    N69     1.365   .     A
C37    H63     1.081   .     S
C37    C292    1.413   .     S
C38    O75     1.385   .     S
C38    C179    1.392   1_455 S
Cu39   Cu40    2.667   .     S
Cu39   N69     2.004   .     S
Cu39   O82     1.963   .     S
Cu39   O84     1.961   .     S
Cu39   O80     1.971   .     S
Cu39   O71     1.975   .     S
Cu40   N70     2.004   .     S
Cu40   O83     1.963   .     S
Cu40   O85     1.961   .     S
Cu40   O79     1.975   .     S
Cu40   O81     1.971   .     S
H43    C800    1.110   1_554 S
H48    C802    1.110   .     S
H64    C798    1.109   .     S
H67    C799    1.110   1_554 S
Br87   C99     1.931   .     S
Br88   C100    1.929   .     S
Br89   C101    1.928   .     S
Br90   C103    1.936   .     S
C91    O167    1.290   .     A
C91    C109    1.457   .     S
C91    O157    1.287   .     A
C92    C108    1.409   .     A
C92    O162    1.385   .     S
C92    C180    1.393   .     S
C93    O163    1.385   .     S
C93    C108    1.411   .     A
C93    C210    1.392   .     S
C94    C109    1.412   .     A
C94    O164    1.385   .     S
C95    C99     1.397   .     A
C95    O172    1.386   .     S
C95    C106    1.404   .     A
C96    C107    1.412   .     A
C96    C100    1.397   .     A
C96    O158    1.385   .     S
C97    C101    1.396   .     A
C97    C107    1.413   .     A
C97    O159    1.385   .     S
C98    O160    1.385   .     S
C98    C103    1.398   .     A
C98    C106    1.404   .     A
C99    C104    1.424   .     A
C100   C105    1.405   .     A
C101   C105    1.404   .     A
C102   O166    1.290   .     A
C102   C108    1.456   .     S
C102   O165    1.287   .     A
C103   C104    1.425   .     A
C104   C113    1.486   .     S
C105   C119    1.449   .     S
C106   C881    1.470   1_554 S
C107   C880    1.470   .     S
C109   C124    1.410   .     A
C110   H152    1.108   .     S
C110   H151    1.115   .     S
C110   O172    1.411   .     S
C110   H924    1.109   1_554 S
C111   H154    1.115   .     S
C111   O158    1.410   .     S
C111   H128    1.109   .     S
C111   H927    1.110   .     S
C112   O159    1.410   .     S
C112   H130    1.115   .     S
C112   H131    1.109   .     S
C112   H903    1.110   .     S
C113   O171    1.296   .     A
C113   O168    1.297   .     A
C114   H133    1.108   .     S
C114   O160    1.411   .     S
C114   H132    1.115   .     S
C114   H908    1.110   1_554 S
C115   H135    1.112   .     S
C115   H136    1.109   .     S
C115   H137    1.113   .     S
C115   O161    1.410   .     S
C116   H140    1.114   .     S
C116   H139    1.109   .     S
C116   O162    1.410   .     S
C116   H141    1.113   .     S
C117   H144    1.112   .     S
C117   H142    1.113   .     S
C117   O163    1.413   .     S
C117   H143    1.109   .     S
C118   H147    1.112   .     S
C118   H146    1.112   .     S
C118   O164    1.413   .     S
C118   H145    1.109   .     S
C119   O169    1.286   .     A
C119   O170    1.287   .     A
C120   N156    1.366   .     A
C120   H127    1.082   .     S
C120   C639    1.413   1_545 S
C121   N155    1.366   .     A
C121   H138    1.082   .     S
C121   C380    1.413   .     S
C122   H148    1.081   .     S
C122   N156    1.366   .     A
C122   C637    1.413   1_545 S
C123   N155    1.365   .     A
C123   H149    1.081   .     S
C123   C378    1.413   .     S
C124   O161    1.385   .     S
Cu125  Cu126   2.667   .     S
Cu125  N155    2.004   .     S
Cu125  O168    1.963   .     S
Cu125  O170    1.961   .     S
Cu125  O166    1.971   .     S
Cu125  O157    1.975   .     S
Cu126  N156    2.004   .     S
Cu126  O169    1.963   .     S
Cu126  O171    1.961   .     S
Cu126  O165    1.975   .     S
Cu126  O167    1.971   .     S
H129   C886    1.110   1_554 S
H134   C888    1.110   .     S
H150   C884    1.109   .     S
H153   C885    1.110   1_554 S
Br173  C185    1.931   .     S
Br174  C186    1.929   .     S
Br175  C187    1.928   .     S
Br176  C189    1.936   .     S
C177   O253    1.290   .     A
C177   C195    1.457   .     S
C177   O243    1.287   .     A
C178   C194    1.409   .     A
C178   O248    1.385   .     S
C178   C8      1.393   1_655 S
C179   O249    1.385   .     S
C179   C194    1.411   .     A
C179   C38     1.392   1_655 S
C180   C195    1.412   .     A
C180   O250    1.385   .     S
C181   C185    1.397   .     A
C181   O258    1.386   .     S
C181   C192    1.404   .     A
C182   C193    1.412   .     A
C182   C186    1.397   .     A
C182   O244    1.385   .     S
C183   C187    1.396   .     A
C183   C193    1.413   .     A
C183   O245    1.385   .     S
C184   O246    1.385   .     S
C184   C189    1.398   .     A
C184   C192    1.404   .     A
C185   C190    1.424   .     A
C186   C191    1.405   .     A
C187   C191    1.404   .     A
C188   O252    1.290   .     A
C188   C194    1.456   .     S
C188   O251    1.287   .     A
C189   C190    1.425   .     A
C190   C199    1.486   .     S
C191   C205    1.449   .     S
C192   C967    1.470   1_554 S
C193   C966    1.470   .     S
C195   C210    1.410   .     A
C196   H238    1.108   .     S
C196   H237    1.115   .     S
C196   O258    1.411   .     S
C196   H1010   1.109   1_554 S
C197   H240    1.115   .     S
C197   O244    1.410   .     S
C197   H214    1.109   .     S
C197   H1013   1.110   .     S
C198   O245    1.410   .     S
C198   H216    1.115   .     S
C198   H217    1.109   .     S
C198   H989    1.110   .     S
C199   O257    1.296   .     A
C199   O254    1.297   .     A
C200   H219    1.108   .     S
C200   O246    1.411   .     S
C200   H218    1.115   .     S
C200   H994    1.110   1_554 S
C201   H221    1.112   .     S
C201   H222    1.109   .     S
C201   H223    1.113   .     S
C201   O247    1.410   .     S
C202   H226    1.114   .     S
C202   H225    1.109   .     S
C202   O248    1.410   .     S
C202   H227    1.113   .     S
C203   H230    1.112   .     S
C203   H228    1.113   .     S
C203   O249    1.413   .     S
C203   H229    1.109   .     S
C204   H233    1.112   .     S
C204   H232    1.112   .     S
C204   O250    1.413   .     S
C204   H231    1.109   .     S
C205   O255    1.286   .     A
C205   O256    1.287   .     A
C206   N242    1.366   .     A
C206   H213    1.082   .     S
C206   C725    1.413   1_545 S
C207   N241    1.366   .     A
C207   H224    1.082   .     S
C207   C466    1.413   .     S
C208   H234    1.081   .     S
C208   N242    1.366   .     A
C208   C723    1.413   1_545 S
C209   N241    1.365   .     A
C209   H235    1.081   .     S
C209   C464    1.413   .     S
C210   O247    1.385   .     S
Cu211  Cu212   2.667   .     S
Cu211  N241    2.004   .     S
Cu211  O254    1.963   .     S
Cu211  O256    1.961   .     S
Cu211  O252    1.971   .     S
Cu211  O243    1.975   .     S
Cu212  N242    2.004   .     S
Cu212  O255    1.963   .     S
Cu212  O257    1.961   .     S
Cu212  O251    1.975   .     S
Cu212  O253    1.971   .     S
H215   C972    1.110   1_554 S
H220   C974    1.110   .     S
H236   C970    1.109   .     S
H239   C971    1.110   1_554 S
Br259  C271    1.931   .     S
Br260  C272    1.929   .     S
Br261  C273    1.928   .     S
Br262  C275    1.936   .     S
C263   O339    1.290   .     A
C263   C281    1.457   .     S
C263   O329    1.287   .     A
C264   C280    1.409   .     A
C264   O334    1.385   .     S
C264   C352    1.393   .     S
C265   O335    1.385   .     S
C265   C280    1.411   .     A
C265   C382    1.392   .     S
C266   C281    1.412   .     A
C266   O336    1.385   .     S
C266   C436    1.393   1_455 S
C267   C271    1.397   .     A
C267   O344    1.386   .     S
C267   C278    1.404   .     A
C268   C279    1.412   .     A
C268   C272    1.397   .     A
C268   O330    1.385   .     S
C269   C273    1.396   .     A
C269   C279    1.413   .     A
C269   O331    1.385   .     S
C270   O332    1.385   .     S
C270   C275    1.398   .     A
C270   C278    1.404   .     A
C271   C276    1.424   .     A
C272   C277    1.405   .     A
C273   C277    1.404   .     A
C274   O338    1.290   .     A
C274   C280    1.456   .     S
C274   O337    1.287   .     A
C275   C276    1.425   .     A
C276   C285    1.486   .     S
C277   C291    1.449   .     S
C278   C1053   1.470   1_554 S
C279   C1052   1.470   .     S
C281   C296    1.410   .     A
C282   H324    1.108   .     S
C282   H323    1.115   .     S
C282   O344    1.411   .     S
C282   H1096   1.109   1_554 S
C283   H326    1.115   .     S
C283   O330    1.410   .     S
C283   H300    1.109   .     S
C283   H1099   1.110   .     S
C284   O331    1.410   .     S
C284   H302    1.115   .     S
C284   H303    1.109   .     S
C284   H1075   1.110   .     S
C285   O343    1.296   .     A
C285   O340    1.297   .     A
C286   H305    1.108   .     S
C286   O332    1.411   .     S
C286   H304    1.115   .     S
C286   H1080   1.110   1_554 S
C287   H307    1.112   .     S
C287   H308    1.109   .     S
C287   H309    1.113   .     S
C287   O333    1.410   .     S
C288   H312    1.114   .     S
C288   H311    1.109   .     S
C288   O334    1.410   .     S
C288   H313    1.113   .     S
C289   H316    1.112   .     S
C289   H314    1.113   .     S
C289   O335    1.413   .     S
C289   H315    1.109   .     S
C290   H319    1.112   .     S
C290   H318    1.112   .     S
C290   O336    1.413   .     S
C290   H317    1.109   .     S
C291   O341    1.286   .     A
C291   O342    1.287   .     A
C292   N328    1.366   .     A
C292   H299    1.082   .     S
C293   N327    1.366   .     A
C293   H310    1.082   .     S
C293   C552    1.413   .     S
C294   H320    1.081   .     S
C294   N328    1.366   .     A
C295   N327    1.365   .     A
C295   H321    1.081   .     S
C295   C550    1.413   .     S
C296   O333    1.385   .     S
C296   C437    1.392   1_455 S
Cu297  Cu298   2.667   .     S
Cu297  N327    2.004   .     S
Cu297  O340    1.963   .     S
Cu297  O342    1.961   .     S
Cu297  O338    1.971   .     S
Cu297  O329    1.975   .     S
Cu298  N328    2.004   .     S
Cu298  O341    1.963   .     S
Cu298  O343    1.961   .     S
Cu298  O337    1.975   .     S
Cu298  O339    1.971   .     S
H301   C1058   1.110   1_554 S
H306   C1060   1.110   .     S
H322   C1056   1.109   .     S
H325   C1057   1.110   1_554 S
Br345  C357    1.931   .     S
Br346  C358    1.929   .     S
Br347  C359    1.928   .     S
Br348  C361    1.936   .     S
C349   O425    1.290   .     A
C349   C367    1.457   .     S
C349   O415    1.287   .     A
C350   C366    1.409   .     A
C350   O420    1.385   .     S
C350   C438    1.393   .     S
C351   O421    1.385   .     S
C351   C366    1.411   .     A
C351   C468    1.392   .     S
C352   C367    1.412   .     A
C352   O422    1.385   .     S
C353   C357    1.397   .     A
C353   O430    1.386   .     S
C353   C364    1.404   .     A
C354   C365    1.412   .     A
C354   C358    1.397   .     A
C354   O416    1.385   .     S
C355   C359    1.396   .     A
C355   C365    1.413   .     A
C355   O417    1.385   .     S
C356   O418    1.385   .     S
C356   C361    1.398   .     A
C356   C364    1.404   .     A
C357   C362    1.424   .     A
C358   C363    1.405   .     A
C359   C363    1.404   .     A
C360   O424    1.290   .     A
C360   C366    1.456   .     S
C360   O423    1.287   .     A
C361   C362    1.425   .     A
C362   C371    1.486   .     S
C363   C377    1.449   .     S
C364   C1139   1.470   1_554 S
C365   C1138   1.470   .     S
C367   C382    1.410   .     A
C368   H410    1.108   .     S
C368   H409    1.115   .     S
C368   O430    1.411   .     S
C368   H1182   1.109   1_554 S
C369   H412    1.115   .     S
C369   O416    1.410   .     S
C369   H386    1.109   .     S
C369   H1185   1.110   .     S
C370   O417    1.410   .     S
C370   H388    1.115   .     S
C370   H389    1.109   .     S
C370   H1161   1.110   .     S
C371   O429    1.296   .     A
C371   O426    1.297   .     A
C372   H391    1.108   .     S
C372   O418    1.411   .     S
C372   H390    1.115   .     S
C372   H1166   1.110   1_554 S
C373   H393    1.112   .     S
C373   H394    1.109   .     S
C373   H395    1.113   .     S
C373   O419    1.410   .     S
C374   H398    1.114   .     S
C374   H397    1.109   .     S
C374   O420    1.410   .     S
C374   H399    1.113   .     S
C375   H402    1.112   .     S
C375   H400    1.113   .     S
C375   O421    1.413   .     S
C375   H401    1.109   .     S
C376   H405    1.112   .     S
C376   H404    1.112   .     S
C376   O422    1.413   .     S
C376   H403    1.109   .     S
C377   O427    1.286   .     A
C377   O428    1.287   .     A
C378   N414    1.366   .     A
C378   H385    1.082   .     S
C379   N413    1.366   .     A
C379   H396    1.082   .     S
C379   C638    1.413   .     S
C380   H406    1.081   .     S
C380   N414    1.366   .     A
C381   N413    1.365   .     A
C381   H407    1.081   .     S
C381   C636    1.413   .     S
C382   O419    1.385   .     S
Cu383  Cu384   2.667   .     S
Cu383  N413    2.004   .     S
Cu383  O426    1.963   .     S
Cu383  O428    1.961   .     S
Cu383  O424    1.971   .     S
Cu383  O415    1.975   .     S
Cu384  N414    2.004   .     S
Cu384  O427    1.963   .     S
Cu384  O429    1.961   .     S
Cu384  O423    1.975   .     S
Cu384  O425    1.971   .     S
H387   C1144   1.110   1_554 S
H392   C1146   1.110   .     S
H408   C1142   1.109   .     S
H411   C1143   1.110   1_554 S
Br431  C443    1.931   .     S
Br432  C444    1.929   .     S
Br433  C445    1.928   .     S
Br434  C447    1.936   .     S
C435   O511    1.290   .     A
C435   C453    1.457   .     S
C435   O501    1.287   .     A
C436   C452    1.409   .     A
C436   O506    1.385   .     S
C436   C266    1.393   1_655 S
C437   O507    1.385   .     S
C437   C452    1.411   .     A
C437   C296    1.392   1_655 S
C438   C453    1.412   .     A
C438   O508    1.385   .     S
C439   C443    1.397   .     A
C439   O516    1.386   .     S
C439   C450    1.404   .     A
C440   C451    1.412   .     A
C440   C444    1.397   .     A
C440   O502    1.385   .     S
C441   C445    1.396   .     A
C441   C451    1.413   .     A
C441   O503    1.385   .     S
C442   O504    1.385   .     S
C442   C447    1.398   .     A
C442   C450    1.404   .     A
C443   C448    1.424   .     A
C444   C449    1.405   .     A
C445   C449    1.404   .     A
C446   O510    1.290   .     A
C446   C452    1.456   .     S
C446   O509    1.287   .     A
C447   C448    1.425   .     A
C448   C457    1.486   .     S
C449   C463    1.449   .     S
C450   C1225   1.470   1_554 S
C451   C1224   1.470   .     S
C453   C468    1.410   .     A
C454   H496    1.108   .     S
C454   H495    1.115   .     S
C454   O516    1.411   .     S
C454   H1268   1.109   1_554 S
C455   H498    1.115   .     S
C455   O502    1.410   .     S
C455   H472    1.109   .     S
C455   H1271   1.110   .     S
C456   O503    1.410   .     S
C456   H474    1.115   .     S
C456   H475    1.109   .     S
C456   H1247   1.110   .     S
C457   O515    1.296   .     A
C457   O512    1.297   .     A
C458   H477    1.108   .     S
C458   O504    1.411   .     S
C458   H476    1.115   .     S
C458   H1252   1.110   1_554 S
C459   H479    1.112   .     S
C459   H480    1.109   .     S
C459   H481    1.113   .     S
C459   O505    1.410   .     S
C460   H484    1.114   .     S
C460   H483    1.109   .     S
C460   O506    1.410   .     S
C460   H485    1.113   .     S
C461   H488    1.112   .     S
C461   H486    1.113   .     S
C461   O507    1.413   .     S
C461   H487    1.109   .     S
C462   H491    1.112   .     S
C462   H490    1.112   .     S
C462   O508    1.413   .     S
C462   H489    1.109   .     S
C463   O513    1.286   .     A
C463   O514    1.287   .     A
C464   N500    1.366   .     A
C464   H471    1.082   .     S
C465   N499    1.366   .     A
C465   H482    1.082   .     S
C465   C724    1.413   .     S
C466   H492    1.081   .     S
C466   N500    1.366   .     A
C467   N499    1.365   .     A
C467   H493    1.081   .     S
C467   C722    1.413   .     S
C468   O505    1.385   .     S
Cu469  Cu470   2.667   .     S
Cu469  N499    2.004   .     S
Cu469  O512    1.963   .     S
Cu469  O514    1.961   .     S
Cu469  O510    1.971   .     S
Cu469  O501    1.975   .     S
Cu470  N500    2.004   .     S
Cu470  O513    1.963   .     S
Cu470  O515    1.961   .     S
Cu470  O509    1.975   .     S
Cu470  O511    1.971   .     S
H473   C1230   1.110   1_554 S
H478   C1232   1.110   .     S
H494   C1228   1.109   .     S
H497   C1229   1.110   1_554 S
Br517  C529    1.931   .     S
Br518  C530    1.929   .     S
Br519  C531    1.928   .     S
Br520  C533    1.936   .     S
C521   O597    1.290   .     A
C521   C539    1.457   .     S
C521   O587    1.287   .     A
C522   C538    1.409   .     A
C522   O592    1.385   .     S
C522   C610    1.393   .     S
C523   O593    1.385   .     S
C523   C538    1.411   .     A
C523   C640    1.392   .     S
C524   C539    1.412   .     A
C524   O594    1.385   .     S
C524   C694    1.393   1_455 S
C525   C529    1.397   .     A
C525   O602    1.386   .     S
C525   C536    1.404   .     A
C526   C537    1.412   .     A
C526   C530    1.397   .     A
C526   O588    1.385   .     S
C527   C531    1.396   .     A
C527   C537    1.413   .     A
C527   O589    1.385   .     S
C528   O590    1.385   .     S
C528   C533    1.398   .     A
C528   C536    1.404   .     A
C529   C534    1.424   .     A
C530   C535    1.405   .     A
C531   C535    1.404   .     A
C532   O596    1.290   .     A
C532   C538    1.456   .     S
C532   O595    1.287   .     A
C533   C534    1.425   .     A
C534   C543    1.486   .     S
C535   C549    1.449   .     S
C536   C1311   1.470   1_554 S
C537   C1310   1.470   .     S
C539   C554    1.410   .     A
C540   H582    1.108   .     S
C540   H581    1.115   .     S
C540   O602    1.411   .     S
C540   H1354   1.109   1_554 S
C541   H584    1.115   .     S
C541   O588    1.410   .     S
C541   H558    1.109   .     S
C541   H1357   1.110   .     S
C542   O589    1.410   .     S
C542   H560    1.115   .     S
C542   H561    1.109   .     S
C542   H1333   1.110   .     S
C543   O601    1.296   .     A
C543   O598    1.297   .     A
C544   H563    1.108   .     S
C544   O590    1.411   .     S
C544   H562    1.115   .     S
C544   H1338   1.110   1_554 S
C545   H565    1.112   .     S
C545   H566    1.109   .     S
C545   H567    1.113   .     S
C545   O591    1.410   .     S
C546   H570    1.114   .     S
C546   H569    1.109   .     S
C546   O592    1.410   .     S
C546   H571    1.113   .     S
C547   H574    1.112   .     S
C547   H572    1.113   .     S
C547   O593    1.413   .     S
C547   H573    1.109   .     S
C548   H577    1.112   .     S
C548   H576    1.112   .     S
C548   O594    1.413   .     S
C548   H575    1.109   .     S
C549   O599    1.286   .     A
C549   O600    1.287   .     A
C550   N586    1.366   .     A
C550   H557    1.082   .     S
C551   N585    1.366   .     A
C551   H568    1.082   .     S
C551   C36     1.413   1_565 S
C552   H578    1.081   .     S
C552   N586    1.366   .     A
C553   N585    1.365   .     A
C553   H579    1.081   .     S
C553   C34     1.413   1_565 S
C554   O591    1.385   .     S
C554   C695    1.392   1_455 S
Cu555  Cu556   2.667   .     S
Cu555  N585    2.004   .     S
Cu555  O598    1.963   .     S
Cu555  O600    1.961   .     S
Cu555  O596    1.971   .     S
Cu555  O587    1.975   .     S
Cu556  N586    2.004   .     S
Cu556  O599    1.963   .     S
Cu556  O601    1.961   .     S
Cu556  O595    1.975   .     S
Cu556  O597    1.971   .     S
H559   C1316   1.110   1_554 S
H564   C1318   1.110   .     S
H580   C1314   1.109   .     S
H583   C1315   1.110   1_554 S
Br603  C615    1.931   .     S
Br604  C616    1.929   .     S
Br605  C617    1.928   .     S
Br606  C619    1.936   .     S
C607   O683    1.290   .     A
C607   C625    1.457   .     S
C607   O673    1.287   .     A
C608   C624    1.409   .     A
C608   O678    1.385   .     S
C608   C696    1.393   .     S
C609   O679    1.385   .     S
C609   C624    1.411   .     A
C609   C726    1.392   .     S
C610   C625    1.412   .     A
C610   O680    1.385   .     S
C611   C615    1.397   .     A
C611   O688    1.386   .     S
C611   C622    1.404   .     A
C612   C623    1.412   .     A
C612   C616    1.397   .     A
C612   O674    1.385   .     S
C613   C617    1.396   .     A
C613   C623    1.413   .     A
C613   O675    1.385   .     S
C614   O676    1.385   .     S
C614   C619    1.398   .     A
C614   C622    1.404   .     A
C615   C620    1.424   .     A
C616   C621    1.405   .     A
C617   C621    1.404   .     A
C618   O682    1.290   .     A
C618   C624    1.456   .     S
C618   O681    1.287   .     A
C619   C620    1.425   .     A
C620   C629    1.486   .     S
C621   C635    1.449   .     S
C622   C1397   1.470   1_554 S
C623   C1396   1.470   .     S
C625   C640    1.410   .     A
C626   H668    1.108   .     S
C626   H667    1.115   .     S
C626   O688    1.411   .     S
C626   H1440   1.109   1_554 S
C627   H670    1.115   .     S
C627   O674    1.410   .     S
C627   H644    1.109   .     S
C627   H1443   1.110   .     S
C628   O675    1.410   .     S
C628   H646    1.115   .     S
C628   H647    1.109   .     S
C628   H1419   1.110   .     S
C629   O687    1.296   .     A
C629   O684    1.297   .     A
C630   H649    1.108   .     S
C630   O676    1.411   .     S
C630   H648    1.115   .     S
C630   H1424   1.110   1_554 S
C631   H651    1.112   .     S
C631   H652    1.109   .     S
C631   H653    1.113   .     S
C631   O677    1.410   .     S
C632   H656    1.114   .     S
C632   H655    1.109   .     S
C632   O678    1.410   .     S
C632   H657    1.113   .     S
C633   H660    1.112   .     S
C633   H658    1.113   .     S
C633   O679    1.413   .     S
C633   H659    1.109   .     S
C634   H663    1.112   .     S
C634   H662    1.112   .     S
C634   O680    1.413   .     S
C634   H661    1.109   .     S
C635   O685    1.286   .     A
C635   O686    1.287   .     A
C636   N672    1.366   .     A
C636   H643    1.082   .     S
C637   N671    1.366   .     A
C637   H654    1.082   .     S
C637   C122    1.413   1_565 S
C638   H664    1.081   .     S
C638   N672    1.366   .     A
C639   N671    1.365   .     A
C639   H665    1.081   .     S
C639   C120    1.413   1_565 S
C640   O677    1.385   .     S
Cu641  Cu642   2.667   .     S
Cu641  N671    2.004   .     S
Cu641  O684    1.963   .     S
Cu641  O686    1.961   .     S
Cu641  O682    1.971   .     S
Cu641  O673    1.975   .     S
Cu642  N672    2.004   .     S
Cu642  O685    1.963   .     S
Cu642  O687    1.961   .     S
Cu642  O681    1.975   .     S
Cu642  O683    1.971   .     S
H645   C1402   1.110   1_554 S
H650   C1404   1.110   .     S
H666   C1400   1.109   .     S
H669   C1401   1.110   1_554 S
Br689  C701    1.931   .     S
Br690  C702    1.929   .     S
Br691  C703    1.928   .     S
Br692  C705    1.936   .     S
C693   O769    1.290   .     A
C693   C711    1.457   .     S
C693   O759    1.287   .     A
C694   C710    1.409   .     A
C694   O764    1.385   .     S
C694   C524    1.393   1_655 S
C695   O765    1.385   .     S
C695   C710    1.411   .     A
C695   C554    1.392   1_655 S
C696   C711    1.412   .     A
C696   O766    1.385   .     S
C697   C701    1.397   .     A
C697   O774    1.386   .     S
C697   C708    1.404   .     A
C698   C709    1.412   .     A
C698   C702    1.397   .     A
C698   O760    1.385   .     S
C699   C703    1.396   .     A
C699   C709    1.413   .     A
C699   O761    1.385   .     S
C700   O762    1.385   .     S
C700   C705    1.398   .     A
C700   C708    1.404   .     A
C701   C706    1.424   .     A
C702   C707    1.405   .     A
C703   C707    1.404   .     A
C704   O768    1.290   .     A
C704   C710    1.456   .     S
C704   O767    1.287   .     A
C705   C706    1.425   .     A
C706   C715    1.486   .     S
C707   C721    1.449   .     S
C708   C1483   1.470   1_554 S
C709   C1482   1.470   .     S
C711   C726    1.410   .     A
C712   H754    1.108   .     S
C712   H753    1.115   .     S
C712   O774    1.411   .     S
C712   H1526   1.109   1_554 S
C713   H756    1.115   .     S
C713   O760    1.410   .     S
C713   H730    1.109   .     S
C713   H1529   1.110   .     S
C714   O761    1.410   .     S
C714   H732    1.115   .     S
C714   H733    1.109   .     S
C714   H1505   1.110   .     S
C715   O773    1.296   .     A
C715   O770    1.297   .     A
C716   H735    1.108   .     S
C716   O762    1.411   .     S
C716   H734    1.115   .     S
C716   H1510   1.110   1_554 S
C717   H737    1.112   .     S
C717   H738    1.109   .     S
C717   H739    1.113   .     S
C717   O763    1.410   .     S
C718   H742    1.114   .     S
C718   H741    1.109   .     S
C718   O764    1.410   .     S
C718   H743    1.113   .     S
C719   H746    1.112   .     S
C719   H744    1.113   .     S
C719   O765    1.413   .     S
C719   H745    1.109   .     S
C720   H749    1.112   .     S
C720   H748    1.112   .     S
C720   O766    1.413   .     S
C720   H747    1.109   .     S
C721   O771    1.286   .     A
C721   O772    1.287   .     A
C722   N758    1.366   .     A
C722   H729    1.082   .     S
C723   N757    1.366   .     A
C723   H740    1.082   .     S
C723   C208    1.413   1_565 S
C724   H750    1.081   .     S
C724   N758    1.366   .     A
C725   N757    1.365   .     A
C725   H751    1.081   .     S
C725   C206    1.413   1_565 S
C726   O763    1.385   .     S
Cu727  Cu728   2.667   .     S
Cu727  N757    2.004   .     S
Cu727  O770    1.963   .     S
Cu727  O772    1.961   .     S
Cu727  O768    1.971   .     S
Cu727  O759    1.975   .     S
Cu728  N758    2.004   .     S
Cu728  O771    1.963   .     S
Cu728  O773    1.961   .     S
Cu728  O767    1.975   .     S
Cu728  O769    1.971   .     S
H731   C1488   1.110   1_554 S
H736   C1490   1.110   .     S
H752   C1486   1.109   .     S
H755   C1487   1.110   1_554 S
Br775  C787    1.931   .     S
Br776  C788    1.929   .     S
Br777  C789    1.928   .     S
Br778  C791    1.936   .     S
C779   O855    1.290   .     A
C779   C797    1.457   .     S
C779   O845    1.287   .     A
C780   C796    1.409   .     A
C780   O850    1.385   .     S
C780   C868    1.393   .     S
C781   O851    1.385   .     S
C781   C796    1.411   .     A
C781   C898    1.392   .     S
C782   C797    1.412   .     A
C782   O852    1.385   .     S
C782   C952    1.393   1_455 S
C783   C787    1.397   .     A
C783   O860    1.386   .     S
C783   C794    1.404   .     A
C784   C795    1.412   .     A
C784   C788    1.397   .     A
C784   O846    1.385   .     S
C785   C789    1.396   .     A
C785   C795    1.413   .     A
C785   O847    1.385   .     S
C786   O848    1.385   .     S
C786   C791    1.398   .     A
C786   C794    1.404   .     A
C787   C792    1.424   .     A
C788   C793    1.405   .     A
C789   C793    1.404   .     A
C790   O854    1.290   .     A
C790   C796    1.456   .     S
C790   O853    1.287   .     A
C791   C792    1.425   .     A
C792   C801    1.486   .     S
C793   C807    1.449   .     S
C795   C20     1.470   1_556 S
C797   C812    1.410   .     A
C798   H840    1.108   .     S
C798   H839    1.115   .     S
C798   O860    1.411   .     S
C799   H842    1.115   .     S
C799   O846    1.410   .     S
C799   H816    1.109   .     S
C799   H67     1.110   1_556 S
C800   O847    1.410   .     S
C800   H818    1.115   .     S
C800   H819    1.109   .     S
C800   H43     1.110   1_556 S
C801   O859    1.296   .     A
C801   O856    1.297   .     A
C802   H821    1.108   .     S
C802   O848    1.411   .     S
C802   H820    1.115   .     S
C803   H823    1.112   .     S
C803   H824    1.109   .     S
C803   H825    1.113   .     S
C803   O849    1.410   .     S
C804   H828    1.114   .     S
C804   H827    1.109   .     S
C804   O850    1.410   .     S
C804   H829    1.113   .     S
C805   H832    1.112   .     S
C805   H830    1.113   .     S
C805   O851    1.413   .     S
C805   H831    1.109   .     S
C806   H835    1.112   .     S
C806   H834    1.112   .     S
C806   O852    1.413   .     S
C806   H833    1.109   .     S
C807   O857    1.286   .     A
C807   O858    1.287   .     A
C808   N844    1.366   .     A
C808   H815    1.082   .     S
C808   C1327   1.413   1_545 S
C809   N843    1.366   .     A
C809   H826    1.082   .     S
C809   C1068   1.413   .     S
C810   H836    1.081   .     S
C810   N844    1.366   .     A
C810   C1325   1.413   1_545 S
C811   N843    1.365   .     A
C811   H837    1.081   .     S
C811   C1066   1.413   .     S
C812   O849    1.385   .     S
C812   C953    1.392   1_455 S
Cu813  Cu814   2.667   .     S
Cu813  N843    2.004   .     S
Cu813  O856    1.963   .     S
Cu813  O858    1.961   .     S
Cu813  O854    1.971   .     S
Cu813  O845    1.975   .     S
Cu814  N844    2.004   .     S
Cu814  O857    1.963   .     S
Cu814  O859    1.961   .     S
Cu814  O853    1.975   .     S
Cu814  O855    1.971   .     S
H822   C28     1.110   1_556 S
H838   C24     1.109   1_556 S
Br861  C873    1.931   .     S
Br862  C874    1.929   .     S
Br863  C875    1.928   .     S
Br864  C877    1.936   .     S
C865   O941    1.290   .     A
C865   C883    1.457   .     S
C865   O931    1.287   .     A
C866   C882    1.409   .     A
C866   O936    1.385   .     S
C866   C954    1.393   .     S
C867   O937    1.385   .     S
C867   C882    1.411   .     A
C867   C984    1.392   .     S
C868   C883    1.412   .     A
C868   O938    1.385   .     S
C869   C873    1.397   .     A
C869   O946    1.386   .     S
C869   C880    1.404   .     A
C870   C881    1.412   .     A
C870   C874    1.397   .     A
C870   O932    1.385   .     S
C871   C875    1.396   .     A
C871   C881    1.413   .     A
C871   O933    1.385   .     S
C872   O934    1.385   .     S
C872   C877    1.398   .     A
C872   C880    1.404   .     A
C873   C878    1.424   .     A
C874   C879    1.405   .     A
C875   C879    1.404   .     A
C876   O940    1.290   .     A
C876   C882    1.456   .     S
C876   O939    1.287   .     A
C877   C878    1.425   .     A
C878   C887    1.486   .     S
C879   C893    1.449   .     S
C881   C106    1.470   1_556 S
C883   C898    1.410   .     A
C884   H926    1.108   .     S
C884   H925    1.115   .     S
C884   O946    1.411   .     S
C885   H928    1.115   .     S
C885   O932    1.410   .     S
C885   H902    1.109   .     S
C885   H153    1.110   1_556 S
C886   O933    1.410   .     S
C886   H904    1.115   .     S
C886   H905    1.109   .     S
C886   H129    1.110   1_556 S
C887   O945    1.296   .     A
C887   O942    1.297   .     A
C888   H907    1.108   .     S
C888   O934    1.411   .     S
C888   H906    1.115   .     S
C889   H909    1.112   .     S
C889   H910    1.109   .     S
C889   H911    1.113   .     S
C889   O935    1.410   .     S
C890   H914    1.114   .     S
C890   H913    1.109   .     S
C890   O936    1.410   .     S
C890   H915    1.113   .     S
C891   H918    1.112   .     S
C891   H916    1.113   .     S
C891   O937    1.413   .     S
C891   H917    1.109   .     S
C892   H921    1.112   .     S
C892   H920    1.112   .     S
C892   O938    1.413   .     S
C892   H919    1.109   .     S
C893   O943    1.286   .     A
C893   O944    1.287   .     A
C894   N930    1.366   .     A
C894   H901    1.082   .     S
C894   C1413   1.413   1_545 S
C895   N929    1.366   .     A
C895   H912    1.082   .     S
C895   C1154   1.413   .     S
C896   H922    1.081   .     S
C896   N930    1.366   .     A
C896   C1411   1.413   1_545 S
C897   N929    1.365   .     A
C897   H923    1.081   .     S
C897   C1152   1.413   .     S
C898   O935    1.385   .     S
Cu899  Cu900   2.667   .     S
Cu899  N929    2.004   .     S
Cu899  O942    1.963   .     S
Cu899  O944    1.961   .     S
Cu899  O940    1.971   .     S
Cu899  O931    1.975   .     S
Cu900  N930    2.004   .     S
Cu900  O943    1.963   .     S
Cu900  O945    1.961   .     S
Cu900  O939    1.975   .     S
Cu900  O941    1.971   .     S
H908   C114    1.110   1_556 S
H924   C110    1.109   1_556 S
Br947  C959    1.931   .     S
Br948  C960    1.929   .     S
Br949  C961    1.928   .     S
Br950  C963    1.936   .     S
C951   O1027   1.290   .     A
C951   C969    1.457   .     S
C951   O1017   1.287   .     A
C952   C968    1.409   .     A
C952   O1022   1.385   .     S
C952   C782    1.393   1_655 S
C953   O1023   1.385   .     S
C953   C968    1.411   .     A
C953   C812    1.392   1_655 S
C954   C969    1.412   .     A
C954   O1024   1.385   .     S
C955   C959    1.397   .     A
C955   O1032   1.386   .     S
C955   C966    1.404   .     A
C956   C967    1.412   .     A
C956   C960    1.397   .     A
C956   O1018   1.385   .     S
C957   C961    1.396   .     A
C957   C967    1.413   .     A
C957   O1019   1.385   .     S
C958   O1020   1.385   .     S
C958   C963    1.398   .     A
C958   C966    1.404   .     A
C959   C964    1.424   .     A
C960   C965    1.405   .     A
C961   C965    1.404   .     A
C962   O1026   1.290   .     A
C962   C968    1.456   .     S
C962   O1025   1.287   .     A
C963   C964    1.425   .     A
C964   C973    1.486   .     S
C965   C979    1.449   .     S
C967   C192    1.470   1_556 S
C969   C984    1.410   .     A
C970   H1012   1.108   .     S
C970   H1011   1.115   .     S
C970   O1032   1.411   .     S
C971   H1014   1.115   .     S
C971   O1018   1.410   .     S
C971   H988    1.109   .     S
C971   H239    1.110   1_556 S
C972   O1019   1.410   .     S
C972   H990    1.115   .     S
C972   H991    1.109   .     S
C972   H215    1.110   1_556 S
C973   O1031   1.296   .     A
C973   O1028   1.297   .     A
C974   H993    1.108   .     S
C974   O1020   1.411   .     S
C974   H992    1.115   .     S
C975   H995    1.112   .     S
C975   H996    1.109   .     S
C975   H997    1.113   .     S
C975   O1021   1.410   .     S
C976   H1000   1.114   .     S
C976   H999    1.109   .     S
C976   O1022   1.410   .     S
C976   H1001   1.113   .     S
C977   H1004   1.112   .     S
C977   H1002   1.113   .     S
C977   O1023   1.413   .     S
C977   H1003   1.109   .     S
C978   H1007   1.112   .     S
C978   H1006   1.112   .     S
C978   O1024   1.413   .     S
C978   H1005   1.109   .     S
C979   O1029   1.286   .     A
C979   O1030   1.287   .     A
C980   N1016   1.366   .     A
C980   H987    1.082   .     S
C980   C1499   1.413   1_545 S
C981   N1015   1.366   .     A
C981   H998    1.082   .     S
C981   C1240   1.413   .     S
C982   H1008   1.081   .     S
C982   N1016   1.366   .     A
C982   C1497   1.413   1_545 S
C983   N1015   1.365   .     A
C983   H1009   1.081   .     S
C983   C1238   1.413   .     S
C984   O1021   1.385   .     S
Cu985  Cu986   2.667   .     S
Cu985  N1015   2.004   .     S
Cu985  O1028   1.963   .     S
Cu985  O1030   1.961   .     S
Cu985  O1026   1.971   .     S
Cu985  O1017   1.975   .     S
Cu986  N1016   2.004   .     S
Cu986  O1029   1.963   .     S
Cu986  O1031   1.961   .     S
Cu986  O1025   1.975   .     S
Cu986  O1027   1.971   .     S
H994   C200    1.110   1_556 S
H1010  C196    1.109   1_556 S
Br1033 C1045   1.931   .     S
Br1034 C1046   1.929   .     S
Br1035 C1047   1.928   .     S
Br1036 C1049   1.936   .     S
C1037  O1113   1.290   .     A
C1037  C1055   1.457   .     S
C1037  O1103   1.287   .     A
C1038  C1054   1.409   .     A
C1038  O1108   1.385   .     S
C1038  C1126   1.393   .     S
C1039  O1109   1.385   .     S
C1039  C1054   1.411   .     A
C1039  C1156   1.392   .     S
C1040  C1055   1.412   .     A
C1040  O1110   1.385   .     S
C1040  C1210   1.393   1_455 S
C1041  C1045   1.397   .     A
C1041  O1118   1.386   .     S
C1041  C1052   1.404   .     A
C1042  C1053   1.412   .     A
C1042  C1046   1.397   .     A
C1042  O1104   1.385   .     S
C1043  C1047   1.396   .     A
C1043  C1053   1.413   .     A
C1043  O1105   1.385   .     S
C1044  O1106   1.385   .     S
C1044  C1049   1.398   .     A
C1044  C1052   1.404   .     A
C1045  C1050   1.424   .     A
C1046  C1051   1.405   .     A
C1047  C1051   1.404   .     A
C1048  O1112   1.290   .     A
C1048  C1054   1.456   .     S
C1048  O1111   1.287   .     A
C1049  C1050   1.425   .     A
C1050  C1059   1.486   .     S
C1051  C1065   1.449   .     S
C1053  C278    1.470   1_556 S
C1055  C1070   1.410   .     A
C1056  H1098   1.108   .     S
C1056  H1097   1.115   .     S
C1056  O1118   1.411   .     S
C1057  H1100   1.115   .     S
C1057  O1104   1.410   .     S
C1057  H1074   1.109   .     S
C1057  H325    1.110   1_556 S
C1058  O1105   1.410   .     S
C1058  H1076   1.115   .     S
C1058  H1077   1.109   .     S
C1058  H301    1.110   1_556 S
C1059  O1117   1.296   .     A
C1059  O1114   1.297   .     A
C1060  H1079   1.108   .     S
C1060  O1106   1.411   .     S
C1060  H1078   1.115   .     S
C1061  H1081   1.112   .     S
C1061  H1082   1.109   .     S
C1061  H1083   1.113   .     S
C1061  O1107   1.410   .     S
C1062  H1086   1.114   .     S
C1062  H1085   1.109   .     S
C1062  O1108   1.410   .     S
C1062  H1087   1.113   .     S
C1063  H1090   1.112   .     S
C1063  H1088   1.113   .     S
C1063  O1109   1.413   .     S
C1063  H1089   1.109   .     S
C1064  H1093   1.112   .     S
C1064  H1092   1.112   .     S
C1064  O1110   1.413   .     S
C1064  H1091   1.109   .     S
C1065  O1115   1.286   .     A
C1065  O1116   1.287   .     A
C1066  N1102   1.366   .     A
C1066  H1073   1.082   .     S
C1067  N1101   1.366   .     A
C1067  H1084   1.082   .     S
C1067  C1326   1.413   .     S
C1068  H1094   1.081   .     S
C1068  N1102   1.366   .     A
C1069  N1101   1.365   .     A
C1069  H1095   1.081   .     S
C1069  C1324   1.413   .     S
C1070  O1107   1.385   .     S
C1070  C1211   1.392   1_455 S
Cu1071 Cu1072  2.667   .     S
Cu1071 N1101   2.004   .     S
Cu1071 O1114   1.963   .     S
Cu1071 O1116   1.961   .     S
Cu1071 O1112   1.971   .     S
Cu1071 O1103   1.975   .     S
Cu1072 N1102   2.004   .     S
Cu1072 O1115   1.963   .     S
Cu1072 O1117   1.961   .     S
Cu1072 O1111   1.975   .     S
Cu1072 O1113   1.971   .     S
H1080  C286    1.110   1_556 S
H1096  C282    1.109   1_556 S
Br1119 C1131   1.931   .     S
Br1120 C1132   1.929   .     S
Br1121 C1133   1.928   .     S
Br1122 C1135   1.936   .     S
C1123  O1199   1.290   .     A
C1123  C1141   1.457   .     S
C1123  O1189   1.287   .     A
C1124  C1140   1.409   .     A
C1124  O1194   1.385   .     S
C1124  C1212   1.393   .     S
C1125  O1195   1.385   .     S
C1125  C1140   1.411   .     A
C1125  C1242   1.392   .     S
C1126  C1141   1.412   .     A
C1126  O1196   1.385   .     S
C1127  C1131   1.397   .     A
C1127  O1204   1.386   .     S
C1127  C1138   1.404   .     A
C1128  C1139   1.412   .     A
C1128  C1132   1.397   .     A
C1128  O1190   1.385   .     S
C1129  C1133   1.396   .     A
C1129  C1139   1.413   .     A
C1129  O1191   1.385   .     S
C1130  O1192   1.385   .     S
C1130  C1135   1.398   .     A
C1130  C1138   1.404   .     A
C1131  C1136   1.424   .     A
C1132  C1137   1.405   .     A
C1133  C1137   1.404   .     A
C1134  O1198   1.290   .     A
C1134  C1140   1.456   .     S
C1134  O1197   1.287   .     A
C1135  C1136   1.425   .     A
C1136  C1145   1.486   .     S
C1137  C1151   1.449   .     S
C1139  C364    1.470   1_556 S
C1141  C1156   1.410   .     A
C1142  H1184   1.108   .     S
C1142  H1183   1.115   .     S
C1142  O1204   1.411   .     S
C1143  H1186   1.115   .     S
C1143  O1190   1.410   .     S
C1143  H1160   1.109   .     S
C1143  H411    1.110   1_556 S
C1144  O1191   1.410   .     S
C1144  H1162   1.115   .     S
C1144  H1163   1.109   .     S
C1144  H387    1.110   1_556 S
C1145  O1203   1.296   .     A
C1145  O1200   1.297   .     A
C1146  H1165   1.108   .     S
C1146  O1192   1.411   .     S
C1146  H1164   1.115   .     S
C1147  H1167   1.112   .     S
C1147  H1168   1.109   .     S
C1147  H1169   1.113   .     S
C1147  O1193   1.410   .     S
C1148  H1172   1.114   .     S
C1148  H1171   1.109   .     S
C1148  O1194   1.410   .     S
C1148  H1173   1.113   .     S
C1149  H1176   1.112   .     S
C1149  H1174   1.113   .     S
C1149  O1195   1.413   .     S
C1149  H1175   1.109   .     S
C1150  H1179   1.112   .     S
C1150  H1178   1.112   .     S
C1150  O1196   1.413   .     S
C1150  H1177   1.109   .     S
C1151  O1201   1.286   .     A
C1151  O1202   1.287   .     A
C1152  N1188   1.366   .     A
C1152  H1159   1.082   .     S
C1153  N1187   1.366   .     A
C1153  H1170   1.082   .     S
C1153  C1412   1.413   .     S
C1154  H1180   1.081   .     S
C1154  N1188   1.366   .     A
C1155  N1187   1.365   .     A
C1155  H1181   1.081   .     S
C1155  C1410   1.413   .     S
C1156  O1193   1.385   .     S
Cu1157 Cu1158  2.667   .     S
Cu1157 N1187   2.004   .     S
Cu1157 O1200   1.963   .     S
Cu1157 O1202   1.961   .     S
Cu1157 O1198   1.971   .     S
Cu1157 O1189   1.975   .     S
Cu1158 N1188   2.004   .     S
Cu1158 O1201   1.963   .     S
Cu1158 O1203   1.961   .     S
Cu1158 O1197   1.975   .     S
Cu1158 O1199   1.971   .     S
H1166  C372    1.110   1_556 S
H1182  C368    1.109   1_556 S
Br1205 C1217   1.931   .     S
Br1206 C1218   1.929   .     S
Br1207 C1219   1.928   .     S
Br1208 C1221   1.936   .     S
C1209  O1285   1.290   .     A
C1209  C1227   1.457   .     S
C1209  O1275   1.287   .     A
C1210  C1226   1.409   .     A
C1210  O1280   1.385   .     S
C1210  C1040   1.393   1_655 S
C1211  O1281   1.385   .     S
C1211  C1226   1.411   .     A
C1211  C1070   1.392   1_655 S
C1212  C1227   1.412   .     A
C1212  O1282   1.385   .     S
C1213  C1217   1.397   .     A
C1213  O1290   1.386   .     S
C1213  C1224   1.404   .     A
C1214  C1225   1.412   .     A
C1214  C1218   1.397   .     A
C1214  O1276   1.385   .     S
C1215  C1219   1.396   .     A
C1215  C1225   1.413   .     A
C1215  O1277   1.385   .     S
C1216  O1278   1.385   .     S
C1216  C1221   1.398   .     A
C1216  C1224   1.404   .     A
C1217  C1222   1.424   .     A
C1218  C1223   1.405   .     A
C1219  C1223   1.404   .     A
C1220  O1284   1.290   .     A
C1220  C1226   1.456   .     S
C1220  O1283   1.287   .     A
C1221  C1222   1.425   .     A
C1222  C1231   1.486   .     S
C1223  C1237   1.449   .     S
C1225  C450    1.470   1_556 S
C1227  C1242   1.410   .     A
C1228  H1270   1.108   .     S
C1228  H1269   1.115   .     S
C1228  O1290   1.411   .     S
C1229  H1272   1.115   .     S
C1229  O1276   1.410   .     S
C1229  H1246   1.109   .     S
C1229  H497    1.110   1_556 S
C1230  O1277   1.410   .     S
C1230  H1248   1.115   .     S
C1230  H1249   1.109   .     S
C1230  H473    1.110   1_556 S
C1231  O1289   1.296   .     A
C1231  O1286   1.297   .     A
C1232  H1251   1.108   .     S
C1232  O1278   1.411   .     S
C1232  H1250   1.115   .     S
C1233  H1253   1.112   .     S
C1233  H1254   1.109   .     S
C1233  H1255   1.113   .     S
C1233  O1279   1.410   .     S
C1234  H1258   1.114   .     S
C1234  H1257   1.109   .     S
C1234  O1280   1.410   .     S
C1234  H1259   1.113   .     S
C1235  H1262   1.112   .     S
C1235  H1260   1.113   .     S
C1235  O1281   1.413   .     S
C1235  H1261   1.109   .     S
C1236  H1265   1.112   .     S
C1236  H1264   1.112   .     S
C1236  O1282   1.413   .     S
C1236  H1263   1.109   .     S
C1237  O1287   1.286   .     A
C1237  O1288   1.287   .     A
C1238  N1274   1.366   .     A
C1238  H1245   1.082   .     S
C1239  N1273   1.366   .     A
C1239  H1256   1.082   .     S
C1239  C1498   1.413   .     S
C1240  H1266   1.081   .     S
C1240  N1274   1.366   .     A
C1241  N1273   1.365   .     A
C1241  H1267   1.081   .     S
C1241  C1496   1.413   .     S
C1242  O1279   1.385   .     S
Cu1243 Cu1244  2.667   .     S
Cu1243 N1273   2.004   .     S
Cu1243 O1286   1.963   .     S
Cu1243 O1288   1.961   .     S
Cu1243 O1284   1.971   .     S
Cu1243 O1275   1.975   .     S
Cu1244 N1274   2.004   .     S
Cu1244 O1287   1.963   .     S
Cu1244 O1289   1.961   .     S
Cu1244 O1283   1.975   .     S
Cu1244 O1285   1.971   .     S
H1252  C458    1.110   1_556 S
H1268  C454    1.109   1_556 S
Br1291 C1303   1.931   .     S
Br1292 C1304   1.929   .     S
Br1293 C1305   1.928   .     S
Br1294 C1307   1.936   .     S
C1295  O1371   1.290   .     A
C1295  C1313   1.457   .     S
C1295  O1361   1.287   .     A
C1296  C1312   1.409   .     A
C1296  O1366   1.385   .     S
C1296  C1384   1.393   .     S
C1297  O1367   1.385   .     S
C1297  C1312   1.411   .     A
C1297  C1414   1.392   .     S
C1298  C1313   1.412   .     A
C1298  O1368   1.385   .     S
C1298  C1468   1.393   1_455 S
C1299  C1303   1.397   .     A
C1299  O1376   1.386   .     S
C1299  C1310   1.404   .     A
C1300  C1311   1.412   .     A
C1300  C1304   1.397   .     A
C1300  O1362   1.385   .     S
C1301  C1305   1.396   .     A
C1301  C1311   1.413   .     A
C1301  O1363   1.385   .     S
C1302  O1364   1.385   .     S
C1302  C1307   1.398   .     A
C1302  C1310   1.404   .     A
C1303  C1308   1.424   .     A
C1304  C1309   1.405   .     A
C1305  C1309   1.404   .     A
C1306  O1370   1.290   .     A
C1306  C1312   1.456   .     S
C1306  O1369   1.287   .     A
C1307  C1308   1.425   .     A
C1308  C1317   1.486   .     S
C1309  C1323   1.449   .     S
C1311  C536    1.470   1_556 S
C1313  C1328   1.410   .     A
C1314  H1356   1.108   .     S
C1314  H1355   1.115   .     S
C1314  O1376   1.411   .     S
C1315  H1358   1.115   .     S
C1315  O1362   1.410   .     S
C1315  H1332   1.109   .     S
C1315  H583    1.110   1_556 S
C1316  O1363   1.410   .     S
C1316  H1334   1.115   .     S
C1316  H1335   1.109   .     S
C1316  H559    1.110   1_556 S
C1317  O1375   1.296   .     A
C1317  O1372   1.297   .     A
C1318  H1337   1.108   .     S
C1318  O1364   1.411   .     S
C1318  H1336   1.115   .     S
C1319  H1339   1.112   .     S
C1319  H1340   1.109   .     S
C1319  H1341   1.113   .     S
C1319  O1365   1.410   .     S
C1320  H1344   1.114   .     S
C1320  H1343   1.109   .     S
C1320  O1366   1.410   .     S
C1320  H1345   1.113   .     S
C1321  H1348   1.112   .     S
C1321  H1346   1.113   .     S
C1321  O1367   1.413   .     S
C1321  H1347   1.109   .     S
C1322  H1351   1.112   .     S
C1322  H1350   1.112   .     S
C1322  O1368   1.413   .     S
C1322  H1349   1.109   .     S
C1323  O1373   1.286   .     A
C1323  O1374   1.287   .     A
C1324  N1360   1.366   .     A
C1324  H1331   1.082   .     S
C1325  N1359   1.366   .     A
C1325  H1342   1.082   .     S
C1325  C810    1.413   1_565 S
C1326  H1352   1.081   .     S
C1326  N1360   1.366   .     A
C1327  N1359   1.365   .     A
C1327  H1353   1.081   .     S
C1327  C808    1.413   1_565 S
C1328  O1365   1.385   .     S
C1328  C1469   1.392   1_455 S
Cu1329 Cu1330  2.667   .     S
Cu1329 N1359   2.004   .     S
Cu1329 O1372   1.963   .     S
Cu1329 O1374   1.961   .     S
Cu1329 O1370   1.971   .     S
Cu1329 O1361   1.975   .     S
Cu1330 N1360   2.004   .     S
Cu1330 O1373   1.963   .     S
Cu1330 O1375   1.961   .     S
Cu1330 O1369   1.975   .     S
Cu1330 O1371   1.971   .     S
H1338  C544    1.110   1_556 S
H1354  C540    1.109   1_556 S
Br1377 C1389   1.931   .     S
Br1378 C1390   1.929   .     S
Br1379 C1391   1.928   .     S
Br1380 C1393   1.936   .     S
C1381  O1457   1.290   .     A
C1381  C1399   1.457   .     S
C1381  O1447   1.287   .     A
C1382  C1398   1.409   .     A
C1382  O1452   1.385   .     S
C1382  C1470   1.393   .     S
C1383  O1453   1.385   .     S
C1383  C1398   1.411   .     A
C1383  C1500   1.392   .     S
C1384  C1399   1.412   .     A
C1384  O1454   1.385   .     S
C1385  C1389   1.397   .     A
C1385  O1462   1.386   .     S
C1385  C1396   1.404   .     A
C1386  C1397   1.412   .     A
C1386  C1390   1.397   .     A
C1386  O1448   1.385   .     S
C1387  C1391   1.396   .     A
C1387  C1397   1.413   .     A
C1387  O1449   1.385   .     S
C1388  O1450   1.385   .     S
C1388  C1393   1.398   .     A
C1388  C1396   1.404   .     A
C1389  C1394   1.424   .     A
C1390  C1395   1.405   .     A
C1391  C1395   1.404   .     A
C1392  O1456   1.290   .     A
C1392  C1398   1.456   .     S
C1392  O1455   1.287   .     A
C1393  C1394   1.425   .     A
C1394  C1403   1.486   .     S
C1395  C1409   1.449   .     S
C1397  C622    1.470   1_556 S
C1399  C1414   1.410   .     A
C1400  H1442   1.108   .     S
C1400  H1441   1.115   .     S
C1400  O1462   1.411   .     S
C1401  H1444   1.115   .     S
C1401  O1448   1.410   .     S
C1401  H1418   1.109   .     S
C1401  H669    1.110   1_556 S
C1402  O1449   1.410   .     S
C1402  H1420   1.115   .     S
C1402  H1421   1.109   .     S
C1402  H645    1.110   1_556 S
C1403  O1461   1.296   .     A
C1403  O1458   1.297   .     A
C1404  H1423   1.108   .     S
C1404  O1450   1.411   .     S
C1404  H1422   1.115   .     S
C1405  H1425   1.112   .     S
C1405  H1426   1.109   .     S
C1405  H1427   1.113   .     S
C1405  O1451   1.410   .     S
C1406  H1430   1.114   .     S
C1406  H1429   1.109   .     S
C1406  O1452   1.410   .     S
C1406  H1431   1.113   .     S
C1407  H1434   1.112   .     S
C1407  H1432   1.113   .     S
C1407  O1453   1.413   .     S
C1407  H1433   1.109   .     S
C1408  H1437   1.112   .     S
C1408  H1436   1.112   .     S
C1408  O1454   1.413   .     S
C1408  H1435   1.109   .     S
C1409  O1459   1.286   .     A
C1409  O1460   1.287   .     A
C1410  N1446   1.366   .     A
C1410  H1417   1.082   .     S
C1411  N1445   1.366   .     A
C1411  H1428   1.082   .     S
C1411  C896    1.413   1_565 S
C1412  H1438   1.081   .     S
C1412  N1446   1.366   .     A
C1413  N1445   1.365   .     A
C1413  H1439   1.081   .     S
C1413  C894    1.413   1_565 S
C1414  O1451   1.385   .     S
Cu1415 Cu1416  2.667   .     S
Cu1415 N1445   2.004   .     S
Cu1415 O1458   1.963   .     S
Cu1415 O1460   1.961   .     S
Cu1415 O1456   1.971   .     S
Cu1415 O1447   1.975   .     S
Cu1416 N1446   2.004   .     S
Cu1416 O1459   1.963   .     S
Cu1416 O1461   1.961   .     S
Cu1416 O1455   1.975   .     S
Cu1416 O1457   1.971   .     S
H1424  C630    1.110   1_556 S
H1440  C626    1.109   1_556 S
Br1463 C1475   1.931   .     S
Br1464 C1476   1.929   .     S
Br1465 C1477   1.928   .     S
Br1466 C1479   1.936   .     S
C1467  O1543   1.290   .     A
C1467  C1485   1.457   .     S
C1467  O1533   1.287   .     A
C1468  C1484   1.409   .     A
C1468  O1538   1.385   .     S
C1468  C1298   1.393   1_655 S
C1469  O1539   1.385   .     S
C1469  C1484   1.411   .     A
C1469  C1328   1.392   1_655 S
C1470  C1485   1.412   .     A
C1470  O1540   1.385   .     S
C1471  C1475   1.397   .     A
C1471  O1548   1.386   .     S
C1471  C1482   1.404   .     A
C1472  C1483   1.412   .     A
C1472  C1476   1.397   .     A
C1472  O1534   1.385   .     S
C1473  C1477   1.396   .     A
C1473  C1483   1.413   .     A
C1473  O1535   1.385   .     S
C1474  O1536   1.385   .     S
C1474  C1479   1.398   .     A
C1474  C1482   1.404   .     A
C1475  C1480   1.424   .     A
C1476  C1481   1.405   .     A
C1477  C1481   1.404   .     A
C1478  O1542   1.290   .     A
C1478  C1484   1.456   .     S
C1478  O1541   1.287   .     A
C1479  C1480   1.425   .     A
C1480  C1489   1.486   .     S
C1481  C1495   1.449   .     S
C1483  C708    1.470   1_556 S
C1485  C1500   1.410   .     A
C1486  H1528   1.108   .     S
C1486  H1527   1.115   .     S
C1486  O1548   1.411   .     S
C1487  H1530   1.115   .     S
C1487  O1534   1.410   .     S
C1487  H1504   1.109   .     S
C1487  H755    1.110   1_556 S
C1488  O1535   1.410   .     S
C1488  H1506   1.115   .     S
C1488  H1507   1.109   .     S
C1488  H731    1.110   1_556 S
C1489  O1547   1.296   .     A
C1489  O1544   1.297   .     A
C1490  H1509   1.108   .     S
C1490  O1536   1.411   .     S
C1490  H1508   1.115   .     S
C1491  H1511   1.112   .     S
C1491  H1512   1.109   .     S
C1491  H1513   1.113   .     S
C1491  O1537   1.410   .     S
C1492  H1516   1.114   .     S
C1492  H1515   1.109   .     S
C1492  O1538   1.410   .     S
C1492  H1517   1.113   .     S
C1493  H1520   1.112   .     S
C1493  H1518   1.113   .     S
C1493  O1539   1.413   .     S
C1493  H1519   1.109   .     S
C1494  H1523   1.112   .     S
C1494  H1522   1.112   .     S
C1494  O1540   1.413   .     S
C1494  H1521   1.109   .     S
C1495  O1545   1.286   .     A
C1495  O1546   1.287   .     A
C1496  N1532   1.366   .     A
C1496  H1503   1.082   .     S
C1497  N1531   1.366   .     A
C1497  H1514   1.082   .     S
C1497  C982    1.413   1_565 S
C1498  H1524   1.081   .     S
C1498  N1532   1.366   .     A
C1499  N1531   1.365   .     A
C1499  H1525   1.081   .     S
C1499  C980    1.413   1_565 S
C1500  O1537   1.385   .     S
Cu1501 Cu1502  2.667   .     S
Cu1501 N1531   2.004   .     S
Cu1501 O1544   1.963   .     S
Cu1501 O1546   1.961   .     S
Cu1501 O1542   1.971   .     S
Cu1501 O1533   1.975   .     S
Cu1502 N1532   2.004   .     S
Cu1502 O1545   1.963   .     S
Cu1502 O1547   1.961   .     S
Cu1502 O1541   1.975   .     S
Cu1502 O1543   1.971   .     S
H1510  C716    1.110   1_556 S
H1526  C712    1.109   1_556 S
