data_str_m1_o10_o16_pcu_sym.93
_audit_creation_date              2020-01-03
_audit_creation_method            'Materials Studio'
_symmetry_space_group_name_H-M    'P1'
_symmetry_Int_Tables_number       1
_symmetry_cell_setting            triclinic
loop_
_symmetry_equiv_pos_as_xyz
  x,y,z
_cell_length_a                    32.7043
_cell_length_b                    32.6379
_cell_length_c                    30.9272
_cell_angle_alpha                 96.4309
_cell_angle_beta                  74.3834
_cell_angle_gamma                 98.2070
loop_
_atom_site_label
_atom_site_type_symbol
_atom_site_fract_x
_atom_site_fract_y
_atom_site_fract_z
_atom_site_U_iso_or_equiv
_atom_site_adp_type
_atom_site_occupancy
Br1    Br    0.30863   0.12482   0.31417   0.00000  Uiso   1.00
Br2    Br    0.10012   0.32752   0.31020   0.00000  Uiso   1.00
Br3    Br    0.02312   0.20070   0.01583   0.00000  Uiso   1.00
Br4    Br    0.24405   0.21350   0.37698   0.00000  Uiso   1.00
C5     C     0.05309   0.16000   0.25979   0.00000  Uiso   1.00
C6     C     0.16714   0.15644   0.05949   0.00000  Uiso   1.00
C7     C     0.23158   0.12643   0.05563   0.00000  Uiso   1.00
C8     C     0.28073   0.17376   0.24023   0.00000  Uiso   1.00
C9     C     0.13960   0.19147   0.42038   0.00000  Uiso   1.00
C10    C     0.32637   0.17613   0.23662   0.00000  Uiso   1.00
C11    C     0.00804   0.15714   0.26496   0.00000  Uiso   1.00
C12    C     0.17959   0.32243   0.23792   0.00000  Uiso   1.00
C13    C     0.15090   0.01259   0.26496   0.00000  Uiso   1.00
C14    C     0.15680   0.05608   0.25964   0.00000  Uiso   1.00
C15    C     0.17634   0.27791   0.24044   0.00000  Uiso   1.00
C16    C     0.08121   0.19086   0.48786   0.00000  Uiso   1.00
C17    C     0.18550   0.14829   0.12935   0.00000  Uiso   1.00
C18    C     0.14933   0.18552   0.37087   0.00000  Uiso   1.00
C19    C     0.24414   0.12849   0.00910   0.00000  Uiso   1.00
C20    C     0.19398   0.14186   0.08076   0.00000  Uiso   1.00
C21    C     0.09849   0.20053   0.44358   0.00000  Uiso   1.00
C22    C     0.10478   0.17127   0.00949   0.00000  Uiso   1.00
C23    C     0.14941   0.16924   0.48962   0.00000  Uiso   1.00
C24    C     0.16705   0.18040   0.44447   0.00000  Uiso   1.00
C25    C     0.17715   0.15593   0.01237   0.00000  Uiso   1.00
C26    C     0.21846   0.14608   0.48771   0.00000  Uiso   1.00
C27    C     0.23518   0.15863   0.44412   0.00000  Uiso   1.00
C28    C     0.21142   0.17946   0.42463   0.00000  Uiso   1.00
Cl29   Cl    0.29290   0.11010   0.47928   0.00000  Uiso   1.00
Cl30   Cl    0.07482   0.14245   0.05534   0.00000  Uiso   1.00
Cl31   Cl    0.02846   0.20471   0.19332   0.00000  Uiso   1.00
H32    H     0.25226   0.11493   0.07245   0.00000  Uiso   1.00
H33    H     0.20652   0.00347   0.21308   0.00000  Uiso   1.00
H34    H     0.26840   0.15653   0.42683   0.00000  Uiso   1.00
H35    H     0.14093   0.17201   0.08047   0.00000  Uiso   1.00
H36    H     0.07796   0.21126   0.42603   0.00000  Uiso   1.00
O37    O     0.16667   0.16667   0.25000   0.00000  Uiso   1.00
O38    O     0.15451   0.12637   0.15459   0.00000  Uiso   1.00
O39    O     0.12940   0.20391   0.34968   0.00000  Uiso   1.00
O40    O     0.20824   0.17759   0.14606   0.00000  Uiso   1.00
O41    O     0.17451   0.15880   0.34968   0.00000  Uiso   1.00
O42    O     0.17930   0.08019   0.28214   0.00000  Uiso   1.00
O43    O     0.14632   0.26085   0.27014   0.00000  Uiso   1.00
O44    O     0.07412   0.13291   0.23413   0.00000  Uiso   1.00
O45    O     0.26693   0.19272   0.21361   0.00000  Uiso   1.00
O46    O     0.07071   0.18878   0.28213   0.00000  Uiso   1.00
O47    O     0.25491   0.15226   0.27014   0.00000  Uiso   1.00
O48    O     0.13760   0.06944   0.23413   0.00000  Uiso   1.00
O49    O     0.20345   0.25620   0.21361   0.00000  Uiso   1.00
Zn50   Zn    0.19338   0.13994   0.28734   0.00000  Uiso   1.00
Zn51   Zn    0.13379   0.12458   0.21876   0.00000  Uiso   1.00
Zn52   Zn    0.21056   0.19775   0.20657   0.00000  Uiso   1.00
Zn53   Zn    0.12893   0.20439   0.28734   0.00000  Uiso   1.00
Br54   Br    0.64196   0.12482   0.31417   0.00000  Uiso   1.00
Br55   Br    0.43346   0.32752   0.31020   0.00000  Uiso   1.00
Br56   Br    0.35645   0.20070   0.01583   0.00000  Uiso   1.00
Br57   Br    0.57738   0.21350   0.37698   0.00000  Uiso   1.00
C58    C     0.38642   0.16000   0.25979   0.00000  Uiso   1.00
C59    C     0.50047   0.15644   0.05949   0.00000  Uiso   1.00
C60    C     0.56491   0.12643   0.05563   0.00000  Uiso   1.00
C61    C     0.61406   0.17376   0.24023   0.00000  Uiso   1.00
C62    C     0.47294   0.19147   0.42038   0.00000  Uiso   1.00
C63    C     0.65970   0.17613   0.23662   0.00000  Uiso   1.00
C64    C     0.34137   0.15714   0.26496   0.00000  Uiso   1.00
C65    C     0.51292   0.32243   0.23792   0.00000  Uiso   1.00
C66    C     0.48423   0.01259   0.26496   0.00000  Uiso   1.00
C67    C     0.49013   0.05608   0.25964   0.00000  Uiso   1.00
C68    C     0.50967   0.27791   0.24044   0.00000  Uiso   1.00
C69    C     0.41455   0.19086   0.48786   0.00000  Uiso   1.00
C70    C     0.51883   0.14829   0.12935   0.00000  Uiso   1.00
C71    C     0.48266   0.18552   0.37087   0.00000  Uiso   1.00
C72    C     0.57747   0.12849   0.00910   0.00000  Uiso   1.00
C73    C     0.52731   0.14186   0.08076   0.00000  Uiso   1.00
C74    C     0.43182   0.20053   0.44358   0.00000  Uiso   1.00
C75    C     0.43811   0.17127   0.00949   0.00000  Uiso   1.00
C76    C     0.48275   0.16924   0.48962   0.00000  Uiso   1.00
C77    C     0.50038   0.18040   0.44447   0.00000  Uiso   1.00
C78    C     0.51048   0.15593   0.01237   0.00000  Uiso   1.00
C79    C     0.55179   0.14608   0.48771   0.00000  Uiso   1.00
C80    C     0.56851   0.15863   0.44412   0.00000  Uiso   1.00
C81    C     0.54475   0.17946   0.42463   0.00000  Uiso   1.00
Cl82   Cl    0.62623   0.11010   0.47928   0.00000  Uiso   1.00
Cl83   Cl    0.40816   0.14245   0.05534   0.00000  Uiso   1.00
Cl84   Cl    0.36180   0.20471   0.19332   0.00000  Uiso   1.00
H85    H     0.58559   0.11493   0.07245   0.00000  Uiso   1.00
H86    H     0.53985   0.00347   0.21308   0.00000  Uiso   1.00
H87    H     0.60174   0.15653   0.42683   0.00000  Uiso   1.00
H88    H     0.47426   0.17201   0.08047   0.00000  Uiso   1.00
H89    H     0.41129   0.21126   0.42603   0.00000  Uiso   1.00
O90    O     0.50000   0.16667   0.25000   0.00000  Uiso   1.00
O91    O     0.48784   0.12637   0.15459   0.00000  Uiso   1.00
O92    O     0.46274   0.20391   0.34968   0.00000  Uiso   1.00
O93    O     0.54157   0.17759   0.14606   0.00000  Uiso   1.00
O94    O     0.50785   0.15880   0.34968   0.00000  Uiso   1.00
O95    O     0.51264   0.08019   0.28214   0.00000  Uiso   1.00
O96    O     0.47965   0.26085   0.27014   0.00000  Uiso   1.00
O97    O     0.40745   0.13291   0.23413   0.00000  Uiso   1.00
O98    O     0.60026   0.19272   0.21361   0.00000  Uiso   1.00
O99    O     0.40405   0.18878   0.28213   0.00000  Uiso   1.00
O100   O     0.58824   0.15226   0.27014   0.00000  Uiso   1.00
O101   O     0.47093   0.06944   0.23413   0.00000  Uiso   1.00
O102   O     0.53678   0.25620   0.21361   0.00000  Uiso   1.00
Zn103  Zn    0.52672   0.13994   0.28734   0.00000  Uiso   1.00
Zn104  Zn    0.46713   0.12458   0.21876   0.00000  Uiso   1.00
Zn105  Zn    0.54389   0.19775   0.20657   0.00000  Uiso   1.00
Zn106  Zn    0.46226   0.20439   0.28734   0.00000  Uiso   1.00
Br107  Br    0.97530   0.12482   0.31417   0.00000  Uiso   1.00
Br108  Br    0.76679   0.32752   0.31020   0.00000  Uiso   1.00
Br109  Br    0.68978   0.20070   0.01583   0.00000  Uiso   1.00
Br110  Br    0.91071   0.21350   0.37698   0.00000  Uiso   1.00
C111   C     0.71975   0.16000   0.25979   0.00000  Uiso   1.00
C112   C     0.83381   0.15644   0.05949   0.00000  Uiso   1.00
C113   C     0.89825   0.12643   0.05563   0.00000  Uiso   1.00
C114   C     0.94739   0.17376   0.24023   0.00000  Uiso   1.00
C115   C     0.80627   0.19147   0.42038   0.00000  Uiso   1.00
C116   C     0.99303   0.17613   0.23662   0.00000  Uiso   1.00
C117   C     0.67471   0.15714   0.26496   0.00000  Uiso   1.00
C118   C     0.84626   0.32243   0.23792   0.00000  Uiso   1.00
C119   C     0.81756   0.01259   0.26496   0.00000  Uiso   1.00
C120   C     0.82346   0.05608   0.25964   0.00000  Uiso   1.00
C121   C     0.84300   0.27791   0.24044   0.00000  Uiso   1.00
C122   C     0.74788   0.19086   0.48786   0.00000  Uiso   1.00
C123   C     0.85216   0.14829   0.12935   0.00000  Uiso   1.00
C124   C     0.81599   0.18552   0.37087   0.00000  Uiso   1.00
C125   C     0.91081   0.12849   0.00910   0.00000  Uiso   1.00
C126   C     0.86064   0.14186   0.08076   0.00000  Uiso   1.00
C127   C     0.76515   0.20053   0.44358   0.00000  Uiso   1.00
C128   C     0.77144   0.17127   0.00949   0.00000  Uiso   1.00
C129   C     0.81608   0.16924   0.48962   0.00000  Uiso   1.00
C130   C     0.83371   0.18040   0.44447   0.00000  Uiso   1.00
C131   C     0.84382   0.15593   0.01237   0.00000  Uiso   1.00
C132   C     0.88512   0.14608   0.48771   0.00000  Uiso   1.00
C133   C     0.90185   0.15863   0.44412   0.00000  Uiso   1.00
C134   C     0.87808   0.17946   0.42463   0.00000  Uiso   1.00
Cl135  Cl    0.95957   0.11010   0.47928   0.00000  Uiso   1.00
Cl136  Cl    0.74149   0.14245   0.05534   0.00000  Uiso   1.00
Cl137  Cl    0.69513   0.20471   0.19332   0.00000  Uiso   1.00
H138   H     0.91892   0.11493   0.07245   0.00000  Uiso   1.00
H139   H     0.87318   0.00347   0.21308   0.00000  Uiso   1.00
H140   H     0.93507   0.15653   0.42683   0.00000  Uiso   1.00
H141   H     0.80760   0.17201   0.08047   0.00000  Uiso   1.00
H142   H     0.74462   0.21126   0.42603   0.00000  Uiso   1.00
O143   O     0.83333   0.16667   0.25000   0.00000  Uiso   1.00
O144   O     0.82118   0.12637   0.15459   0.00000  Uiso   1.00
O145   O     0.79607   0.20391   0.34968   0.00000  Uiso   1.00
O146   O     0.87491   0.17759   0.14606   0.00000  Uiso   1.00
O147   O     0.84118   0.15880   0.34968   0.00000  Uiso   1.00
O148   O     0.84597   0.08019   0.28214   0.00000  Uiso   1.00
O149   O     0.81298   0.26085   0.27014   0.00000  Uiso   1.00
O150   O     0.74078   0.13291   0.23413   0.00000  Uiso   1.00
O151   O     0.93360   0.19272   0.21361   0.00000  Uiso   1.00
O152   O     0.73738   0.18878   0.28213   0.00000  Uiso   1.00
O153   O     0.92158   0.15226   0.27014   0.00000  Uiso   1.00
O154   O     0.80426   0.06944   0.23413   0.00000  Uiso   1.00
O155   O     0.87012   0.25620   0.21361   0.00000  Uiso   1.00
Zn156  Zn    0.86005   0.13994   0.28734   0.00000  Uiso   1.00
Zn157  Zn    0.80046   0.12458   0.21876   0.00000  Uiso   1.00
Zn158  Zn    0.87723   0.19775   0.20657   0.00000  Uiso   1.00
Zn159  Zn    0.79560   0.20439   0.28734   0.00000  Uiso   1.00
Br160  Br    0.30863   0.45816   0.31417   0.00000  Uiso   1.00
Br161  Br    0.10012   0.66086   0.31020   0.00000  Uiso   1.00
Br162  Br    0.02312   0.53404   0.01583   0.00000  Uiso   1.00
Br163  Br    0.24405   0.54684   0.37698   0.00000  Uiso   1.00
C164   C     0.05309   0.49334   0.25979   0.00000  Uiso   1.00
C165   C     0.16714   0.48978   0.05949   0.00000  Uiso   1.00
C166   C     0.23158   0.45976   0.05563   0.00000  Uiso   1.00
C167   C     0.28073   0.50709   0.24023   0.00000  Uiso   1.00
C168   C     0.13960   0.52480   0.42038   0.00000  Uiso   1.00
C169   C     0.32637   0.50947   0.23662   0.00000  Uiso   1.00
C170   C     0.00804   0.49047   0.26496   0.00000  Uiso   1.00
C171   C     0.17959   0.65576   0.23792   0.00000  Uiso   1.00
C172   C     0.15090   0.34593   0.26496   0.00000  Uiso   1.00
C173   C     0.15680   0.38941   0.25964   0.00000  Uiso   1.00
C174   C     0.17634   0.61124   0.24044   0.00000  Uiso   1.00
C175   C     0.08121   0.52420   0.48786   0.00000  Uiso   1.00
C176   C     0.18550   0.48162   0.12935   0.00000  Uiso   1.00
C177   C     0.14933   0.51886   0.37087   0.00000  Uiso   1.00
C178   C     0.24414   0.46182   0.00910   0.00000  Uiso   1.00
C179   C     0.19398   0.47519   0.08076   0.00000  Uiso   1.00
C180   C     0.09849   0.53386   0.44358   0.00000  Uiso   1.00
C181   C     0.10478   0.50461   0.00949   0.00000  Uiso   1.00
C182   C     0.14941   0.50257   0.48962   0.00000  Uiso   1.00
C183   C     0.16705   0.51373   0.44447   0.00000  Uiso   1.00
C184   C     0.17715   0.48926   0.01237   0.00000  Uiso   1.00
C185   C     0.21846   0.47941   0.48771   0.00000  Uiso   1.00
C186   C     0.23518   0.49197   0.44412   0.00000  Uiso   1.00
C187   C     0.21142   0.51280   0.42463   0.00000  Uiso   1.00
Cl188  Cl    0.29290   0.44344   0.47928   0.00000  Uiso   1.00
Cl189  Cl    0.07482   0.47579   0.05534   0.00000  Uiso   1.00
Cl190  Cl    0.02846   0.53804   0.19332   0.00000  Uiso   1.00
H191   H     0.25226   0.44826   0.07245   0.00000  Uiso   1.00
H192   H     0.20652   0.33681   0.21308   0.00000  Uiso   1.00
H193   H     0.26840   0.48986   0.42683   0.00000  Uiso   1.00
H194   H     0.14093   0.50534   0.08047   0.00000  Uiso   1.00
H195   H     0.07796   0.54459   0.42603   0.00000  Uiso   1.00
O196   O     0.16667   0.50000   0.25000   0.00000  Uiso   1.00
O197   O     0.15451   0.45970   0.15459   0.00000  Uiso   1.00
O198   O     0.12940   0.53724   0.34968   0.00000  Uiso   1.00
O199   O     0.20824   0.51092   0.14606   0.00000  Uiso   1.00
O200   O     0.17451   0.49213   0.34968   0.00000  Uiso   1.00
O201   O     0.17930   0.41352   0.28214   0.00000  Uiso   1.00
O202   O     0.14632   0.59418   0.27014   0.00000  Uiso   1.00
O203   O     0.07412   0.46625   0.23413   0.00000  Uiso   1.00
O204   O     0.26693   0.52605   0.21361   0.00000  Uiso   1.00
O205   O     0.07071   0.52211   0.28213   0.00000  Uiso   1.00
O206   O     0.25491   0.48559   0.27014   0.00000  Uiso   1.00
O207   O     0.13760   0.40277   0.23413   0.00000  Uiso   1.00
O208   O     0.20345   0.58953   0.21361   0.00000  Uiso   1.00
Zn209  Zn    0.19338   0.47327   0.28734   0.00000  Uiso   1.00
Zn210  Zn    0.13379   0.45791   0.21876   0.00000  Uiso   1.00
Zn211  Zn    0.21056   0.53109   0.20657   0.00000  Uiso   1.00
Zn212  Zn    0.12893   0.53773   0.28734   0.00000  Uiso   1.00
Br213  Br    0.64196   0.45816   0.31417   0.00000  Uiso   1.00
Br214  Br    0.43346   0.66086   0.31020   0.00000  Uiso   1.00
Br215  Br    0.35645   0.53404   0.01583   0.00000  Uiso   1.00
Br216  Br    0.57738   0.54684   0.37698   0.00000  Uiso   1.00
C217   C     0.38642   0.49334   0.25979   0.00000  Uiso   1.00
C218   C     0.50047   0.48978   0.05949   0.00000  Uiso   1.00
C219   C     0.56491   0.45976   0.05563   0.00000  Uiso   1.00
C220   C     0.61406   0.50709   0.24023   0.00000  Uiso   1.00
C221   C     0.47294   0.52480   0.42038   0.00000  Uiso   1.00
C222   C     0.65970   0.50947   0.23662   0.00000  Uiso   1.00
C223   C     0.34137   0.49047   0.26496   0.00000  Uiso   1.00
C224   C     0.51292   0.65576   0.23792   0.00000  Uiso   1.00
C225   C     0.48423   0.34593   0.26496   0.00000  Uiso   1.00
C226   C     0.49013   0.38941   0.25964   0.00000  Uiso   1.00
C227   C     0.50967   0.61124   0.24044   0.00000  Uiso   1.00
C228   C     0.41455   0.52420   0.48786   0.00000  Uiso   1.00
C229   C     0.51883   0.48162   0.12935   0.00000  Uiso   1.00
C230   C     0.48266   0.51886   0.37087   0.00000  Uiso   1.00
C231   C     0.57747   0.46182   0.00910   0.00000  Uiso   1.00
C232   C     0.52731   0.47519   0.08076   0.00000  Uiso   1.00
C233   C     0.43182   0.53386   0.44358   0.00000  Uiso   1.00
C234   C     0.43811   0.50461   0.00949   0.00000  Uiso   1.00
C235   C     0.48275   0.50257   0.48962   0.00000  Uiso   1.00
C236   C     0.50038   0.51373   0.44447   0.00000  Uiso   1.00
C237   C     0.51048   0.48926   0.01237   0.00000  Uiso   1.00
C238   C     0.55179   0.47941   0.48771   0.00000  Uiso   1.00
C239   C     0.56851   0.49197   0.44412   0.00000  Uiso   1.00
C240   C     0.54475   0.51280   0.42463   0.00000  Uiso   1.00
Cl241  Cl    0.62623   0.44344   0.47928   0.00000  Uiso   1.00
Cl242  Cl    0.40816   0.47579   0.05534   0.00000  Uiso   1.00
Cl243  Cl    0.36180   0.53804   0.19332   0.00000  Uiso   1.00
H244   H     0.58559   0.44826   0.07245   0.00000  Uiso   1.00
H245   H     0.53985   0.33681   0.21308   0.00000  Uiso   1.00
H246   H     0.60174   0.48986   0.42683   0.00000  Uiso   1.00
H247   H     0.47426   0.50534   0.08047   0.00000  Uiso   1.00
H248   H     0.41129   0.54459   0.42603   0.00000  Uiso   1.00
O249   O     0.50000   0.50000   0.25000   0.00000  Uiso   1.00
O250   O     0.48784   0.45970   0.15459   0.00000  Uiso   1.00
O251   O     0.46274   0.53724   0.34968   0.00000  Uiso   1.00
O252   O     0.54157   0.51092   0.14606   0.00000  Uiso   1.00
O253   O     0.50785   0.49213   0.34968   0.00000  Uiso   1.00
O254   O     0.51264   0.41352   0.28214   0.00000  Uiso   1.00
O255   O     0.47965   0.59418   0.27014   0.00000  Uiso   1.00
O256   O     0.40745   0.46625   0.23413   0.00000  Uiso   1.00
O257   O     0.60026   0.52605   0.21361   0.00000  Uiso   1.00
O258   O     0.40405   0.52211   0.28213   0.00000  Uiso   1.00
O259   O     0.58824   0.48559   0.27014   0.00000  Uiso   1.00
O260   O     0.47093   0.40277   0.23413   0.00000  Uiso   1.00
O261   O     0.53678   0.58953   0.21361   0.00000  Uiso   1.00
Zn262  Zn    0.52672   0.47327   0.28734   0.00000  Uiso   1.00
Zn263  Zn    0.46713   0.45791   0.21876   0.00000  Uiso   1.00
Zn264  Zn    0.54389   0.53109   0.20657   0.00000  Uiso   1.00
Zn265  Zn    0.46226   0.53773   0.28734   0.00000  Uiso   1.00
Br266  Br    0.97530   0.45816   0.31417   0.00000  Uiso   1.00
Br267  Br    0.76679   0.66086   0.31020   0.00000  Uiso   1.00
Br268  Br    0.68978   0.53404   0.01583   0.00000  Uiso   1.00
Br269  Br    0.91071   0.54684   0.37698   0.00000  Uiso   1.00
C270   C     0.71975   0.49334   0.25979   0.00000  Uiso   1.00
C271   C     0.83381   0.48978   0.05949   0.00000  Uiso   1.00
C272   C     0.89825   0.45976   0.05563   0.00000  Uiso   1.00
C273   C     0.94739   0.50709   0.24023   0.00000  Uiso   1.00
C274   C     0.80627   0.52480   0.42038   0.00000  Uiso   1.00
C275   C     0.99303   0.50947   0.23662   0.00000  Uiso   1.00
C276   C     0.67471   0.49047   0.26496   0.00000  Uiso   1.00
C277   C     0.84626   0.65576   0.23792   0.00000  Uiso   1.00
C278   C     0.81756   0.34593   0.26496   0.00000  Uiso   1.00
C279   C     0.82346   0.38941   0.25964   0.00000  Uiso   1.00
C280   C     0.84300   0.61124   0.24044   0.00000  Uiso   1.00
C281   C     0.74788   0.52420   0.48786   0.00000  Uiso   1.00
C282   C     0.85216   0.48162   0.12935   0.00000  Uiso   1.00
C283   C     0.81599   0.51886   0.37087   0.00000  Uiso   1.00
C284   C     0.91081   0.46182   0.00910   0.00000  Uiso   1.00
C285   C     0.86064   0.47519   0.08076   0.00000  Uiso   1.00
C286   C     0.76515   0.53386   0.44358   0.00000  Uiso   1.00
C287   C     0.77144   0.50461   0.00949   0.00000  Uiso   1.00
C288   C     0.81608   0.50257   0.48962   0.00000  Uiso   1.00
C289   C     0.83371   0.51373   0.44447   0.00000  Uiso   1.00
C290   C     0.84382   0.48926   0.01237   0.00000  Uiso   1.00
C291   C     0.88512   0.47941   0.48771   0.00000  Uiso   1.00
C292   C     0.90185   0.49197   0.44412   0.00000  Uiso   1.00
C293   C     0.87808   0.51280   0.42463   0.00000  Uiso   1.00
Cl294  Cl    0.95957   0.44344   0.47928   0.00000  Uiso   1.00
Cl295  Cl    0.74149   0.47579   0.05534   0.00000  Uiso   1.00
Cl296  Cl    0.69513   0.53804   0.19332   0.00000  Uiso   1.00
H297   H     0.91892   0.44826   0.07245   0.00000  Uiso   1.00
H298   H     0.87318   0.33681   0.21308   0.00000  Uiso   1.00
H299   H     0.93507   0.48986   0.42683   0.00000  Uiso   1.00
H300   H     0.80760   0.50534   0.08047   0.00000  Uiso   1.00
H301   H     0.74462   0.54459   0.42603   0.00000  Uiso   1.00
O302   O     0.83333   0.50000   0.25000   0.00000  Uiso   1.00
O303   O     0.82118   0.45970   0.15459   0.00000  Uiso   1.00
O304   O     0.79607   0.53724   0.34968   0.00000  Uiso   1.00
O305   O     0.87491   0.51092   0.14606   0.00000  Uiso   1.00
O306   O     0.84118   0.49213   0.34968   0.00000  Uiso   1.00
O307   O     0.84597   0.41352   0.28214   0.00000  Uiso   1.00
O308   O     0.81298   0.59418   0.27014   0.00000  Uiso   1.00
O309   O     0.74078   0.46625   0.23413   0.00000  Uiso   1.00
O310   O     0.93360   0.52605   0.21361   0.00000  Uiso   1.00
O311   O     0.73738   0.52211   0.28213   0.00000  Uiso   1.00
O312   O     0.92158   0.48559   0.27014   0.00000  Uiso   1.00
O313   O     0.80426   0.40277   0.23413   0.00000  Uiso   1.00
O314   O     0.87012   0.58953   0.21361   0.00000  Uiso   1.00
Zn315  Zn    0.86005   0.47327   0.28734   0.00000  Uiso   1.00
Zn316  Zn    0.80046   0.45791   0.21876   0.00000  Uiso   1.00
Zn317  Zn    0.87723   0.53109   0.20657   0.00000  Uiso   1.00
Zn318  Zn    0.79560   0.53773   0.28734   0.00000  Uiso   1.00
Br319  Br    0.30863   0.79149   0.31417   0.00000  Uiso   1.00
Br320  Br    0.10012   0.99419   0.31020   0.00000  Uiso   1.00
Br321  Br    0.02312   0.86737   0.01583   0.00000  Uiso   1.00
Br322  Br    0.24405   0.88017   0.37698   0.00000  Uiso   1.00
C323   C     0.05309   0.82667   0.25979   0.00000  Uiso   1.00
C324   C     0.16714   0.82311   0.05949   0.00000  Uiso   1.00
C325   C     0.23158   0.79309   0.05563   0.00000  Uiso   1.00
C326   C     0.28073   0.84043   0.24023   0.00000  Uiso   1.00
C327   C     0.13960   0.85813   0.42038   0.00000  Uiso   1.00
C328   C     0.32637   0.84280   0.23662   0.00000  Uiso   1.00
C329   C     0.00804   0.82381   0.26496   0.00000  Uiso   1.00
C330   C     0.17959   0.98910   0.23792   0.00000  Uiso   1.00
C331   C     0.15090   0.67926   0.26496   0.00000  Uiso   1.00
C332   C     0.15680   0.72274   0.25964   0.00000  Uiso   1.00
C333   C     0.17634   0.94457   0.24044   0.00000  Uiso   1.00
C334   C     0.08121   0.85753   0.48786   0.00000  Uiso   1.00
C335   C     0.18550   0.81495   0.12935   0.00000  Uiso   1.00
C336   C     0.14933   0.85219   0.37087   0.00000  Uiso   1.00
C337   C     0.24414   0.79516   0.00910   0.00000  Uiso   1.00
C338   C     0.19398   0.80852   0.08076   0.00000  Uiso   1.00
C339   C     0.09849   0.86719   0.44358   0.00000  Uiso   1.00
C340   C     0.10478   0.83794   0.00949   0.00000  Uiso   1.00
C341   C     0.14941   0.83591   0.48962   0.00000  Uiso   1.00
C342   C     0.16705   0.84707   0.44447   0.00000  Uiso   1.00
C343   C     0.17715   0.82260   0.01237   0.00000  Uiso   1.00
C344   C     0.21846   0.81274   0.48771   0.00000  Uiso   1.00
C345   C     0.23518   0.82530   0.44412   0.00000  Uiso   1.00
C346   C     0.21142   0.84613   0.42463   0.00000  Uiso   1.00
Cl347  Cl    0.29290   0.77677   0.47928   0.00000  Uiso   1.00
Cl348  Cl    0.07482   0.80912   0.05534   0.00000  Uiso   1.00
Cl349  Cl    0.02846   0.87138   0.19332   0.00000  Uiso   1.00
H350   H     0.25226   0.78159   0.07245   0.00000  Uiso   1.00
H351   H     0.20652   0.67014   0.21308   0.00000  Uiso   1.00
H352   H     0.26840   0.82320   0.42683   0.00000  Uiso   1.00
H353   H     0.14093   0.83867   0.08047   0.00000  Uiso   1.00
H354   H     0.07796   0.87792   0.42603   0.00000  Uiso   1.00
O355   O     0.16667   0.83333   0.25000   0.00000  Uiso   1.00
O356   O     0.15451   0.79304   0.15459   0.00000  Uiso   1.00
O357   O     0.12940   0.87058   0.34968   0.00000  Uiso   1.00
O358   O     0.20824   0.84425   0.14606   0.00000  Uiso   1.00
O359   O     0.17451   0.82546   0.34968   0.00000  Uiso   1.00
O360   O     0.17930   0.74686   0.28214   0.00000  Uiso   1.00
O361   O     0.14632   0.92751   0.27014   0.00000  Uiso   1.00
O362   O     0.07412   0.79958   0.23413   0.00000  Uiso   1.00
O363   O     0.26693   0.85939   0.21361   0.00000  Uiso   1.00
O364   O     0.07071   0.85544   0.28213   0.00000  Uiso   1.00
O365   O     0.25491   0.81892   0.27014   0.00000  Uiso   1.00
O366   O     0.13760   0.73610   0.23413   0.00000  Uiso   1.00
O367   O     0.20345   0.92286   0.21361   0.00000  Uiso   1.00
Zn368  Zn    0.19338   0.80661   0.28734   0.00000  Uiso   1.00
Zn369  Zn    0.13379   0.79124   0.21876   0.00000  Uiso   1.00
Zn370  Zn    0.21056   0.86442   0.20657   0.00000  Uiso   1.00
Zn371  Zn    0.12893   0.87106   0.28734   0.00000  Uiso   1.00
Br372  Br    0.64196   0.79149   0.31417   0.00000  Uiso   1.00
Br373  Br    0.43346   0.99419   0.31020   0.00000  Uiso   1.00
Br374  Br    0.35645   0.86737   0.01583   0.00000  Uiso   1.00
Br375  Br    0.57738   0.88017   0.37698   0.00000  Uiso   1.00
C376   C     0.38642   0.82667   0.25979   0.00000  Uiso   1.00
C377   C     0.50047   0.82311   0.05949   0.00000  Uiso   1.00
C378   C     0.56491   0.79309   0.05563   0.00000  Uiso   1.00
C379   C     0.61406   0.84043   0.24023   0.00000  Uiso   1.00
C380   C     0.47294   0.85813   0.42038   0.00000  Uiso   1.00
C381   C     0.65970   0.84280   0.23662   0.00000  Uiso   1.00
C382   C     0.34137   0.82381   0.26496   0.00000  Uiso   1.00
C383   C     0.51292   0.98910   0.23792   0.00000  Uiso   1.00
C384   C     0.48423   0.67926   0.26496   0.00000  Uiso   1.00
C385   C     0.49013   0.72274   0.25964   0.00000  Uiso   1.00
C386   C     0.50967   0.94457   0.24044   0.00000  Uiso   1.00
C387   C     0.41455   0.85753   0.48786   0.00000  Uiso   1.00
C388   C     0.51883   0.81495   0.12935   0.00000  Uiso   1.00
C389   C     0.48266   0.85219   0.37087   0.00000  Uiso   1.00
C390   C     0.57747   0.79516   0.00910   0.00000  Uiso   1.00
C391   C     0.52731   0.80852   0.08076   0.00000  Uiso   1.00
C392   C     0.43182   0.86719   0.44358   0.00000  Uiso   1.00
C393   C     0.43811   0.83794   0.00949   0.00000  Uiso   1.00
C394   C     0.48275   0.83591   0.48962   0.00000  Uiso   1.00
C395   C     0.50038   0.84707   0.44447   0.00000  Uiso   1.00
C396   C     0.51048   0.82260   0.01237   0.00000  Uiso   1.00
C397   C     0.55179   0.81274   0.48771   0.00000  Uiso   1.00
C398   C     0.56851   0.82530   0.44412   0.00000  Uiso   1.00
C399   C     0.54475   0.84613   0.42463   0.00000  Uiso   1.00
Cl400  Cl    0.62623   0.77677   0.47928   0.00000  Uiso   1.00
Cl401  Cl    0.40816   0.80912   0.05534   0.00000  Uiso   1.00
Cl402  Cl    0.36180   0.87138   0.19332   0.00000  Uiso   1.00
H403   H     0.58559   0.78159   0.07245   0.00000  Uiso   1.00
H404   H     0.53985   0.67014   0.21308   0.00000  Uiso   1.00
H405   H     0.60174   0.82320   0.42683   0.00000  Uiso   1.00
H406   H     0.47426   0.83867   0.08047   0.00000  Uiso   1.00
H407   H     0.41129   0.87792   0.42603   0.00000  Uiso   1.00
O408   O     0.50000   0.83333   0.25000   0.00000  Uiso   1.00
O409   O     0.48784   0.79304   0.15459   0.00000  Uiso   1.00
O410   O     0.46274   0.87058   0.34968   0.00000  Uiso   1.00
O411   O     0.54157   0.84425   0.14606   0.00000  Uiso   1.00
O412   O     0.50785   0.82546   0.34968   0.00000  Uiso   1.00
O413   O     0.51264   0.74686   0.28214   0.00000  Uiso   1.00
O414   O     0.47965   0.92751   0.27014   0.00000  Uiso   1.00
O415   O     0.40745   0.79958   0.23413   0.00000  Uiso   1.00
O416   O     0.60026   0.85939   0.21361   0.00000  Uiso   1.00
O417   O     0.40405   0.85544   0.28213   0.00000  Uiso   1.00
O418   O     0.58824   0.81892   0.27014   0.00000  Uiso   1.00
O419   O     0.47093   0.73610   0.23413   0.00000  Uiso   1.00
O420   O     0.53678   0.92286   0.21361   0.00000  Uiso   1.00
Zn421  Zn    0.52672   0.80661   0.28734   0.00000  Uiso   1.00
Zn422  Zn    0.46713   0.79124   0.21876   0.00000  Uiso   1.00
Zn423  Zn    0.54389   0.86442   0.20657   0.00000  Uiso   1.00
Zn424  Zn    0.46226   0.87106   0.28734   0.00000  Uiso   1.00
Br425  Br    0.97530   0.79149   0.31417   0.00000  Uiso   1.00
Br426  Br    0.76679   0.99419   0.31020   0.00000  Uiso   1.00
Br427  Br    0.68978   0.86737   0.01583   0.00000  Uiso   1.00
Br428  Br    0.91071   0.88017   0.37698   0.00000  Uiso   1.00
C429   C     0.71975   0.82667   0.25979   0.00000  Uiso   1.00
C430   C     0.83381   0.82311   0.05949   0.00000  Uiso   1.00
C431   C     0.89825   0.79309   0.05563   0.00000  Uiso   1.00
C432   C     0.94739   0.84043   0.24023   0.00000  Uiso   1.00
C433   C     0.80627   0.85813   0.42038   0.00000  Uiso   1.00
C434   C     0.99303   0.84280   0.23662   0.00000  Uiso   1.00
C435   C     0.67471   0.82381   0.26496   0.00000  Uiso   1.00
C436   C     0.84626   0.98910   0.23792   0.00000  Uiso   1.00
C437   C     0.81756   0.67926   0.26496   0.00000  Uiso   1.00
C438   C     0.82346   0.72274   0.25964   0.00000  Uiso   1.00
C439   C     0.84300   0.94457   0.24044   0.00000  Uiso   1.00
C440   C     0.74788   0.85753   0.48786   0.00000  Uiso   1.00
C441   C     0.85216   0.81495   0.12935   0.00000  Uiso   1.00
C442   C     0.81599   0.85219   0.37087   0.00000  Uiso   1.00
C443   C     0.91081   0.79516   0.00910   0.00000  Uiso   1.00
C444   C     0.86064   0.80852   0.08076   0.00000  Uiso   1.00
C445   C     0.76515   0.86719   0.44358   0.00000  Uiso   1.00
C446   C     0.77144   0.83794   0.00949   0.00000  Uiso   1.00
C447   C     0.81608   0.83591   0.48962   0.00000  Uiso   1.00
C448   C     0.83371   0.84707   0.44447   0.00000  Uiso   1.00
C449   C     0.84382   0.82260   0.01237   0.00000  Uiso   1.00
C450   C     0.88512   0.81274   0.48771   0.00000  Uiso   1.00
C451   C     0.90185   0.82530   0.44412   0.00000  Uiso   1.00
C452   C     0.87808   0.84613   0.42463   0.00000  Uiso   1.00
Cl453  Cl    0.95957   0.77677   0.47928   0.00000  Uiso   1.00
Cl454  Cl    0.74149   0.80912   0.05534   0.00000  Uiso   1.00
Cl455  Cl    0.69513   0.87138   0.19332   0.00000  Uiso   1.00
H456   H     0.91892   0.78159   0.07245   0.00000  Uiso   1.00
H457   H     0.87318   0.67014   0.21308   0.00000  Uiso   1.00
H458   H     0.93507   0.82320   0.42683   0.00000  Uiso   1.00
H459   H     0.80760   0.83867   0.08047   0.00000  Uiso   1.00
H460   H     0.74462   0.87792   0.42603   0.00000  Uiso   1.00
O461   O     0.83333   0.83333   0.25000   0.00000  Uiso   1.00
O462   O     0.82118   0.79304   0.15459   0.00000  Uiso   1.00
O463   O     0.79607   0.87058   0.34968   0.00000  Uiso   1.00
O464   O     0.87491   0.84425   0.14606   0.00000  Uiso   1.00
O465   O     0.84118   0.82546   0.34968   0.00000  Uiso   1.00
O466   O     0.84597   0.74686   0.28214   0.00000  Uiso   1.00
O467   O     0.81298   0.92751   0.27014   0.00000  Uiso   1.00
O468   O     0.74078   0.79958   0.23413   0.00000  Uiso   1.00
O469   O     0.93360   0.85939   0.21361   0.00000  Uiso   1.00
O470   O     0.73738   0.85544   0.28213   0.00000  Uiso   1.00
O471   O     0.92158   0.81892   0.27014   0.00000  Uiso   1.00
O472   O     0.80426   0.73610   0.23413   0.00000  Uiso   1.00
O473   O     0.87012   0.92286   0.21361   0.00000  Uiso   1.00
Zn474  Zn    0.86005   0.80661   0.28734   0.00000  Uiso   1.00
Zn475  Zn    0.80046   0.79124   0.21876   0.00000  Uiso   1.00
Zn476  Zn    0.87723   0.86442   0.20657   0.00000  Uiso   1.00
Zn477  Zn    0.79560   0.87106   0.28734   0.00000  Uiso   1.00
Br478  Br    0.30863   0.12482   0.81417   0.00000  Uiso   1.00
Br479  Br    0.10012   0.32752   0.81020   0.00000  Uiso   1.00
Br480  Br    0.02312   0.20070   0.51583   0.00000  Uiso   1.00
Br481  Br    0.24405   0.21350   0.87698   0.00000  Uiso   1.00
C482   C     0.05309   0.16000   0.75979   0.00000  Uiso   1.00
C483   C     0.16714   0.15644   0.55949   0.00000  Uiso   1.00
C484   C     0.23158   0.12643   0.55563   0.00000  Uiso   1.00
C485   C     0.28073   0.17376   0.74023   0.00000  Uiso   1.00
C486   C     0.13960   0.19147   0.92038   0.00000  Uiso   1.00
C487   C     0.32637   0.17613   0.73662   0.00000  Uiso   1.00
C488   C     0.00804   0.15714   0.76496   0.00000  Uiso   1.00
C489   C     0.17959   0.32243   0.73792   0.00000  Uiso   1.00
C490   C     0.15090   0.01259   0.76496   0.00000  Uiso   1.00
C491   C     0.15680   0.05608   0.75964   0.00000  Uiso   1.00
C492   C     0.17634   0.27791   0.74044   0.00000  Uiso   1.00
C493   C     0.08121   0.19086   0.98786   0.00000  Uiso   1.00
C494   C     0.18550   0.14829   0.62935   0.00000  Uiso   1.00
C495   C     0.14933   0.18552   0.87087   0.00000  Uiso   1.00
C496   C     0.24414   0.12849   0.50910   0.00000  Uiso   1.00
C497   C     0.19398   0.14186   0.58076   0.00000  Uiso   1.00
C498   C     0.09849   0.20053   0.94358   0.00000  Uiso   1.00
C499   C     0.10478   0.17127   0.50949   0.00000  Uiso   1.00
C500   C     0.14941   0.16924   0.98962   0.00000  Uiso   1.00
C501   C     0.16705   0.18040   0.94447   0.00000  Uiso   1.00
C502   C     0.17715   0.15593   0.51237   0.00000  Uiso   1.00
C503   C     0.21846   0.14608   0.98771   0.00000  Uiso   1.00
C504   C     0.23518   0.15863   0.94412   0.00000  Uiso   1.00
C505   C     0.21142   0.17946   0.92463   0.00000  Uiso   1.00
Cl506  Cl    0.29290   0.11010   0.97928   0.00000  Uiso   1.00
Cl507  Cl    0.07482   0.14245   0.55534   0.00000  Uiso   1.00
Cl508  Cl    0.02846   0.20471   0.69332   0.00000  Uiso   1.00
H509   H     0.25226   0.11493   0.57245   0.00000  Uiso   1.00
H510   H     0.20652   0.00347   0.71308   0.00000  Uiso   1.00
H511   H     0.26840   0.15653   0.92683   0.00000  Uiso   1.00
H512   H     0.14093   0.17201   0.58047   0.00000  Uiso   1.00
H513   H     0.07796   0.21126   0.92603   0.00000  Uiso   1.00
O514   O     0.16667   0.16667   0.75000   0.00000  Uiso   1.00
O515   O     0.15451   0.12637   0.65459   0.00000  Uiso   1.00
O516   O     0.12940   0.20391   0.84968   0.00000  Uiso   1.00
O517   O     0.20824   0.17759   0.64606   0.00000  Uiso   1.00
O518   O     0.17451   0.15880   0.84968   0.00000  Uiso   1.00
O519   O     0.17930   0.08019   0.78214   0.00000  Uiso   1.00
O520   O     0.14632   0.26085   0.77014   0.00000  Uiso   1.00
O521   O     0.07412   0.13291   0.73413   0.00000  Uiso   1.00
O522   O     0.26693   0.19272   0.71361   0.00000  Uiso   1.00
O523   O     0.07071   0.18878   0.78213   0.00000  Uiso   1.00
O524   O     0.25491   0.15226   0.77014   0.00000  Uiso   1.00
O525   O     0.13760   0.06944   0.73413   0.00000  Uiso   1.00
O526   O     0.20345   0.25620   0.71361   0.00000  Uiso   1.00
Zn527  Zn    0.19338   0.13994   0.78734   0.00000  Uiso   1.00
Zn528  Zn    0.13379   0.12458   0.71876   0.00000  Uiso   1.00
Zn529  Zn    0.21056   0.19775   0.70657   0.00000  Uiso   1.00
Zn530  Zn    0.12893   0.20439   0.78734   0.00000  Uiso   1.00
Br531  Br    0.64196   0.12482   0.81417   0.00000  Uiso   1.00
Br532  Br    0.43346   0.32752   0.81020   0.00000  Uiso   1.00
Br533  Br    0.35645   0.20070   0.51583   0.00000  Uiso   1.00
Br534  Br    0.57738   0.21350   0.87698   0.00000  Uiso   1.00
C535   C     0.38642   0.16000   0.75979   0.00000  Uiso   1.00
C536   C     0.50047   0.15644   0.55949   0.00000  Uiso   1.00
C537   C     0.56491   0.12643   0.55563   0.00000  Uiso   1.00
C538   C     0.61406   0.17376   0.74023   0.00000  Uiso   1.00
C539   C     0.47294   0.19147   0.92038   0.00000  Uiso   1.00
C540   C     0.65970   0.17613   0.73662   0.00000  Uiso   1.00
C541   C     0.34137   0.15714   0.76496   0.00000  Uiso   1.00
C542   C     0.51292   0.32243   0.73792   0.00000  Uiso   1.00
C543   C     0.48423   0.01259   0.76496   0.00000  Uiso   1.00
C544   C     0.49013   0.05608   0.75964   0.00000  Uiso   1.00
C545   C     0.50967   0.27791   0.74044   0.00000  Uiso   1.00
C546   C     0.41455   0.19086   0.98786   0.00000  Uiso   1.00
C547   C     0.51883   0.14829   0.62935   0.00000  Uiso   1.00
C548   C     0.48266   0.18552   0.87087   0.00000  Uiso   1.00
C549   C     0.57747   0.12849   0.50910   0.00000  Uiso   1.00
C550   C     0.52731   0.14186   0.58076   0.00000  Uiso   1.00
C551   C     0.43182   0.20053   0.94358   0.00000  Uiso   1.00
C552   C     0.43811   0.17127   0.50949   0.00000  Uiso   1.00
C553   C     0.48275   0.16924   0.98962   0.00000  Uiso   1.00
C554   C     0.50038   0.18040   0.94447   0.00000  Uiso   1.00
C555   C     0.51048   0.15593   0.51237   0.00000  Uiso   1.00
C556   C     0.55179   0.14608   0.98771   0.00000  Uiso   1.00
C557   C     0.56851   0.15863   0.94412   0.00000  Uiso   1.00
C558   C     0.54475   0.17946   0.92463   0.00000  Uiso   1.00
Cl559  Cl    0.62623   0.11010   0.97928   0.00000  Uiso   1.00
Cl560  Cl    0.40816   0.14245   0.55534   0.00000  Uiso   1.00
Cl561  Cl    0.36180   0.20471   0.69332   0.00000  Uiso   1.00
H562   H     0.58559   0.11493   0.57245   0.00000  Uiso   1.00
H563   H     0.53985   0.00347   0.71308   0.00000  Uiso   1.00
H564   H     0.60174   0.15653   0.92683   0.00000  Uiso   1.00
H565   H     0.47426   0.17201   0.58047   0.00000  Uiso   1.00
H566   H     0.41129   0.21126   0.92603   0.00000  Uiso   1.00
O567   O     0.50000   0.16667   0.75000   0.00000  Uiso   1.00
O568   O     0.48784   0.12637   0.65459   0.00000  Uiso   1.00
O569   O     0.46274   0.20391   0.84968   0.00000  Uiso   1.00
O570   O     0.54157   0.17759   0.64606   0.00000  Uiso   1.00
O571   O     0.50785   0.15880   0.84968   0.00000  Uiso   1.00
O572   O     0.51264   0.08019   0.78214   0.00000  Uiso   1.00
O573   O     0.47965   0.26085   0.77014   0.00000  Uiso   1.00
O574   O     0.40745   0.13291   0.73413   0.00000  Uiso   1.00
O575   O     0.60026   0.19272   0.71361   0.00000  Uiso   1.00
O576   O     0.40405   0.18878   0.78213   0.00000  Uiso   1.00
O577   O     0.58824   0.15226   0.77014   0.00000  Uiso   1.00
O578   O     0.47093   0.06944   0.73413   0.00000  Uiso   1.00
O579   O     0.53678   0.25620   0.71361   0.00000  Uiso   1.00
Zn580  Zn    0.52672   0.13994   0.78734   0.00000  Uiso   1.00
Zn581  Zn    0.46713   0.12458   0.71876   0.00000  Uiso   1.00
Zn582  Zn    0.54389   0.19775   0.70657   0.00000  Uiso   1.00
Zn583  Zn    0.46226   0.20439   0.78734   0.00000  Uiso   1.00
Br584  Br    0.97530   0.12482   0.81417   0.00000  Uiso   1.00
Br585  Br    0.76679   0.32752   0.81020   0.00000  Uiso   1.00
Br586  Br    0.68978   0.20070   0.51583   0.00000  Uiso   1.00
Br587  Br    0.91071   0.21350   0.87698   0.00000  Uiso   1.00
C588   C     0.71975   0.16000   0.75979   0.00000  Uiso   1.00
C589   C     0.83381   0.15644   0.55949   0.00000  Uiso   1.00
C590   C     0.89825   0.12643   0.55563   0.00000  Uiso   1.00
C591   C     0.94739   0.17376   0.74023   0.00000  Uiso   1.00
C592   C     0.80627   0.19147   0.92038   0.00000  Uiso   1.00
C593   C     0.99303   0.17613   0.73662   0.00000  Uiso   1.00
C594   C     0.67471   0.15714   0.76496   0.00000  Uiso   1.00
C595   C     0.84626   0.32243   0.73792   0.00000  Uiso   1.00
C596   C     0.81756   0.01259   0.76496   0.00000  Uiso   1.00
C597   C     0.82346   0.05608   0.75964   0.00000  Uiso   1.00
C598   C     0.84300   0.27791   0.74044   0.00000  Uiso   1.00
C599   C     0.74788   0.19086   0.98786   0.00000  Uiso   1.00
C600   C     0.85216   0.14829   0.62935   0.00000  Uiso   1.00
C601   C     0.81599   0.18552   0.87087   0.00000  Uiso   1.00
C602   C     0.91081   0.12849   0.50910   0.00000  Uiso   1.00
C603   C     0.86064   0.14186   0.58076   0.00000  Uiso   1.00
C604   C     0.76515   0.20053   0.94358   0.00000  Uiso   1.00
C605   C     0.77144   0.17127   0.50949   0.00000  Uiso   1.00
C606   C     0.81608   0.16924   0.98962   0.00000  Uiso   1.00
C607   C     0.83371   0.18040   0.94447   0.00000  Uiso   1.00
C608   C     0.84382   0.15593   0.51237   0.00000  Uiso   1.00
C609   C     0.88512   0.14608   0.98771   0.00000  Uiso   1.00
C610   C     0.90185   0.15863   0.94412   0.00000  Uiso   1.00
C611   C     0.87808   0.17946   0.92463   0.00000  Uiso   1.00
Cl612  Cl    0.95957   0.11010   0.97928   0.00000  Uiso   1.00
Cl613  Cl    0.74149   0.14245   0.55534   0.00000  Uiso   1.00
Cl614  Cl    0.69513   0.20471   0.69332   0.00000  Uiso   1.00
H615   H     0.91892   0.11493   0.57245   0.00000  Uiso   1.00
H616   H     0.87318   0.00347   0.71308   0.00000  Uiso   1.00
H617   H     0.93507   0.15653   0.92683   0.00000  Uiso   1.00
H618   H     0.80760   0.17201   0.58047   0.00000  Uiso   1.00
H619   H     0.74462   0.21126   0.92603   0.00000  Uiso   1.00
O620   O     0.83333   0.16667   0.75000   0.00000  Uiso   1.00
O621   O     0.82118   0.12637   0.65459   0.00000  Uiso   1.00
O622   O     0.79607   0.20391   0.84968   0.00000  Uiso   1.00
O623   O     0.87491   0.17759   0.64606   0.00000  Uiso   1.00
O624   O     0.84118   0.15880   0.84968   0.00000  Uiso   1.00
O625   O     0.84597   0.08019   0.78214   0.00000  Uiso   1.00
O626   O     0.81298   0.26085   0.77014   0.00000  Uiso   1.00
O627   O     0.74078   0.13291   0.73413   0.00000  Uiso   1.00
O628   O     0.93360   0.19272   0.71361   0.00000  Uiso   1.00
O629   O     0.73738   0.18878   0.78213   0.00000  Uiso   1.00
O630   O     0.92158   0.15226   0.77014   0.00000  Uiso   1.00
O631   O     0.80426   0.06944   0.73413   0.00000  Uiso   1.00
O632   O     0.87012   0.25620   0.71361   0.00000  Uiso   1.00
Zn633  Zn    0.86005   0.13994   0.78734   0.00000  Uiso   1.00
Zn634  Zn    0.80046   0.12458   0.71876   0.00000  Uiso   1.00
Zn635  Zn    0.87723   0.19775   0.70657   0.00000  Uiso   1.00
Zn636  Zn    0.79560   0.20439   0.78734   0.00000  Uiso   1.00
Br637  Br    0.30863   0.45816   0.81417   0.00000  Uiso   1.00
Br638  Br    0.10012   0.66086   0.81020   0.00000  Uiso   1.00
Br639  Br    0.02312   0.53404   0.51583   0.00000  Uiso   1.00
Br640  Br    0.24405   0.54684   0.87698   0.00000  Uiso   1.00
C641   C     0.05309   0.49334   0.75979   0.00000  Uiso   1.00
C642   C     0.16714   0.48978   0.55949   0.00000  Uiso   1.00
C643   C     0.23158   0.45976   0.55563   0.00000  Uiso   1.00
C644   C     0.28073   0.50709   0.74023   0.00000  Uiso   1.00
C645   C     0.13960   0.52480   0.92038   0.00000  Uiso   1.00
C646   C     0.32637   0.50947   0.73662   0.00000  Uiso   1.00
C647   C     0.00804   0.49047   0.76496   0.00000  Uiso   1.00
C648   C     0.17959   0.65576   0.73792   0.00000  Uiso   1.00
C649   C     0.15090   0.34593   0.76496   0.00000  Uiso   1.00
C650   C     0.15680   0.38941   0.75964   0.00000  Uiso   1.00
C651   C     0.17634   0.61124   0.74044   0.00000  Uiso   1.00
C652   C     0.08121   0.52420   0.98786   0.00000  Uiso   1.00
C653   C     0.18550   0.48162   0.62935   0.00000  Uiso   1.00
C654   C     0.14933   0.51886   0.87087   0.00000  Uiso   1.00
C655   C     0.24414   0.46182   0.50910   0.00000  Uiso   1.00
C656   C     0.19398   0.47519   0.58076   0.00000  Uiso   1.00
C657   C     0.09849   0.53386   0.94358   0.00000  Uiso   1.00
C658   C     0.10478   0.50461   0.50949   0.00000  Uiso   1.00
C659   C     0.14941   0.50257   0.98962   0.00000  Uiso   1.00
C660   C     0.16705   0.51373   0.94447   0.00000  Uiso   1.00
C661   C     0.17715   0.48926   0.51237   0.00000  Uiso   1.00
C662   C     0.21846   0.47941   0.98771   0.00000  Uiso   1.00
C663   C     0.23518   0.49197   0.94412   0.00000  Uiso   1.00
C664   C     0.21142   0.51280   0.92463   0.00000  Uiso   1.00
Cl665  Cl    0.29290   0.44344   0.97928   0.00000  Uiso   1.00
Cl666  Cl    0.07482   0.47579   0.55534   0.00000  Uiso   1.00
Cl667  Cl    0.02846   0.53804   0.69332   0.00000  Uiso   1.00
H668   H     0.25226   0.44826   0.57245   0.00000  Uiso   1.00
H669   H     0.20652   0.33681   0.71308   0.00000  Uiso   1.00
H670   H     0.26840   0.48986   0.92683   0.00000  Uiso   1.00
H671   H     0.14093   0.50534   0.58047   0.00000  Uiso   1.00
H672   H     0.07796   0.54459   0.92603   0.00000  Uiso   1.00
O673   O     0.16667   0.50000   0.75000   0.00000  Uiso   1.00
O674   O     0.15451   0.45970   0.65459   0.00000  Uiso   1.00
O675   O     0.12940   0.53724   0.84968   0.00000  Uiso   1.00
O676   O     0.20824   0.51092   0.64606   0.00000  Uiso   1.00
O677   O     0.17451   0.49213   0.84968   0.00000  Uiso   1.00
O678   O     0.17930   0.41352   0.78214   0.00000  Uiso   1.00
O679   O     0.14632   0.59418   0.77014   0.00000  Uiso   1.00
O680   O     0.07412   0.46625   0.73413   0.00000  Uiso   1.00
O681   O     0.26693   0.52605   0.71361   0.00000  Uiso   1.00
O682   O     0.07071   0.52211   0.78213   0.00000  Uiso   1.00
O683   O     0.25491   0.48559   0.77014   0.00000  Uiso   1.00
O684   O     0.13760   0.40277   0.73413   0.00000  Uiso   1.00
O685   O     0.20345   0.58953   0.71361   0.00000  Uiso   1.00
Zn686  Zn    0.19338   0.47327   0.78734   0.00000  Uiso   1.00
Zn687  Zn    0.13379   0.45791   0.71876   0.00000  Uiso   1.00
Zn688  Zn    0.21056   0.53109   0.70657   0.00000  Uiso   1.00
Zn689  Zn    0.12893   0.53773   0.78734   0.00000  Uiso   1.00
Br690  Br    0.64196   0.45816   0.81417   0.00000  Uiso   1.00
Br691  Br    0.43346   0.66086   0.81020   0.00000  Uiso   1.00
Br692  Br    0.35645   0.53404   0.51583   0.00000  Uiso   1.00
Br693  Br    0.57738   0.54684   0.87698   0.00000  Uiso   1.00
C694   C     0.38642   0.49334   0.75979   0.00000  Uiso   1.00
C695   C     0.50047   0.48978   0.55949   0.00000  Uiso   1.00
C696   C     0.56491   0.45976   0.55563   0.00000  Uiso   1.00
C697   C     0.61406   0.50709   0.74023   0.00000  Uiso   1.00
C698   C     0.47294   0.52480   0.92038   0.00000  Uiso   1.00
C699   C     0.65970   0.50947   0.73662   0.00000  Uiso   1.00
C700   C     0.34137   0.49047   0.76496   0.00000  Uiso   1.00
C701   C     0.51292   0.65576   0.73792   0.00000  Uiso   1.00
C702   C     0.48423   0.34593   0.76496   0.00000  Uiso   1.00
C703   C     0.49013   0.38941   0.75964   0.00000  Uiso   1.00
C704   C     0.50967   0.61124   0.74044   0.00000  Uiso   1.00
C705   C     0.41455   0.52420   0.98786   0.00000  Uiso   1.00
C706   C     0.51883   0.48162   0.62935   0.00000  Uiso   1.00
C707   C     0.48266   0.51886   0.87087   0.00000  Uiso   1.00
C708   C     0.57747   0.46182   0.50910   0.00000  Uiso   1.00
C709   C     0.52731   0.47519   0.58076   0.00000  Uiso   1.00
C710   C     0.43182   0.53386   0.94358   0.00000  Uiso   1.00
C711   C     0.43811   0.50461   0.50949   0.00000  Uiso   1.00
C712   C     0.48275   0.50257   0.98962   0.00000  Uiso   1.00
C713   C     0.50038   0.51373   0.94447   0.00000  Uiso   1.00
C714   C     0.51048   0.48926   0.51237   0.00000  Uiso   1.00
C715   C     0.55179   0.47941   0.98771   0.00000  Uiso   1.00
C716   C     0.56851   0.49197   0.94412   0.00000  Uiso   1.00
C717   C     0.54475   0.51280   0.92463   0.00000  Uiso   1.00
Cl718  Cl    0.62623   0.44344   0.97928   0.00000  Uiso   1.00
Cl719  Cl    0.40816   0.47579   0.55534   0.00000  Uiso   1.00
Cl720  Cl    0.36180   0.53804   0.69332   0.00000  Uiso   1.00
H721   H     0.58559   0.44826   0.57245   0.00000  Uiso   1.00
H722   H     0.53985   0.33681   0.71308   0.00000  Uiso   1.00
H723   H     0.60174   0.48986   0.92683   0.00000  Uiso   1.00
H724   H     0.47426   0.50534   0.58047   0.00000  Uiso   1.00
H725   H     0.41129   0.54459   0.92603   0.00000  Uiso   1.00
O726   O     0.50000   0.50000   0.75000   0.00000  Uiso   1.00
O727   O     0.48784   0.45970   0.65459   0.00000  Uiso   1.00
O728   O     0.46274   0.53724   0.84968   0.00000  Uiso   1.00
O729   O     0.54157   0.51092   0.64606   0.00000  Uiso   1.00
O730   O     0.50785   0.49213   0.84968   0.00000  Uiso   1.00
O731   O     0.51264   0.41352   0.78214   0.00000  Uiso   1.00
O732   O     0.47965   0.59418   0.77014   0.00000  Uiso   1.00
O733   O     0.40745   0.46625   0.73413   0.00000  Uiso   1.00
O734   O     0.60026   0.52605   0.71361   0.00000  Uiso   1.00
O735   O     0.40405   0.52211   0.78213   0.00000  Uiso   1.00
O736   O     0.58824   0.48559   0.77014   0.00000  Uiso   1.00
O737   O     0.47093   0.40277   0.73413   0.00000  Uiso   1.00
O738   O     0.53678   0.58953   0.71361   0.00000  Uiso   1.00
Zn739  Zn    0.52672   0.47327   0.78734   0.00000  Uiso   1.00
Zn740  Zn    0.46713   0.45791   0.71876   0.00000  Uiso   1.00
Zn741  Zn    0.54389   0.53109   0.70657   0.00000  Uiso   1.00
Zn742  Zn    0.46226   0.53773   0.78734   0.00000  Uiso   1.00
Br743  Br    0.97530   0.45816   0.81417   0.00000  Uiso   1.00
Br744  Br    0.76679   0.66086   0.81020   0.00000  Uiso   1.00
Br745  Br    0.68978   0.53404   0.51583   0.00000  Uiso   1.00
Br746  Br    0.91071   0.54684   0.87698   0.00000  Uiso   1.00
C747   C     0.71975   0.49334   0.75979   0.00000  Uiso   1.00
C748   C     0.83381   0.48978   0.55949   0.00000  Uiso   1.00
C749   C     0.89825   0.45976   0.55563   0.00000  Uiso   1.00
C750   C     0.94739   0.50709   0.74023   0.00000  Uiso   1.00
C751   C     0.80627   0.52480   0.92038   0.00000  Uiso   1.00
C752   C     0.99303   0.50947   0.73662   0.00000  Uiso   1.00
C753   C     0.67471   0.49047   0.76496   0.00000  Uiso   1.00
C754   C     0.84626   0.65576   0.73792   0.00000  Uiso   1.00
C755   C     0.81756   0.34593   0.76496   0.00000  Uiso   1.00
C756   C     0.82346   0.38941   0.75964   0.00000  Uiso   1.00
C757   C     0.84300   0.61124   0.74044   0.00000  Uiso   1.00
C758   C     0.74788   0.52420   0.98786   0.00000  Uiso   1.00
C759   C     0.85216   0.48162   0.62935   0.00000  Uiso   1.00
C760   C     0.81599   0.51886   0.87087   0.00000  Uiso   1.00
C761   C     0.91081   0.46182   0.50910   0.00000  Uiso   1.00
C762   C     0.86064   0.47519   0.58076   0.00000  Uiso   1.00
C763   C     0.76515   0.53386   0.94358   0.00000  Uiso   1.00
C764   C     0.77144   0.50461   0.50949   0.00000  Uiso   1.00
C765   C     0.81608   0.50257   0.98962   0.00000  Uiso   1.00
C766   C     0.83371   0.51373   0.94447   0.00000  Uiso   1.00
C767   C     0.84382   0.48926   0.51237   0.00000  Uiso   1.00
C768   C     0.88512   0.47941   0.98771   0.00000  Uiso   1.00
C769   C     0.90185   0.49197   0.94412   0.00000  Uiso   1.00
C770   C     0.87808   0.51280   0.92463   0.00000  Uiso   1.00
Cl771  Cl    0.95957   0.44344   0.97928   0.00000  Uiso   1.00
Cl772  Cl    0.74149   0.47579   0.55534   0.00000  Uiso   1.00
Cl773  Cl    0.69513   0.53804   0.69332   0.00000  Uiso   1.00
H774   H     0.91892   0.44826   0.57245   0.00000  Uiso   1.00
H775   H     0.87318   0.33681   0.71308   0.00000  Uiso   1.00
H776   H     0.93507   0.48986   0.92683   0.00000  Uiso   1.00
H777   H     0.80760   0.50534   0.58047   0.00000  Uiso   1.00
H778   H     0.74462   0.54459   0.92603   0.00000  Uiso   1.00
O779   O     0.83333   0.50000   0.75000   0.00000  Uiso   1.00
O780   O     0.82118   0.45970   0.65459   0.00000  Uiso   1.00
O781   O     0.79607   0.53724   0.84968   0.00000  Uiso   1.00
O782   O     0.87491   0.51092   0.64606   0.00000  Uiso   1.00
O783   O     0.84118   0.49213   0.84968   0.00000  Uiso   1.00
O784   O     0.84597   0.41352   0.78214   0.00000  Uiso   1.00
O785   O     0.81298   0.59418   0.77014   0.00000  Uiso   1.00
O786   O     0.74078   0.46625   0.73413   0.00000  Uiso   1.00
O787   O     0.93360   0.52605   0.71361   0.00000  Uiso   1.00
O788   O     0.73738   0.52211   0.78213   0.00000  Uiso   1.00
O789   O     0.92158   0.48559   0.77014   0.00000  Uiso   1.00
O790   O     0.80426   0.40277   0.73413   0.00000  Uiso   1.00
O791   O     0.87012   0.58953   0.71361   0.00000  Uiso   1.00
Zn792  Zn    0.86005   0.47327   0.78734   0.00000  Uiso   1.00
Zn793  Zn    0.80046   0.45791   0.71876   0.00000  Uiso   1.00
Zn794  Zn    0.87723   0.53109   0.70657   0.00000  Uiso   1.00
Zn795  Zn    0.79560   0.53773   0.78734   0.00000  Uiso   1.00
Br796  Br    0.30863   0.79149   0.81417   0.00000  Uiso   1.00
Br797  Br    0.10012   0.99419   0.81020   0.00000  Uiso   1.00
Br798  Br    0.02312   0.86737   0.51583   0.00000  Uiso   1.00
Br799  Br    0.24405   0.88017   0.87698   0.00000  Uiso   1.00
C800   C     0.05309   0.82667   0.75979   0.00000  Uiso   1.00
C801   C     0.16714   0.82311   0.55949   0.00000  Uiso   1.00
C802   C     0.23158   0.79309   0.55563   0.00000  Uiso   1.00
C803   C     0.28073   0.84043   0.74023   0.00000  Uiso   1.00
C804   C     0.13960   0.85813   0.92038   0.00000  Uiso   1.00
C805   C     0.32637   0.84280   0.73662   0.00000  Uiso   1.00
C806   C     0.00804   0.82381   0.76496   0.00000  Uiso   1.00
C807   C     0.17959   0.98910   0.73792   0.00000  Uiso   1.00
C808   C     0.15090   0.67926   0.76496   0.00000  Uiso   1.00
C809   C     0.15680   0.72274   0.75964   0.00000  Uiso   1.00
C810   C     0.17634   0.94457   0.74044   0.00000  Uiso   1.00
C811   C     0.08121   0.85753   0.98786   0.00000  Uiso   1.00
C812   C     0.18550   0.81495   0.62935   0.00000  Uiso   1.00
C813   C     0.14933   0.85219   0.87087   0.00000  Uiso   1.00
C814   C     0.24414   0.79516   0.50910   0.00000  Uiso   1.00
C815   C     0.19398   0.80852   0.58076   0.00000  Uiso   1.00
C816   C     0.09849   0.86719   0.94358   0.00000  Uiso   1.00
C817   C     0.10478   0.83794   0.50949   0.00000  Uiso   1.00
C818   C     0.14941   0.83591   0.98962   0.00000  Uiso   1.00
C819   C     0.16705   0.84707   0.94447   0.00000  Uiso   1.00
C820   C     0.17715   0.82260   0.51237   0.00000  Uiso   1.00
C821   C     0.21846   0.81274   0.98771   0.00000  Uiso   1.00
C822   C     0.23518   0.82530   0.94412   0.00000  Uiso   1.00
C823   C     0.21142   0.84613   0.92463   0.00000  Uiso   1.00
Cl824  Cl    0.29290   0.77677   0.97928   0.00000  Uiso   1.00
Cl825  Cl    0.07482   0.80912   0.55534   0.00000  Uiso   1.00
Cl826  Cl    0.02846   0.87138   0.69332   0.00000  Uiso   1.00
H827   H     0.25226   0.78159   0.57245   0.00000  Uiso   1.00
H828   H     0.20652   0.67014   0.71308   0.00000  Uiso   1.00
H829   H     0.26840   0.82320   0.92683   0.00000  Uiso   1.00
H830   H     0.14093   0.83867   0.58047   0.00000  Uiso   1.00
H831   H     0.07796   0.87792   0.92603   0.00000  Uiso   1.00
O832   O     0.16667   0.83333   0.75000   0.00000  Uiso   1.00
O833   O     0.15451   0.79304   0.65459   0.00000  Uiso   1.00
O834   O     0.12940   0.87058   0.84968   0.00000  Uiso   1.00
O835   O     0.20824   0.84425   0.64606   0.00000  Uiso   1.00
O836   O     0.17451   0.82546   0.84968   0.00000  Uiso   1.00
O837   O     0.17930   0.74686   0.78214   0.00000  Uiso   1.00
O838   O     0.14632   0.92751   0.77014   0.00000  Uiso   1.00
O839   O     0.07412   0.79958   0.73413   0.00000  Uiso   1.00
O840   O     0.26693   0.85939   0.71361   0.00000  Uiso   1.00
O841   O     0.07071   0.85544   0.78213   0.00000  Uiso   1.00
O842   O     0.25491   0.81892   0.77014   0.00000  Uiso   1.00
O843   O     0.13760   0.73610   0.73413   0.00000  Uiso   1.00
O844   O     0.20345   0.92286   0.71361   0.00000  Uiso   1.00
Zn845  Zn    0.19338   0.80661   0.78734   0.00000  Uiso   1.00
Zn846  Zn    0.13379   0.79124   0.71876   0.00000  Uiso   1.00
Zn847  Zn    0.21056   0.86442   0.70657   0.00000  Uiso   1.00
Zn848  Zn    0.12893   0.87106   0.78734   0.00000  Uiso   1.00
Br849  Br    0.64196   0.79149   0.81417   0.00000  Uiso   1.00
Br850  Br    0.43346   0.99419   0.81020   0.00000  Uiso   1.00
Br851  Br    0.35645   0.86737   0.51583   0.00000  Uiso   1.00
Br852  Br    0.57738   0.88017   0.87698   0.00000  Uiso   1.00
C853   C     0.38642   0.82667   0.75979   0.00000  Uiso   1.00
C854   C     0.50047   0.82311   0.55949   0.00000  Uiso   1.00
C855   C     0.56491   0.79309   0.55563   0.00000  Uiso   1.00
C856   C     0.61406   0.84043   0.74023   0.00000  Uiso   1.00
C857   C     0.47294   0.85813   0.92038   0.00000  Uiso   1.00
C858   C     0.65970   0.84280   0.73662   0.00000  Uiso   1.00
C859   C     0.34137   0.82381   0.76496   0.00000  Uiso   1.00
C860   C     0.51292   0.98910   0.73792   0.00000  Uiso   1.00
C861   C     0.48423   0.67926   0.76496   0.00000  Uiso   1.00
C862   C     0.49013   0.72274   0.75964   0.00000  Uiso   1.00
C863   C     0.50967   0.94457   0.74044   0.00000  Uiso   1.00
C864   C     0.41455   0.85753   0.98786   0.00000  Uiso   1.00
C865   C     0.51883   0.81495   0.62935   0.00000  Uiso   1.00
C866   C     0.48266   0.85219   0.87087   0.00000  Uiso   1.00
C867   C     0.57747   0.79516   0.50910   0.00000  Uiso   1.00
C868   C     0.52731   0.80852   0.58076   0.00000  Uiso   1.00
C869   C     0.43182   0.86719   0.94358   0.00000  Uiso   1.00
C870   C     0.43811   0.83794   0.50949   0.00000  Uiso   1.00
C871   C     0.48275   0.83591   0.98962   0.00000  Uiso   1.00
C872   C     0.50038   0.84707   0.94447   0.00000  Uiso   1.00
C873   C     0.51048   0.82260   0.51237   0.00000  Uiso   1.00
C874   C     0.55179   0.81274   0.98771   0.00000  Uiso   1.00
C875   C     0.56851   0.82530   0.94412   0.00000  Uiso   1.00
C876   C     0.54475   0.84613   0.92463   0.00000  Uiso   1.00
Cl877  Cl    0.62623   0.77677   0.97928   0.00000  Uiso   1.00
Cl878  Cl    0.40816   0.80912   0.55534   0.00000  Uiso   1.00
Cl879  Cl    0.36180   0.87138   0.69332   0.00000  Uiso   1.00
H880   H     0.58559   0.78159   0.57245   0.00000  Uiso   1.00
H881   H     0.53985   0.67014   0.71308   0.00000  Uiso   1.00
H882   H     0.60174   0.82320   0.92683   0.00000  Uiso   1.00
H883   H     0.47426   0.83867   0.58047   0.00000  Uiso   1.00
H884   H     0.41129   0.87792   0.92603   0.00000  Uiso   1.00
O885   O     0.50000   0.83333   0.75000   0.00000  Uiso   1.00
O886   O     0.48784   0.79304   0.65459   0.00000  Uiso   1.00
O887   O     0.46274   0.87058   0.84968   0.00000  Uiso   1.00
O888   O     0.54157   0.84425   0.64606   0.00000  Uiso   1.00
O889   O     0.50785   0.82546   0.84968   0.00000  Uiso   1.00
O890   O     0.51264   0.74686   0.78214   0.00000  Uiso   1.00
O891   O     0.47965   0.92751   0.77014   0.00000  Uiso   1.00
O892   O     0.40745   0.79958   0.73413   0.00000  Uiso   1.00
O893   O     0.60026   0.85939   0.71361   0.00000  Uiso   1.00
O894   O     0.40405   0.85544   0.78213   0.00000  Uiso   1.00
O895   O     0.58824   0.81892   0.77014   0.00000  Uiso   1.00
O896   O     0.47093   0.73610   0.73413   0.00000  Uiso   1.00
O897   O     0.53678   0.92286   0.71361   0.00000  Uiso   1.00
Zn898  Zn    0.52672   0.80661   0.78734   0.00000  Uiso   1.00
Zn899  Zn    0.46713   0.79124   0.71876   0.00000  Uiso   1.00
Zn900  Zn    0.54389   0.86442   0.70657   0.00000  Uiso   1.00
Zn901  Zn    0.46226   0.87106   0.78734   0.00000  Uiso   1.00
Br902  Br    0.97530   0.79149   0.81417   0.00000  Uiso   1.00
Br903  Br    0.76679   0.99419   0.81020   0.00000  Uiso   1.00
Br904  Br    0.68978   0.86737   0.51583   0.00000  Uiso   1.00
Br905  Br    0.91071   0.88017   0.87698   0.00000  Uiso   1.00
C906   C     0.71975   0.82667   0.75979   0.00000  Uiso   1.00
C907   C     0.83381   0.82311   0.55949   0.00000  Uiso   1.00
C908   C     0.89825   0.79309   0.55563   0.00000  Uiso   1.00
C909   C     0.94739   0.84043   0.74023   0.00000  Uiso   1.00
C910   C     0.80627   0.85813   0.92038   0.00000  Uiso   1.00
C911   C     0.99303   0.84280   0.73662   0.00000  Uiso   1.00
C912   C     0.67471   0.82381   0.76496   0.00000  Uiso   1.00
C913   C     0.84626   0.98910   0.73792   0.00000  Uiso   1.00
C914   C     0.81756   0.67926   0.76496   0.00000  Uiso   1.00
C915   C     0.82346   0.72274   0.75964   0.00000  Uiso   1.00
C916   C     0.84300   0.94457   0.74044   0.00000  Uiso   1.00
C917   C     0.74788   0.85753   0.98786   0.00000  Uiso   1.00
C918   C     0.85216   0.81495   0.62935   0.00000  Uiso   1.00
C919   C     0.81599   0.85219   0.87087   0.00000  Uiso   1.00
C920   C     0.91081   0.79516   0.50910   0.00000  Uiso   1.00
C921   C     0.86064   0.80852   0.58076   0.00000  Uiso   1.00
C922   C     0.76515   0.86719   0.94358   0.00000  Uiso   1.00
C923   C     0.77144   0.83794   0.50949   0.00000  Uiso   1.00
C924   C     0.81608   0.83591   0.98962   0.00000  Uiso   1.00
C925   C     0.83371   0.84707   0.94447   0.00000  Uiso   1.00
C926   C     0.84382   0.82260   0.51237   0.00000  Uiso   1.00
C927   C     0.88512   0.81274   0.98771   0.00000  Uiso   1.00
C928   C     0.90185   0.82530   0.94412   0.00000  Uiso   1.00
C929   C     0.87808   0.84613   0.92463   0.00000  Uiso   1.00
Cl930  Cl    0.95957   0.77677   0.97928   0.00000  Uiso   1.00
Cl931  Cl    0.74149   0.80912   0.55534   0.00000  Uiso   1.00
Cl932  Cl    0.69513   0.87138   0.69332   0.00000  Uiso   1.00
H933   H     0.91892   0.78159   0.57245   0.00000  Uiso   1.00
H934   H     0.87318   0.67014   0.71308   0.00000  Uiso   1.00
H935   H     0.93507   0.82320   0.92683   0.00000  Uiso   1.00
H936   H     0.80760   0.83867   0.58047   0.00000  Uiso   1.00
H937   H     0.74462   0.87792   0.92603   0.00000  Uiso   1.00
O938   O     0.83333   0.83333   0.75000   0.00000  Uiso   1.00
O939   O     0.82118   0.79304   0.65459   0.00000  Uiso   1.00
O940   O     0.79607   0.87058   0.84968   0.00000  Uiso   1.00
O941   O     0.87491   0.84425   0.64606   0.00000  Uiso   1.00
O942   O     0.84118   0.82546   0.84968   0.00000  Uiso   1.00
O943   O     0.84597   0.74686   0.78214   0.00000  Uiso   1.00
O944   O     0.81298   0.92751   0.77014   0.00000  Uiso   1.00
O945   O     0.74078   0.79958   0.73413   0.00000  Uiso   1.00
O946   O     0.93360   0.85939   0.71361   0.00000  Uiso   1.00
O947   O     0.73738   0.85544   0.78213   0.00000  Uiso   1.00
O948   O     0.92158   0.81892   0.77014   0.00000  Uiso   1.00
O949   O     0.80426   0.73610   0.73413   0.00000  Uiso   1.00
O950   O     0.87012   0.92286   0.71361   0.00000  Uiso   1.00
Zn951  Zn    0.86005   0.80661   0.78734   0.00000  Uiso   1.00
Zn952  Zn    0.80046   0.79124   0.71876   0.00000  Uiso   1.00
Zn953  Zn    0.87723   0.86442   0.70657   0.00000  Uiso   1.00
Zn954  Zn    0.79560   0.87106   0.78734   0.00000  Uiso   1.00
loop_
_geom_bond_atom_site_label_1
_geom_bond_atom_site_label_2
_geom_bond_distance
_geom_bond_site_symmetry_2
_ccdc_geom_bond_type
Br1    C64     1.933   .     S
Br2    C172    1.931   .     S
Br3    C493    1.921   1_554 S
Br4    C28     1.930   .     S
C5     O46     1.267   .     A
C5     O44     1.268   .     A
C5     C11     1.429   .     S
C6     C20     1.389   .     A
C6     C25     1.404   .     A
C6     H35     1.079   .     S
C7     H32     1.084   .     S
C7     C19     1.393   .     A
C7     C20     1.395   .     A
C8     O47     1.271   .     A
C8     C10     1.458   .     S
C8     O45     1.288   .     A
C9     C24     1.416   .     A
C9     C18     1.474   .     S
C9     C21     1.399   .     A
C10    C64     1.354   .     S
C10    Cl84    1.773   .     S
C11    C116    1.354   1_455 S
C11    Br107   1.933   1_455 S
C12    C15     1.451   .     S
C12    C172    1.344   .     S
C12    H192    1.088   .     S
C13    C14     1.427   .     S
C13    Br320   1.931   1_545 S
C13    C330    1.344   1_545 S
C14    O42     1.278   .     A
C14    O48     1.276   .     A
C15    O49     1.276   .     A
C15    O43     1.261   .     A
C16    C21     1.387   .     A
C16    Br480   1.921   .     S
C16    C499    1.402   .     S
C17    O38     1.281   .     A
C17    C20     1.449   .     S
C17    O40     1.276   .     A
C18    O39     1.282   .     A
C18    O41     1.287   .     A
C19    C503    1.412   1_554 S
C19    Cl506   1.764   1_554 S
C21    H36     1.083   .     S
C22    Cl30    1.773   .     S
C22    C493    1.402   1_554 S
C22    C500    1.431   1_554 S
C23    C24     1.427   .     A
C23    C499    1.431   .     S
C23    C502    1.425   .     S
C24    C28     1.418   .     A
C25    C500    1.425   1_554 S
C25    C503    1.423   1_554 S
C26    C27     1.395   .     A
C26    C496    1.412   .     S
C26    C502    1.423   .     S
C27    H34     1.082   .     S
C27    C28     1.387   .     A
Cl29   C496    1.764   .     S
Cl31   C116    1.773   1_455 S
H33    C330    1.088   1_545 S
O37    Zn53    1.929   .     S
O37    Zn50    1.961   .     S
O37    Zn51    1.954   .     S
O37    Zn52    1.935   .     S
O38    Zn51    1.921   .     S
O39    Zn53    1.934   .     S
O40    Zn52    1.931   .     S
O41    Zn50    1.918   .     S
O42    Zn50    1.938   .     S
O43    Zn53    1.939   .     S
O44    Zn51    1.932   .     S
O45    Zn52    1.945   .     S
O46    Zn53    1.944   .     S
O47    Zn50    1.932   .     S
O48    Zn51    1.941   .     S
O49    Zn52    1.936   .     S
Br54   C117    1.933   .     S
Br55   C225    1.931   .     S
Br56   C546    1.921   1_554 S
Br57   C81     1.930   .     S
C58    O99     1.267   .     A
C58    O97     1.268   .     A
C58    C64     1.429   .     S
C59    C73     1.389   .     A
C59    C78     1.404   .     A
C59    H88     1.079   .     S
C60    H85     1.084   .     S
C60    C72     1.393   .     A
C60    C73     1.395   .     A
C61    O100    1.271   .     A
C61    C63     1.458   .     S
C61    O98     1.288   .     A
C62    C77     1.416   .     A
C62    C71     1.474   .     S
C62    C74     1.399   .     A
C63    C117    1.354   .     S
C63    Cl137   1.773   .     S
C65    C68     1.451   .     S
C65    C225    1.344   .     S
C65    H245    1.088   .     S
C66    C67     1.427   .     S
C66    Br373   1.931   1_545 S
C66    C383    1.344   1_545 S
C67    O95     1.278   .     A
C67    O101    1.276   .     A
C68    O102    1.276   .     A
C68    O96     1.261   .     A
C69    C74     1.387   .     A
C69    Br533   1.921   .     S
C69    C552    1.402   .     S
C70    O91     1.281   .     A
C70    C73     1.449   .     S
C70    O93     1.276   .     A
C71    O92     1.282   .     A
C71    O94     1.287   .     A
C72    C556    1.412   1_554 S
C72    Cl559   1.764   1_554 S
C74    H89     1.083   .     S
C75    Cl83    1.773   .     S
C75    C546    1.402   1_554 S
C75    C553    1.431   1_554 S
C76    C77     1.427   .     A
C76    C552    1.431   .     S
C76    C555    1.425   .     S
C77    C81     1.418   .     A
C78    C553    1.425   1_554 S
C78    C556    1.423   1_554 S
C79    C80     1.395   .     A
C79    C549    1.412   .     S
C79    C555    1.423   .     S
C80    H87     1.082   .     S
C80    C81     1.387   .     A
Cl82   C549    1.764   .     S
H86    C383    1.088   1_545 S
O90    Zn106   1.929   .     S
O90    Zn103   1.961   .     S
O90    Zn104   1.954   .     S
O90    Zn105   1.935   .     S
O91    Zn104   1.921   .     S
O92    Zn106   1.934   .     S
O93    Zn105   1.931   .     S
O94    Zn103   1.918   .     S
O95    Zn103   1.938   .     S
O96    Zn106   1.939   .     S
O97    Zn104   1.932   .     S
O98    Zn105   1.945   .     S
O99    Zn106   1.944   .     S
O100   Zn103   1.932   .     S
O101   Zn104   1.941   .     S
O102   Zn105   1.936   .     S
Br107  C11     1.933   1_655 S
Br108  C278    1.931   .     S
Br109  C599    1.921   1_554 S
Br110  C134    1.930   .     S
C111   O152    1.267   .     A
C111   O150    1.268   .     A
C111   C117    1.429   .     S
C112   C126    1.389   .     A
C112   C131    1.404   .     A
C112   H141    1.079   .     S
C113   H138    1.084   .     S
C113   C125    1.393   .     A
C113   C126    1.395   .     A
C114   O153    1.271   .     A
C114   C116    1.458   .     S
C114   O151    1.288   .     A
C115   C130    1.416   .     A
C115   C124    1.474   .     S
C115   C127    1.399   .     A
C116   C11     1.354   1_655 S
C116   Cl31    1.773   1_655 S
C118   C121    1.451   .     S
C118   C278    1.344   .     S
C118   H298    1.088   .     S
C119   C120    1.427   .     S
C119   Br426   1.931   1_545 S
C119   C436    1.344   1_545 S
C120   O148    1.278   .     A
C120   O154    1.276   .     A
C121   O155    1.276   .     A
C121   O149    1.261   .     A
C122   C127    1.387   .     A
C122   Br586   1.921   .     S
C122   C605    1.402   .     S
C123   O144    1.281   .     A
C123   C126    1.449   .     S
C123   O146    1.276   .     A
C124   O145    1.282   .     A
C124   O147    1.287   .     A
C125   C609    1.412   1_554 S
C125   Cl612   1.764   1_554 S
C127   H142    1.083   .     S
C128   Cl136   1.773   .     S
C128   C599    1.402   1_554 S
C128   C606    1.431   1_554 S
C129   C130    1.427   .     A
C129   C605    1.431   .     S
C129   C608    1.425   .     S
C130   C134    1.418   .     A
C131   C606    1.425   1_554 S
C131   C609    1.423   1_554 S
C132   C133    1.395   .     A
C132   C602    1.412   .     S
C132   C608    1.423   .     S
C133   H140    1.082   .     S
C133   C134    1.387   .     A
Cl135  C602    1.764   .     S
H139   C436    1.088   1_545 S
O143   Zn159   1.929   .     S
O143   Zn156   1.961   .     S
O143   Zn157   1.954   .     S
O143   Zn158   1.935   .     S
O144   Zn157   1.921   .     S
O145   Zn159   1.934   .     S
O146   Zn158   1.931   .     S
O147   Zn156   1.918   .     S
O148   Zn156   1.938   .     S
O149   Zn159   1.939   .     S
O150   Zn157   1.932   .     S
O151   Zn158   1.945   .     S
O152   Zn159   1.944   .     S
O153   Zn156   1.932   .     S
O154   Zn157   1.941   .     S
O155   Zn158   1.936   .     S
Br160  C223    1.933   .     S
Br161  C331    1.931   .     S
Br162  C652    1.921   1_554 S
Br163  C187    1.930   .     S
C164   O205    1.267   .     A
C164   O203    1.268   .     A
C164   C170    1.429   .     S
C165   C179    1.389   .     A
C165   C184    1.404   .     A
C165   H194    1.079   .     S
C166   H191    1.084   .     S
C166   C178    1.393   .     A
C166   C179    1.395   .     A
C167   O206    1.271   .     A
C167   C169    1.458   .     S
C167   O204    1.288   .     A
C168   C183    1.416   .     A
C168   C177    1.474   .     S
C168   C180    1.399   .     A
C169   C223    1.354   .     S
C169   Cl243   1.773   .     S
C170   C275    1.354   1_455 S
C170   Br266   1.933   1_455 S
C171   C174    1.451   .     S
C171   C331    1.344   .     S
C171   H351    1.088   .     S
C172   C173    1.427   .     S
C173   O201    1.278   .     A
C173   O207    1.276   .     A
C174   O208    1.276   .     A
C174   O202    1.261   .     A
C175   C180    1.387   .     A
C175   Br639   1.921   .     S
C175   C658    1.402   .     S
C176   O197    1.281   .     A
C176   C179    1.449   .     S
C176   O199    1.276   .     A
C177   O198    1.282   .     A
C177   O200    1.287   .     A
C178   C662    1.412   1_554 S
C178   Cl665   1.764   1_554 S
C180   H195    1.083   .     S
C181   Cl189   1.773   .     S
C181   C652    1.402   1_554 S
C181   C659    1.431   1_554 S
C182   C183    1.427   .     A
C182   C658    1.431   .     S
C182   C661    1.425   .     S
C183   C187    1.418   .     A
C184   C659    1.425   1_554 S
C184   C662    1.423   1_554 S
C185   C186    1.395   .     A
C185   C655    1.412   .     S
C185   C661    1.423   .     S
C186   H193    1.082   .     S
C186   C187    1.387   .     A
Cl188  C655    1.764   .     S
Cl190  C275    1.773   1_455 S
O196   Zn212   1.929   .     S
O196   Zn209   1.961   .     S
O196   Zn210   1.954   .     S
O196   Zn211   1.935   .     S
O197   Zn210   1.921   .     S
O198   Zn212   1.934   .     S
O199   Zn211   1.931   .     S
O200   Zn209   1.918   .     S
O201   Zn209   1.938   .     S
O202   Zn212   1.939   .     S
O203   Zn210   1.932   .     S
O204   Zn211   1.945   .     S
O205   Zn212   1.944   .     S
O206   Zn209   1.932   .     S
O207   Zn210   1.941   .     S
O208   Zn211   1.936   .     S
Br213  C276    1.933   .     S
Br214  C384    1.931   .     S
Br215  C705    1.921   1_554 S
Br216  C240    1.930   .     S
C217   O258    1.267   .     A
C217   O256    1.268   .     A
C217   C223    1.429   .     S
C218   C232    1.389   .     A
C218   C237    1.404   .     A
C218   H247    1.079   .     S
C219   H244    1.084   .     S
C219   C231    1.393   .     A
C219   C232    1.395   .     A
C220   O259    1.271   .     A
C220   C222    1.458   .     S
C220   O257    1.288   .     A
C221   C236    1.416   .     A
C221   C230    1.474   .     S
C221   C233    1.399   .     A
C222   C276    1.354   .     S
C222   Cl296   1.773   .     S
C224   C227    1.451   .     S
C224   C384    1.344   .     S
C224   H404    1.088   .     S
C225   C226    1.427   .     S
C226   O254    1.278   .     A
C226   O260    1.276   .     A
C227   O261    1.276   .     A
C227   O255    1.261   .     A
C228   C233    1.387   .     A
C228   Br692   1.921   .     S
C228   C711    1.402   .     S
C229   O250    1.281   .     A
C229   C232    1.449   .     S
C229   O252    1.276   .     A
C230   O251    1.282   .     A
C230   O253    1.287   .     A
C231   C715    1.412   1_554 S
C231   Cl718   1.764   1_554 S
C233   H248    1.083   .     S
C234   Cl242   1.773   .     S
C234   C705    1.402   1_554 S
C234   C712    1.431   1_554 S
C235   C236    1.427   .     A
C235   C711    1.431   .     S
C235   C714    1.425   .     S
C236   C240    1.418   .     A
C237   C712    1.425   1_554 S
C237   C715    1.423   1_554 S
C238   C239    1.395   .     A
C238   C708    1.412   .     S
C238   C714    1.423   .     S
C239   H246    1.082   .     S
C239   C240    1.387   .     A
Cl241  C708    1.764   .     S
O249   Zn265   1.929   .     S
O249   Zn262   1.961   .     S
O249   Zn263   1.954   .     S
O249   Zn264   1.935   .     S
O250   Zn263   1.921   .     S
O251   Zn265   1.934   .     S
O252   Zn264   1.931   .     S
O253   Zn262   1.918   .     S
O254   Zn262   1.938   .     S
O255   Zn265   1.939   .     S
O256   Zn263   1.932   .     S
O257   Zn264   1.945   .     S
O258   Zn265   1.944   .     S
O259   Zn262   1.932   .     S
O260   Zn263   1.941   .     S
O261   Zn264   1.936   .     S
Br266  C170    1.933   1_655 S
Br267  C437    1.931   .     S
Br268  C758    1.921   1_554 S
Br269  C293    1.930   .     S
C270   O311    1.267   .     A
C270   O309    1.268   .     A
C270   C276    1.429   .     S
C271   C285    1.389   .     A
C271   C290    1.404   .     A
C271   H300    1.079   .     S
C272   H297    1.084   .     S
C272   C284    1.393   .     A
C272   C285    1.395   .     A
C273   O312    1.271   .     A
C273   C275    1.458   .     S
C273   O310    1.288   .     A
C274   C289    1.416   .     A
C274   C283    1.474   .     S
C274   C286    1.399   .     A
C275   C170    1.354   1_655 S
C275   Cl190   1.773   1_655 S
C277   C280    1.451   .     S
C277   C437    1.344   .     S
C277   H457    1.088   .     S
C278   C279    1.427   .     S
C279   O307    1.278   .     A
C279   O313    1.276   .     A
C280   O314    1.276   .     A
C280   O308    1.261   .     A
C281   C286    1.387   .     A
C281   Br745   1.921   .     S
C281   C764    1.402   .     S
C282   O303    1.281   .     A
C282   C285    1.449   .     S
C282   O305    1.276   .     A
C283   O304    1.282   .     A
C283   O306    1.287   .     A
C284   C768    1.412   1_554 S
C284   Cl771   1.764   1_554 S
C286   H301    1.083   .     S
C287   Cl295   1.773   .     S
C287   C758    1.402   1_554 S
C287   C765    1.431   1_554 S
C288   C289    1.427   .     A
C288   C764    1.431   .     S
C288   C767    1.425   .     S
C289   C293    1.418   .     A
C290   C765    1.425   1_554 S
C290   C768    1.423   1_554 S
C291   C292    1.395   .     A
C291   C761    1.412   .     S
C291   C767    1.423   .     S
C292   H299    1.082   .     S
C292   C293    1.387   .     A
Cl294  C761    1.764   .     S
O302   Zn318   1.929   .     S
O302   Zn315   1.961   .     S
O302   Zn316   1.954   .     S
O302   Zn317   1.935   .     S
O303   Zn316   1.921   .     S
O304   Zn318   1.934   .     S
O305   Zn317   1.931   .     S
O306   Zn315   1.918   .     S
O307   Zn315   1.938   .     S
O308   Zn318   1.939   .     S
O309   Zn316   1.932   .     S
O310   Zn317   1.945   .     S
O311   Zn318   1.944   .     S
O312   Zn315   1.932   .     S
O313   Zn316   1.941   .     S
O314   Zn317   1.936   .     S
Br319  C382    1.933   .     S
Br320  C13     1.931   1_565 S
Br321  C811    1.921   1_554 S
Br322  C346    1.930   .     S
C323   O364    1.267   .     A
C323   O362    1.268   .     A
C323   C329    1.429   .     S
C324   C338    1.389   .     A
C324   C343    1.404   .     A
C324   H353    1.079   .     S
C325   H350    1.084   .     S
C325   C337    1.393   .     A
C325   C338    1.395   .     A
C326   O365    1.271   .     A
C326   C328    1.458   .     S
C326   O363    1.288   .     A
C327   C342    1.416   .     A
C327   C336    1.474   .     S
C327   C339    1.399   .     A
C328   C382    1.354   .     S
C328   Cl402   1.773   .     S
C329   C434    1.354   1_455 S
C329   Br425   1.933   1_455 S
C330   C333    1.451   .     S
C330   C13     1.344   1_565 S
C330   H33     1.088   1_565 S
C331   C332    1.427   .     S
C332   O360    1.278   .     A
C332   O366    1.276   .     A
C333   O367    1.276   .     A
C333   O361    1.261   .     A
C334   C339    1.387   .     A
C334   Br798   1.921   .     S
C334   C817    1.402   .     S
C335   O356    1.281   .     A
C335   C338    1.449   .     S
C335   O358    1.276   .     A
C336   O357    1.282   .     A
C336   O359    1.287   .     A
C337   C821    1.412   1_554 S
C337   Cl824   1.764   1_554 S
C339   H354    1.083   .     S
C340   Cl348   1.773   .     S
C340   C811    1.402   1_554 S
C340   C818    1.431   1_554 S
C341   C342    1.427   .     A
C341   C817    1.431   .     S
C341   C820    1.425   .     S
C342   C346    1.418   .     A
C343   C818    1.425   1_554 S
C343   C821    1.423   1_554 S
C344   C345    1.395   .     A
C344   C814    1.412   .     S
C344   C820    1.423   .     S
C345   H352    1.082   .     S
C345   C346    1.387   .     A
Cl347  C814    1.764   .     S
Cl349  C434    1.773   1_455 S
O355   Zn371   1.929   .     S
O355   Zn368   1.961   .     S
O355   Zn369   1.954   .     S
O355   Zn370   1.935   .     S
O356   Zn369   1.921   .     S
O357   Zn371   1.934   .     S
O358   Zn370   1.931   .     S
O359   Zn368   1.918   .     S
O360   Zn368   1.938   .     S
O361   Zn371   1.939   .     S
O362   Zn369   1.932   .     S
O363   Zn370   1.945   .     S
O364   Zn371   1.944   .     S
O365   Zn368   1.932   .     S
O366   Zn369   1.941   .     S
O367   Zn370   1.936   .     S
Br372  C435    1.933   .     S
Br373  C66     1.931   1_565 S
Br374  C864    1.921   1_554 S
Br375  C399    1.930   .     S
C376   O417    1.267   .     A
C376   O415    1.268   .     A
C376   C382    1.429   .     S
C377   C391    1.389   .     A
C377   C396    1.404   .     A
C377   H406    1.079   .     S
C378   H403    1.084   .     S
C378   C390    1.393   .     A
C378   C391    1.395   .     A
C379   O418    1.271   .     A
C379   C381    1.458   .     S
C379   O416    1.288   .     A
C380   C395    1.416   .     A
C380   C389    1.474   .     S
C380   C392    1.399   .     A
C381   C435    1.354   .     S
C381   Cl455   1.773   .     S
C383   C386    1.451   .     S
C383   C66     1.344   1_565 S
C383   H86     1.088   1_565 S
C384   C385    1.427   .     S
C385   O413    1.278   .     A
C385   O419    1.276   .     A
C386   O420    1.276   .     A
C386   O414    1.261   .     A
C387   C392    1.387   .     A
C387   Br851   1.921   .     S
C387   C870    1.402   .     S
C388   O409    1.281   .     A
C388   C391    1.449   .     S
C388   O411    1.276   .     A
C389   O410    1.282   .     A
C389   O412    1.287   .     A
C390   C874    1.412   1_554 S
C390   Cl877   1.764   1_554 S
C392   H407    1.083   .     S
C393   Cl401   1.773   .     S
C393   C864    1.402   1_554 S
C393   C871    1.431   1_554 S
C394   C395    1.427   .     A
C394   C870    1.431   .     S
C394   C873    1.425   .     S
C395   C399    1.418   .     A
C396   C871    1.425   1_554 S
C396   C874    1.423   1_554 S
C397   C398    1.395   .     A
C397   C867    1.412   .     S
C397   C873    1.423   .     S
C398   H405    1.082   .     S
C398   C399    1.387   .     A
Cl400  C867    1.764   .     S
O408   Zn424   1.929   .     S
O408   Zn421   1.961   .     S
O408   Zn422   1.954   .     S
O408   Zn423   1.935   .     S
O409   Zn422   1.921   .     S
O410   Zn424   1.934   .     S
O411   Zn423   1.931   .     S
O412   Zn421   1.918   .     S
O413   Zn421   1.938   .     S
O414   Zn424   1.939   .     S
O415   Zn422   1.932   .     S
O416   Zn423   1.945   .     S
O417   Zn424   1.944   .     S
O418   Zn421   1.932   .     S
O419   Zn422   1.941   .     S
O420   Zn423   1.936   .     S
Br425  C329    1.933   1_655 S
Br426  C119    1.931   1_565 S
Br427  C917    1.921   1_554 S
Br428  C452    1.930   .     S
C429   O470    1.267   .     A
C429   O468    1.268   .     A
C429   C435    1.429   .     S
C430   C444    1.389   .     A
C430   C449    1.404   .     A
C430   H459    1.079   .     S
C431   H456    1.084   .     S
C431   C443    1.393   .     A
C431   C444    1.395   .     A
C432   O471    1.271   .     A
C432   C434    1.458   .     S
C432   O469    1.288   .     A
C433   C448    1.416   .     A
C433   C442    1.474   .     S
C433   C445    1.399   .     A
C434   C329    1.354   1_655 S
C434   Cl349   1.773   1_655 S
C436   C439    1.451   .     S
C436   C119    1.344   1_565 S
C436   H139    1.088   1_565 S
C437   C438    1.427   .     S
C438   O466    1.278   .     A
C438   O472    1.276   .     A
C439   O473    1.276   .     A
C439   O467    1.261   .     A
C440   C445    1.387   .     A
C440   Br904   1.921   .     S
C440   C923    1.402   .     S
C441   O462    1.281   .     A
C441   C444    1.449   .     S
C441   O464    1.276   .     A
C442   O463    1.282   .     A
C442   O465    1.287   .     A
C443   C927    1.412   1_554 S
C443   Cl930   1.764   1_554 S
C445   H460    1.083   .     S
C446   Cl454   1.773   .     S
C446   C917    1.402   1_554 S
C446   C924    1.431   1_554 S
C447   C448    1.427   .     A
C447   C923    1.431   .     S
C447   C926    1.425   .     S
C448   C452    1.418   .     A
C449   C924    1.425   1_554 S
C449   C927    1.423   1_554 S
C450   C451    1.395   .     A
C450   C920    1.412   .     S
C450   C926    1.423   .     S
C451   H458    1.082   .     S
C451   C452    1.387   .     A
Cl453  C920    1.764   .     S
O461   Zn477   1.929   .     S
O461   Zn474   1.961   .     S
O461   Zn475   1.954   .     S
O461   Zn476   1.935   .     S
O462   Zn475   1.921   .     S
O463   Zn477   1.934   .     S
O464   Zn476   1.931   .     S
O465   Zn474   1.918   .     S
O466   Zn474   1.938   .     S
O467   Zn477   1.939   .     S
O468   Zn475   1.932   .     S
O469   Zn476   1.945   .     S
O470   Zn477   1.944   .     S
O471   Zn474   1.932   .     S
O472   Zn475   1.941   .     S
O473   Zn476   1.936   .     S
Br478  C541    1.933   .     S
Br479  C649    1.931   .     S
Br481  C505    1.930   .     S
C482   O523    1.267   .     A
C482   O521    1.268   .     A
C482   C488    1.429   .     S
C483   C497    1.389   .     A
C483   C502    1.404   .     A
C483   H512    1.079   .     S
C484   H509    1.084   .     S
C484   C496    1.393   .     A
C484   C497    1.395   .     A
C485   O524    1.271   .     A
C485   C487    1.458   .     S
C485   O522    1.288   .     A
C486   C501    1.416   .     A
C486   C495    1.474   .     S
C486   C498    1.399   .     A
C487   C541    1.354   .     S
C487   Cl561   1.773   .     S
C488   C593    1.354   1_455 S
C488   Br584   1.933   1_455 S
C489   C492    1.451   .     S
C489   C649    1.344   .     S
C489   H669    1.088   .     S
C490   C491    1.427   .     S
C490   Br797   1.931   1_545 S
C490   C807    1.344   1_545 S
C491   O519    1.278   .     A
C491   O525    1.276   .     A
C492   O526    1.276   .     A
C492   O520    1.261   .     A
C493   C498    1.387   .     A
C493   Br3     1.921   1_556 S
C493   C22     1.402   1_556 S
C494   O515    1.281   .     A
C494   C497    1.449   .     S
C494   O517    1.276   .     A
C495   O516    1.282   .     A
C495   O518    1.287   .     A
C498   H513    1.083   .     S
C499   Cl507   1.773   .     S
C500   C501    1.427   .     A
C500   C22     1.431   1_556 S
C500   C25     1.425   1_556 S
C501   C505    1.418   .     A
C503   C504    1.395   .     A
C503   C19     1.412   1_556 S
C503   C25     1.423   1_556 S
C504   H511    1.082   .     S
C504   C505    1.387   .     A
Cl506  C19     1.764   1_556 S
Cl508  C593    1.773   1_455 S
H510   C807    1.088   1_545 S
O514   Zn530   1.929   .     S
O514   Zn527   1.961   .     S
O514   Zn528   1.954   .     S
O514   Zn529   1.935   .     S
O515   Zn528   1.921   .     S
O516   Zn530   1.934   .     S
O517   Zn529   1.931   .     S
O518   Zn527   1.918   .     S
O519   Zn527   1.938   .     S
O520   Zn530   1.939   .     S
O521   Zn528   1.932   .     S
O522   Zn529   1.945   .     S
O523   Zn530   1.944   .     S
O524   Zn527   1.932   .     S
O525   Zn528   1.941   .     S
O526   Zn529   1.936   .     S
Br531  C594    1.933   .     S
Br532  C702    1.931   .     S
Br534  C558    1.930   .     S
C535   O576    1.267   .     A
C535   O574    1.268   .     A
C535   C541    1.429   .     S
C536   C550    1.389   .     A
C536   C555    1.404   .     A
C536   H565    1.079   .     S
C537   H562    1.084   .     S
C537   C549    1.393   .     A
C537   C550    1.395   .     A
C538   O577    1.271   .     A
C538   C540    1.458   .     S
C538   O575    1.288   .     A
C539   C554    1.416   .     A
C539   C548    1.474   .     S
C539   C551    1.399   .     A
C540   C594    1.354   .     S
C540   Cl614   1.773   .     S
C542   C545    1.451   .     S
C542   C702    1.344   .     S
C542   H722    1.088   .     S
C543   C544    1.427   .     S
C543   Br850   1.931   1_545 S
C543   C860    1.344   1_545 S
C544   O572    1.278   .     A
C544   O578    1.276   .     A
C545   O579    1.276   .     A
C545   O573    1.261   .     A
C546   C551    1.387   .     A
C546   Br56    1.921   1_556 S
C546   C75     1.402   1_556 S
C547   O568    1.281   .     A
C547   C550    1.449   .     S
C547   O570    1.276   .     A
C548   O569    1.282   .     A
C548   O571    1.287   .     A
C551   H566    1.083   .     S
C552   Cl560   1.773   .     S
C553   C554    1.427   .     A
C553   C75     1.431   1_556 S
C553   C78     1.425   1_556 S
C554   C558    1.418   .     A
C556   C557    1.395   .     A
C556   C72     1.412   1_556 S
C556   C78     1.423   1_556 S
C557   H564    1.082   .     S
C557   C558    1.387   .     A
Cl559  C72     1.764   1_556 S
H563   C860    1.088   1_545 S
O567   Zn583   1.929   .     S
O567   Zn580   1.961   .     S
O567   Zn581   1.954   .     S
O567   Zn582   1.935   .     S
O568   Zn581   1.921   .     S
O569   Zn583   1.934   .     S
O570   Zn582   1.931   .     S
O571   Zn580   1.918   .     S
O572   Zn580   1.938   .     S
O573   Zn583   1.939   .     S
O574   Zn581   1.932   .     S
O575   Zn582   1.945   .     S
O576   Zn583   1.944   .     S
O577   Zn580   1.932   .     S
O578   Zn581   1.941   .     S
O579   Zn582   1.936   .     S
Br584  C488    1.933   1_655 S
Br585  C755    1.931   .     S
Br587  C611    1.930   .     S
C588   O629    1.267   .     A
C588   O627    1.268   .     A
C588   C594    1.429   .     S
C589   C603    1.389   .     A
C589   C608    1.404   .     A
C589   H618    1.079   .     S
C590   H615    1.084   .     S
C590   C602    1.393   .     A
C590   C603    1.395   .     A
C591   O630    1.271   .     A
C591   C593    1.458   .     S
C591   O628    1.288   .     A
C592   C607    1.416   .     A
C592   C601    1.474   .     S
C592   C604    1.399   .     A
C593   C488    1.354   1_655 S
C593   Cl508   1.773   1_655 S
C595   C598    1.451   .     S
C595   C755    1.344   .     S
C595   H775    1.088   .     S
C596   C597    1.427   .     S
C596   Br903   1.931   1_545 S
C596   C913    1.344   1_545 S
C597   O625    1.278   .     A
C597   O631    1.276   .     A
C598   O632    1.276   .     A
C598   O626    1.261   .     A
C599   C604    1.387   .     A
C599   Br109   1.921   1_556 S
C599   C128    1.402   1_556 S
C600   O621    1.281   .     A
C600   C603    1.449   .     S
C600   O623    1.276   .     A
C601   O622    1.282   .     A
C601   O624    1.287   .     A
C604   H619    1.083   .     S
C605   Cl613   1.773   .     S
C606   C607    1.427   .     A
C606   C128    1.431   1_556 S
C606   C131    1.425   1_556 S
C607   C611    1.418   .     A
C609   C610    1.395   .     A
C609   C125    1.412   1_556 S
C609   C131    1.423   1_556 S
C610   H617    1.082   .     S
C610   C611    1.387   .     A
Cl612  C125    1.764   1_556 S
H616   C913    1.088   1_545 S
O620   Zn636   1.929   .     S
O620   Zn633   1.961   .     S
O620   Zn634   1.954   .     S
O620   Zn635   1.935   .     S
O621   Zn634   1.921   .     S
O622   Zn636   1.934   .     S
O623   Zn635   1.931   .     S
O624   Zn633   1.918   .     S
O625   Zn633   1.938   .     S
O626   Zn636   1.939   .     S
O627   Zn634   1.932   .     S
O628   Zn635   1.945   .     S
O629   Zn636   1.944   .     S
O630   Zn633   1.932   .     S
O631   Zn634   1.941   .     S
O632   Zn635   1.936   .     S
Br637  C700    1.933   .     S
Br638  C808    1.931   .     S
Br640  C664    1.930   .     S
C641   O682    1.267   .     A
C641   O680    1.268   .     A
C641   C647    1.429   .     S
C642   C656    1.389   .     A
C642   C661    1.404   .     A
C642   H671    1.079   .     S
C643   H668    1.084   .     S
C643   C655    1.393   .     A
C643   C656    1.395   .     A
C644   O683    1.271   .     A
C644   C646    1.458   .     S
C644   O681    1.288   .     A
C645   C660    1.416   .     A
C645   C654    1.474   .     S
C645   C657    1.399   .     A
C646   C700    1.354   .     S
C646   Cl720   1.773   .     S
C647   C752    1.354   1_455 S
C647   Br743   1.933   1_455 S
C648   C651    1.451   .     S
C648   C808    1.344   .     S
C648   H828    1.088   .     S
C649   C650    1.427   .     S
C650   O678    1.278   .     A
C650   O684    1.276   .     A
C651   O685    1.276   .     A
C651   O679    1.261   .     A
C652   C657    1.387   .     A
C652   Br162   1.921   1_556 S
C652   C181    1.402   1_556 S
C653   O674    1.281   .     A
C653   C656    1.449   .     S
C653   O676    1.276   .     A
C654   O675    1.282   .     A
C654   O677    1.287   .     A
C657   H672    1.083   .     S
C658   Cl666   1.773   .     S
C659   C660    1.427   .     A
C659   C181    1.431   1_556 S
C659   C184    1.425   1_556 S
C660   C664    1.418   .     A
C662   C663    1.395   .     A
C662   C178    1.412   1_556 S
C662   C184    1.423   1_556 S
C663   H670    1.082   .     S
C663   C664    1.387   .     A
Cl665  C178    1.764   1_556 S
Cl667  C752    1.773   1_455 S
O673   Zn689   1.929   .     S
O673   Zn686   1.961   .     S
O673   Zn687   1.954   .     S
O673   Zn688   1.935   .     S
O674   Zn687   1.921   .     S
O675   Zn689   1.934   .     S
O676   Zn688   1.931   .     S
O677   Zn686   1.918   .     S
O678   Zn686   1.938   .     S
O679   Zn689   1.939   .     S
O680   Zn687   1.932   .     S
O681   Zn688   1.945   .     S
O682   Zn689   1.944   .     S
O683   Zn686   1.932   .     S
O684   Zn687   1.941   .     S
O685   Zn688   1.936   .     S
Br690  C753    1.933   .     S
Br691  C861    1.931   .     S
Br693  C717    1.930   .     S
C694   O735    1.267   .     A
C694   O733    1.268   .     A
C694   C700    1.429   .     S
C695   C709    1.389   .     A
C695   C714    1.404   .     A
C695   H724    1.079   .     S
C696   H721    1.084   .     S
C696   C708    1.393   .     A
C696   C709    1.395   .     A
C697   O736    1.271   .     A
C697   C699    1.458   .     S
C697   O734    1.288   .     A
C698   C713    1.416   .     A
C698   C707    1.474   .     S
C698   C710    1.399   .     A
C699   C753    1.354   .     S
C699   Cl773   1.773   .     S
C701   C704    1.451   .     S
C701   C861    1.344   .     S
C701   H881    1.088   .     S
C702   C703    1.427   .     S
C703   O731    1.278   .     A
C703   O737    1.276   .     A
C704   O738    1.276   .     A
C704   O732    1.261   .     A
C705   C710    1.387   .     A
C705   Br215   1.921   1_556 S
C705   C234    1.402   1_556 S
C706   O727    1.281   .     A
C706   C709    1.449   .     S
C706   O729    1.276   .     A
C707   O728    1.282   .     A
C707   O730    1.287   .     A
C710   H725    1.083   .     S
C711   Cl719   1.773   .     S
C712   C713    1.427   .     A
C712   C234    1.431   1_556 S
C712   C237    1.425   1_556 S
C713   C717    1.418   .     A
C715   C716    1.395   .     A
C715   C231    1.412   1_556 S
C715   C237    1.423   1_556 S
C716   H723    1.082   .     S
C716   C717    1.387   .     A
Cl718  C231    1.764   1_556 S
O726   Zn742   1.929   .     S
O726   Zn739   1.961   .     S
O726   Zn740   1.954   .     S
O726   Zn741   1.935   .     S
O727   Zn740   1.921   .     S
O728   Zn742   1.934   .     S
O729   Zn741   1.931   .     S
O730   Zn739   1.918   .     S
O731   Zn739   1.938   .     S
O732   Zn742   1.939   .     S
O733   Zn740   1.932   .     S
O734   Zn741   1.945   .     S
O735   Zn742   1.944   .     S
O736   Zn739   1.932   .     S
O737   Zn740   1.941   .     S
O738   Zn741   1.936   .     S
Br743  C647    1.933   1_655 S
Br744  C914    1.931   .     S
Br746  C770    1.930   .     S
C747   O788    1.267   .     A
C747   O786    1.268   .     A
C747   C753    1.429   .     S
C748   C762    1.389   .     A
C748   C767    1.404   .     A
C748   H777    1.079   .     S
C749   H774    1.084   .     S
C749   C761    1.393   .     A
C749   C762    1.395   .     A
C750   O789    1.271   .     A
C750   C752    1.458   .     S
C750   O787    1.288   .     A
C751   C766    1.416   .     A
C751   C760    1.474   .     S
C751   C763    1.399   .     A
C752   C647    1.354   1_655 S
C752   Cl667   1.773   1_655 S
C754   C757    1.451   .     S
C754   C914    1.344   .     S
C754   H934    1.088   .     S
C755   C756    1.427   .     S
C756   O784    1.278   .     A
C756   O790    1.276   .     A
C757   O791    1.276   .     A
C757   O785    1.261   .     A
C758   C763    1.387   .     A
C758   Br268   1.921   1_556 S
C758   C287    1.402   1_556 S
C759   O780    1.281   .     A
C759   C762    1.449   .     S
C759   O782    1.276   .     A
C760   O781    1.282   .     A
C760   O783    1.287   .     A
C763   H778    1.083   .     S
C764   Cl772   1.773   .     S
C765   C766    1.427   .     A
C765   C287    1.431   1_556 S
C765   C290    1.425   1_556 S
C766   C770    1.418   .     A
C768   C769    1.395   .     A
C768   C284    1.412   1_556 S
C768   C290    1.423   1_556 S
C769   H776    1.082   .     S
C769   C770    1.387   .     A
Cl771  C284    1.764   1_556 S
O779   Zn795   1.929   .     S
O779   Zn792   1.961   .     S
O779   Zn793   1.954   .     S
O779   Zn794   1.935   .     S
O780   Zn793   1.921   .     S
O781   Zn795   1.934   .     S
O782   Zn794   1.931   .     S
O783   Zn792   1.918   .     S
O784   Zn792   1.938   .     S
O785   Zn795   1.939   .     S
O786   Zn793   1.932   .     S
O787   Zn794   1.945   .     S
O788   Zn795   1.944   .     S
O789   Zn792   1.932   .     S
O790   Zn793   1.941   .     S
O791   Zn794   1.936   .     S
Br796  C859    1.933   .     S
Br797  C490    1.931   1_565 S
Br799  C823    1.930   .     S
C800   O841    1.267   .     A
C800   O839    1.268   .     A
C800   C806    1.429   .     S
C801   C815    1.389   .     A
C801   C820    1.404   .     A
C801   H830    1.079   .     S
C802   H827    1.084   .     S
C802   C814    1.393   .     A
C802   C815    1.395   .     A
C803   O842    1.271   .     A
C803   C805    1.458   .     S
C803   O840    1.288   .     A
C804   C819    1.416   .     A
C804   C813    1.474   .     S
C804   C816    1.399   .     A
C805   C859    1.354   .     S
C805   Cl879   1.773   .     S
C806   C911    1.354   1_455 S
C806   Br902   1.933   1_455 S
C807   C810    1.451   .     S
C807   C490    1.344   1_565 S
C807   H510    1.088   1_565 S
C808   C809    1.427   .     S
C809   O837    1.278   .     A
C809   O843    1.276   .     A
C810   O844    1.276   .     A
C810   O838    1.261   .     A
C811   C816    1.387   .     A
C811   Br321   1.921   1_556 S
C811   C340    1.402   1_556 S
C812   O833    1.281   .     A
C812   C815    1.449   .     S
C812   O835    1.276   .     A
C813   O834    1.282   .     A
C813   O836    1.287   .     A
C816   H831    1.083   .     S
C817   Cl825   1.773   .     S
C818   C819    1.427   .     A
C818   C340    1.431   1_556 S
C818   C343    1.425   1_556 S
C819   C823    1.418   .     A
C821   C822    1.395   .     A
C821   C337    1.412   1_556 S
C821   C343    1.423   1_556 S
C822   H829    1.082   .     S
C822   C823    1.387   .     A
Cl824  C337    1.764   1_556 S
Cl826  C911    1.773   1_455 S
O832   Zn848   1.929   .     S
O832   Zn845   1.961   .     S
O832   Zn846   1.954   .     S
O832   Zn847   1.935   .     S
O833   Zn846   1.921   .     S
O834   Zn848   1.934   .     S
O835   Zn847   1.931   .     S
O836   Zn845   1.918   .     S
O837   Zn845   1.938   .     S
O838   Zn848   1.939   .     S
O839   Zn846   1.932   .     S
O840   Zn847   1.945   .     S
O841   Zn848   1.944   .     S
O842   Zn845   1.932   .     S
O843   Zn846   1.941   .     S
O844   Zn847   1.936   .     S
Br849  C912    1.933   .     S
Br850  C543    1.931   1_565 S
Br852  C876    1.930   .     S
C853   O894    1.267   .     A
C853   O892    1.268   .     A
C853   C859    1.429   .     S
C854   C868    1.389   .     A
C854   C873    1.404   .     A
C854   H883    1.079   .     S
C855   H880    1.084   .     S
C855   C867    1.393   .     A
C855   C868    1.395   .     A
C856   O895    1.271   .     A
C856   C858    1.458   .     S
C856   O893    1.288   .     A
C857   C872    1.416   .     A
C857   C866    1.474   .     S
C857   C869    1.399   .     A
C858   C912    1.354   .     S
C858   Cl932   1.773   .     S
C860   C863    1.451   .     S
C860   C543    1.344   1_565 S
C860   H563    1.088   1_565 S
C861   C862    1.427   .     S
C862   O890    1.278   .     A
C862   O896    1.276   .     A
C863   O897    1.276   .     A
C863   O891    1.261   .     A
C864   C869    1.387   .     A
C864   Br374   1.921   1_556 S
C864   C393    1.402   1_556 S
C865   O886    1.281   .     A
C865   C868    1.449   .     S
C865   O888    1.276   .     A
C866   O887    1.282   .     A
C866   O889    1.287   .     A
C869   H884    1.083   .     S
C870   Cl878   1.773   .     S
C871   C872    1.427   .     A
C871   C393    1.431   1_556 S
C871   C396    1.425   1_556 S
C872   C876    1.418   .     A
C874   C875    1.395   .     A
C874   C390    1.412   1_556 S
C874   C396    1.423   1_556 S
C875   H882    1.082   .     S
C875   C876    1.387   .     A
Cl877  C390    1.764   1_556 S
O885   Zn901   1.929   .     S
O885   Zn898   1.961   .     S
O885   Zn899   1.954   .     S
O885   Zn900   1.935   .     S
O886   Zn899   1.921   .     S
O887   Zn901   1.934   .     S
O888   Zn900   1.931   .     S
O889   Zn898   1.918   .     S
O890   Zn898   1.938   .     S
O891   Zn901   1.939   .     S
O892   Zn899   1.932   .     S
O893   Zn900   1.945   .     S
O894   Zn901   1.944   .     S
O895   Zn898   1.932   .     S
O896   Zn899   1.941   .     S
O897   Zn900   1.936   .     S
Br902  C806    1.933   1_655 S
Br903  C596    1.931   1_565 S
Br905  C929    1.930   .     S
C906   O947    1.267   .     A
C906   O945    1.268   .     A
C906   C912    1.429   .     S
C907   C921    1.389   .     A
C907   C926    1.404   .     A
C907   H936    1.079   .     S
C908   H933    1.084   .     S
C908   C920    1.393   .     A
C908   C921    1.395   .     A
C909   O948    1.271   .     A
C909   C911    1.458   .     S
C909   O946    1.288   .     A
C910   C925    1.416   .     A
C910   C919    1.474   .     S
C910   C922    1.399   .     A
C911   C806    1.354   1_655 S
C911   Cl826   1.773   1_655 S
C913   C916    1.451   .     S
C913   C596    1.344   1_565 S
C913   H616    1.088   1_565 S
C914   C915    1.427   .     S
C915   O943    1.278   .     A
C915   O949    1.276   .     A
C916   O950    1.276   .     A
C916   O944    1.261   .     A
C917   C922    1.387   .     A
C917   Br427   1.921   1_556 S
C917   C446    1.402   1_556 S
C918   O939    1.281   .     A
C918   C921    1.449   .     S
C918   O941    1.276   .     A
C919   O940    1.282   .     A
C919   O942    1.287   .     A
C922   H937    1.083   .     S
C923   Cl931   1.773   .     S
C924   C925    1.427   .     A
C924   C446    1.431   1_556 S
C924   C449    1.425   1_556 S
C925   C929    1.418   .     A
C927   C928    1.395   .     A
C927   C443    1.412   1_556 S
C927   C449    1.423   1_556 S
C928   H935    1.082   .     S
C928   C929    1.387   .     A
Cl930  C443    1.764   1_556 S
O938   Zn954   1.929   .     S
O938   Zn951   1.961   .     S
O938   Zn952   1.954   .     S
O938   Zn953   1.935   .     S
O939   Zn952   1.921   .     S
O940   Zn954   1.934   .     S
O941   Zn953   1.931   .     S
O942   Zn951   1.918   .     S
O943   Zn951   1.938   .     S
O944   Zn954   1.939   .     S
O945   Zn952   1.932   .     S
O946   Zn953   1.945   .     S
O947   Zn954   1.944   .     S
O948   Zn951   1.932   .     S
O949   Zn952   1.941   .     S
O950   Zn953   1.936   .     S
