data_str_m3_o1_o1_pcu_sym.56
_audit_creation_date              2020-01-03
_audit_creation_method            'Materials Studio'
_symmetry_space_group_name_H-M    'P1'
_symmetry_Int_Tables_number       1
_symmetry_cell_setting            triclinic
loop_
_symmetry_equiv_pos_as_xyz
  x,y,z
_cell_length_a                    31.5180
_cell_length_b                    28.9547
_cell_length_c                    30.2255
_cell_angle_alpha                 90.9218
_cell_angle_beta                  89.9776
_cell_angle_gamma                 90.2245
loop_
_atom_site_label
_atom_site_type_symbol
_atom_site_fract_x
_atom_site_fract_y
_atom_site_fract_z
_atom_site_U_iso_or_equiv
_atom_site_adp_type
_atom_site_occupancy
C1     C     0.06218   0.19251   0.16582   0.00000  Uiso   1.00
C2     C     0.00277   0.20980   0.30954   0.00000  Uiso   1.00
C3     C     0.49281   0.21038   0.02241   0.00000  Uiso   1.00
C4     C     0.49823   0.29059   0.31011   0.00000  Uiso   1.00
C5     C     0.25132   0.04088   0.02468   0.00000  Uiso   1.00
C6     C     0.24713   0.45919   0.30892   0.00000  Uiso   1.00
C7     C     0.25078   0.45917   0.02333   0.00000  Uiso   1.00
C8     C     0.25691   0.04036   0.31050   0.00000  Uiso   1.00
C9     C     0.37431   0.15668   0.13305   0.00000  Uiso   1.00
C10    C     0.10013   0.37288   0.20554   0.00000  Uiso   1.00
C11    C     0.12522   0.34289   0.13394   0.00000  Uiso   1.00
C12    C     0.43796   0.30731   0.16637   0.00000  Uiso   1.00
C13    C     0.39650   0.13282   0.20692   0.00000  Uiso   1.00
C14    C     0.12645   0.15979   0.19947   0.00000  Uiso   1.00
C15    C     0.40024   0.37056   0.13157   0.00000  Uiso   1.00
C16    C     0.36491   0.33030   0.19144   0.00000  Uiso   1.00
C17    C     0.10429   0.13223   0.12609   0.00000  Uiso   1.00
C18    C     0.14360   0.38555   0.12563   0.00000  Uiso   1.00
C19    C     0.37675   0.09009   0.20036   0.00000  Uiso   1.00
C20    C     0.35597   0.11347   0.12624   0.00000  Uiso   1.00
C21    C     0.12275   0.41361   0.19895   0.00000  Uiso   1.00
C22    C     0.33156   0.36210   0.18738   0.00000  Uiso   1.00
C23    C     0.43778   0.19251   0.16722   0.00000  Uiso   1.00
C24    C     0.12595   0.09107   0.13247   0.00000  Uiso   1.00
C25    C     0.14496   0.11705   0.20734   0.00000  Uiso   1.00
C26    C     0.37843   0.41029   0.14236   0.00000  Uiso   1.00
C27    C     0.09786   0.33978   0.17037   0.00000  Uiso   1.00
C28    C     0.40057   0.16263   0.17015   0.00000  Uiso   1.00
C29    C     0.40065   0.33614   0.16384   0.00000  Uiso   1.00
C30    C     0.09984   0.16337   0.16255   0.00000  Uiso   1.00
C31    C     0.35044   0.08498   0.16344   0.00000  Uiso   1.00
C32    C     0.14884   0.41636   0.16201   0.00000  Uiso   1.00
C33    C     0.15047   0.08647   0.17054   0.00000  Uiso   1.00
C34    C     0.06165   0.30838   0.16746   0.00000  Uiso   1.00
C35    C     0.34074   0.40441   0.16648   0.00000  Uiso   1.00
C36    C     0.03303   0.33004   0.04236   0.00000  Uiso   1.00
C37    C     0.00716   0.36779   0.06592   0.00000  Uiso   1.00
C38    C     0.03429   0.40960   0.07852   0.00000  Uiso   1.00
C39    C     0.03032   0.17010   0.29343   0.00000  Uiso   1.00
C40    C     0.00637   0.13095   0.26939   0.00000  Uiso   1.00
C41    C     0.03606   0.09265   0.25394   0.00000  Uiso   1.00
C42    C     0.46528   0.17094   0.03867   0.00000  Uiso   1.00
C43    C     0.48993   0.13193   0.06058   0.00000  Uiso   1.00
C44    C     0.46148   0.09388   0.07811   0.00000  Uiso   1.00
C45    C     0.30960   0.44002   0.16658   0.00000  Uiso   1.00
C46    C     0.48879   0.33602   0.28746   0.00000  Uiso   1.00
C47    C     0.44163   0.34737   0.28867   0.00000  Uiso   1.00
C48    C     0.43181   0.39149   0.26359   0.00000  Uiso   1.00
C49    C     0.24895   0.08720   0.04990   0.00000  Uiso   1.00
C50    C     0.20855   0.11459   0.03991   0.00000  Uiso   1.00
C51    C     0.21646   0.16668   0.03993   0.00000  Uiso   1.00
C52    C     0.24257   0.41313   0.28412   0.00000  Uiso   1.00
C53    C     0.19849   0.39087   0.28954   0.00000  Uiso   1.00
C54    C     0.20004   0.33832   0.29427   0.00000  Uiso   1.00
C55    C     0.25495   0.41350   0.04718   0.00000  Uiso   1.00
C56    C     0.18781   0.05728   0.16753   0.00000  Uiso   1.00
C57    C     0.29943   0.39191   0.04380   0.00000  Uiso   1.00
C58    C     0.29828   0.34168   0.05880   0.00000  Uiso   1.00
C59    C     0.28218   0.08048   0.29097   0.00000  Uiso   1.00
C60    C     0.25701   0.11672   0.26512   0.00000  Uiso   1.00
C61    C     0.28357   0.15997   0.25667   0.00000  Uiso   1.00
C62    C     0.35933   0.19675   0.10675   0.00000  Uiso   1.00
C63    C     0.08835   0.36085   0.25140   0.00000  Uiso   1.00
C64    C     0.14069   0.30074   0.10984   0.00000  Uiso   1.00
C65    C     0.40157   0.14986   0.25370   0.00000  Uiso   1.00
C66    C     0.14055   0.20178   0.22512   0.00000  Uiso   1.00
C67    C     0.18736   0.44361   0.16573   0.00000  Uiso   1.00
C68    C     0.40330   0.35842   0.08343   0.00000  Uiso   1.00
C69    C     0.35956   0.28866   0.21860   0.00000  Uiso   1.00
C70    C     0.09527   0.14605   0.07975   0.00000  Uiso   1.00
C71    C     0.14233   0.40218   0.07891   0.00000  Uiso   1.00
C72    C     0.39107   0.04896   0.22584   0.00000  Uiso   1.00
C73    C     0.35587   0.09394   0.07997   0.00000  Uiso   1.00
C74    C     0.11465   0.45617   0.22566   0.00000  Uiso   1.00
C75    C     0.28686   0.34914   0.19854   0.00000  Uiso   1.00
C76    C     0.11678   0.04983   0.10413   0.00000  Uiso   1.00
C77    C     0.14489   0.10088   0.25438   0.00000  Uiso   1.00
C78    C     0.31232   0.05700   0.16620   0.00000  Uiso   1.00
C79    C     0.39588   0.45564   0.12817   0.00000  Uiso   1.00
C80    C     0.00677   0.29011   0.02366   0.00000  Uiso   1.00
H81    H     0.05768   0.40009   0.10404   0.00000  Uiso   1.00
H82    H     0.01733   0.06385   0.23903   0.00000  Uiso   1.00
H83    H     0.48310   0.11522   0.29201   0.00000  Uiso   1.00
H84    H     0.48970   0.14394   0.24019   0.00000  Uiso   1.00
H85    H     0.05752   0.18327   0.27461   0.00000  Uiso   1.00
H86    H     0.04681   0.15507   0.32194   0.00000  Uiso   1.00
H87    H     0.44235   0.10703   0.10613   0.00000  Uiso   1.00
H88    H     0.44073   0.07989   0.05139   0.00000  Uiso   1.00
H89    H     0.48151   0.06538   0.09045   0.00000  Uiso   1.00
H90    H     0.01049   0.11509   0.03568   0.00000  Uiso   1.00
H91    H     0.00917   0.14555   0.08822   0.00000  Uiso   1.00
H92    H     0.05074   0.42339   0.04902   0.00000  Uiso   1.00
H93    H     0.43871   0.18425   0.05857   0.00000  Uiso   1.00
H94    H     0.44817   0.15554   0.01023   0.00000  Uiso   1.00
H95    H     0.44724   0.42166   0.28019   0.00000  Uiso   1.00
H96    H     0.44347   0.38900   0.22901   0.00000  Uiso   1.00
H97    H     0.39700   0.39726   0.26317   0.00000  Uiso   1.00
H98    H     0.42302   0.31803   0.27532   0.00000  Uiso   1.00
H99    H     0.43203   0.35300   0.32319   0.00000  Uiso   1.00
H100   H     0.00449   0.36583   0.30342   0.00000  Uiso   1.00
H101   H     0.00055   0.33565   0.25332   0.00000  Uiso   1.00
H102   H     0.22705   0.17871   0.07323   0.00000  Uiso   1.00
H103   H     0.01397   0.43724   0.09272   0.00000  Uiso   1.00
H104   H     0.24104   0.17577   0.01526   0.00000  Uiso   1.00
H105   H     0.18665   0.18481   0.03143   0.00000  Uiso   1.00
H106   H     0.19462   0.10320   0.00808   0.00000  Uiso   1.00
H107   H     0.18463   0.10795   0.06573   0.00000  Uiso   1.00
H108   H     0.24974   0.08307   0.08533   0.00000  Uiso   1.00
H109   H     0.27743   0.10868   0.04541   0.00000  Uiso   1.00
H110   H     0.20355   0.32139   0.26130   0.00000  Uiso   1.00
H111   H     0.22642   0.32745   0.31588   0.00000  Uiso   1.00
H112   H     0.17012   0.32588   0.30925   0.00000  Uiso   1.00
H113   H     0.18182   0.40655   0.31818   0.00000  Uiso   1.00
H114   H     0.48171   0.37962   0.04370   0.00000  Uiso   1.00
H115   H     0.17921   0.39782   0.26017   0.00000  Uiso   1.00
H116   H     0.24912   0.41642   0.24915   0.00000  Uiso   1.00
H117   H     0.26748   0.38900   0.29399   0.00000  Uiso   1.00
H118   H     0.29698   0.34029   0.09542   0.00000  Uiso   1.00
H119   H     0.27052   0.32280   0.04493   0.00000  Uiso   1.00
H120   H     0.32682   0.32334   0.04689   0.00000  Uiso   1.00
H121   H     0.31298   0.39330   0.01014   0.00000  Uiso   1.00
H122   H     0.32205   0.41173   0.06470   0.00000  Uiso   1.00
H123   H     0.24778   0.41700   0.08215   0.00000  Uiso   1.00
H124   H     0.23047   0.38888   0.03563   0.00000  Uiso   1.00
H125   H     0.49288   0.35477   0.09642   0.00000  Uiso   1.00
H126   H     0.29502   0.17566   0.28826   0.00000  Uiso   1.00
H127   H     0.31114   0.15121   0.23544   0.00000  Uiso   1.00
H128   H     0.26405   0.18585   0.23928   0.00000  Uiso   1.00
H129   H     0.24708   0.10330   0.23267   0.00000  Uiso   1.00
H130   H     0.22820   0.12718   0.28324   0.00000  Uiso   1.00
H131   H     0.29974   0.09941   0.31665   0.00000  Uiso   1.00
H132   H     0.30999   0.06702   0.27331   0.00000  Uiso   1.00
H133   H     0.31437   0.22264   0.06653   0.00000  Uiso   1.00
H134   H     0.09199   0.31300   0.29947   0.00000  Uiso   1.00
H135   H     0.18157   0.27308   0.06531   0.00000  Uiso   1.00
H136   H     0.06024   0.31725   0.06100   0.00000  Uiso   1.00
H137   H     0.40102   0.20361   0.29717   0.00000  Uiso   1.00
H138   H     0.18230   0.23008   0.26857   0.00000  Uiso   1.00
H139   H     0.40046   0.30770   0.03614   0.00000  Uiso   1.00
H140   H     0.34367   0.26251   0.27799   0.00000  Uiso   1.00
H141   H     0.09699   0.19635   0.03413   0.00000  Uiso   1.00
H142   H     0.12094   0.38922   0.01695   0.00000  Uiso   1.00
H143   H     0.43926   0.01793   0.25771   0.00000  Uiso   1.00
H144   H     0.36406   0.10469   0.01526   0.00000  Uiso   1.00
H145   H     0.08892   0.01971   0.22659   0.00000  Uiso   1.00
H146   H     0.22499   0.35146   0.18152   0.00000  Uiso   1.00
H147   H     0.05075   0.34679   0.01560   0.00000  Uiso   1.00
H148   H     0.07874   0.49484   0.09321   0.00000  Uiso   1.00
H149   H     0.12789   0.11465   0.31746   0.00000  Uiso   1.00
H150   H     0.44376   0.49033   0.09911   0.00000  Uiso   1.00
H151   H     0.05789   0.10572   0.22832   0.00000  Uiso   1.00
H152   H     0.05443   0.07913   0.28224   0.00000  Uiso   1.00
N153   N     0.00000   0.25000   0.28573   0.00000  Uiso   1.00
N154   N     0.00000   0.25000   0.04760   0.00000  Uiso   1.00
N155   N     0.25000   0.00000   0.28573   0.00000  Uiso   1.00
N156   N     0.25000   0.00000   0.04760   0.00000  Uiso   1.00
O157   O     0.04581   0.20419   0.20487   0.00000  Uiso   1.00
O158   O     0.20420   0.04581   0.12846   0.00000  Uiso   1.00
O159   O     0.20420   0.04581   0.20487   0.00000  Uiso   1.00
O160   O     0.29581   0.45419   0.12846   0.00000  Uiso   1.00
O161   O     0.20420   0.45419   0.12846   0.00000  Uiso   1.00
O162   O     0.29581   0.04581   0.20487   0.00000  Uiso   1.00
O163   O     0.29581   0.04581   0.12846   0.00000  Uiso   1.00
O164   O     0.20420   0.45419   0.20487   0.00000  Uiso   1.00
O165   O     0.37760   0.23390   0.10894   0.00000  Uiso   1.00
O166   O     0.32184   0.19300   0.08210   0.00000  Uiso   1.00
O167   O     0.07164   0.38930   0.27592   0.00000  Uiso   1.00
O168   O     0.45420   0.29581   0.12846   0.00000  Uiso   1.00
O169   O     0.09937   0.31744   0.26729   0.00000  Uiso   1.00
O170   O     0.12772   0.26258   0.12000   0.00000  Uiso   1.00
O171   O     0.17315   0.30416   0.07844   0.00000  Uiso   1.00
O172   O     0.40472   0.12247   0.28370   0.00000  Uiso   1.00
O173   O     0.39846   0.19686   0.26426   0.00000  Uiso   1.00
O174   O     0.12424   0.23925   0.21873   0.00000  Uiso   1.00
O175   O     0.17523   0.19929   0.25387   0.00000  Uiso   1.00
O176   O     0.40288   0.38881   0.05584   0.00000  Uiso   1.00
O177   O     0.40188   0.31220   0.06933   0.00000  Uiso   1.00
O178   O     0.36181   0.25049   0.20120   0.00000  Uiso   1.00
O179   O     0.45420   0.29581   0.20487   0.00000  Uiso   1.00
O180   O     0.34955   0.29321   0.26356   0.00000  Uiso   1.00
O181   O     0.08460   0.11715   0.05211   0.00000  Uiso   1.00
O182   O     0.10248   0.19152   0.06676   0.00000  Uiso   1.00
O183   O     0.14850   0.44276   0.07047   0.00000  Uiso   1.00
O184   O     0.12825   0.37246   0.04505   0.00000  Uiso   1.00
O185   O     0.36801   0.01549   0.23098   0.00000  Uiso   1.00
O186   O     0.43271   0.04759   0.24172   0.00000  Uiso   1.00
O187   O     0.35500   0.05220   0.07328   0.00000  Uiso   1.00
O188   O     0.36181   0.12283   0.04397   0.00000  Uiso   1.00
O189   O     0.12503   0.45909   0.26457   0.00000  Uiso   1.00
O190   O     0.04581   0.20419   0.12846   0.00000  Uiso   1.00
O191   O     0.09491   0.49326   0.20528   0.00000  Uiso   1.00
O192   O     0.27899   0.32493   0.23020   0.00000  Uiso   1.00
O193   O     0.25363   0.36332   0.17135   0.00000  Uiso   1.00
O194   O     0.13756   0.04174   0.07078   0.00000  Uiso   1.00
O195   O     0.08285   0.02116   0.11527   0.00000  Uiso   1.00
O196   O     0.15180   0.06065   0.26337   0.00000  Uiso   1.00
O197   O     0.13142   0.13078   0.28829   0.00000  Uiso   1.00
O198   O     0.37759   0.49143   0.13733   0.00000  Uiso   1.00
O199   O     0.43506   0.45764   0.10658   0.00000  Uiso   1.00
O200   O     0.45420   0.20419   0.12846   0.00000  Uiso   1.00
O201   O     0.04581   0.29581   0.20487   0.00000  Uiso   1.00
O202   O     0.04581   0.29581   0.12846   0.00000  Uiso   1.00
O203   O     0.45420   0.20419   0.20487   0.00000  Uiso   1.00
O204   O     0.29581   0.45419   0.20487   0.00000  Uiso   1.00
Zn205  Zn    0.00000   0.25000   0.21771   0.00000  Uiso   1.00
Zn206  Zn    0.00000   0.25000   0.11563   0.00000  Uiso   1.00
Zn207  Zn    0.25000   0.00000   0.21771   0.00000  Uiso   1.00
Zn208  Zn    0.25000   0.00000   0.11563   0.00000  Uiso   1.00
C209   C     0.56218   0.19251   0.16582   0.00000  Uiso   1.00
C210   C     0.50277   0.20980   0.30954   0.00000  Uiso   1.00
C211   C     0.99281   0.21038   0.02241   0.00000  Uiso   1.00
C212   C     0.99823   0.29059   0.31011   0.00000  Uiso   1.00
C213   C     0.75132   0.04088   0.02468   0.00000  Uiso   1.00
C214   C     0.74713   0.45919   0.30892   0.00000  Uiso   1.00
C215   C     0.75078   0.45917   0.02333   0.00000  Uiso   1.00
C216   C     0.75691   0.04036   0.31050   0.00000  Uiso   1.00
C217   C     0.87431   0.15668   0.13305   0.00000  Uiso   1.00
C218   C     0.60013   0.37288   0.20554   0.00000  Uiso   1.00
C219   C     0.62522   0.34289   0.13394   0.00000  Uiso   1.00
C220   C     0.93796   0.30731   0.16637   0.00000  Uiso   1.00
C221   C     0.89650   0.13282   0.20692   0.00000  Uiso   1.00
C222   C     0.62645   0.15979   0.19947   0.00000  Uiso   1.00
C223   C     0.90024   0.37056   0.13157   0.00000  Uiso   1.00
C224   C     0.86491   0.33030   0.19144   0.00000  Uiso   1.00
C225   C     0.60429   0.13223   0.12609   0.00000  Uiso   1.00
C226   C     0.64360   0.38555   0.12563   0.00000  Uiso   1.00
C227   C     0.87675   0.09009   0.20036   0.00000  Uiso   1.00
C228   C     0.85597   0.11347   0.12624   0.00000  Uiso   1.00
C229   C     0.62275   0.41361   0.19895   0.00000  Uiso   1.00
C230   C     0.83156   0.36210   0.18738   0.00000  Uiso   1.00
C231   C     0.93778   0.19251   0.16722   0.00000  Uiso   1.00
C232   C     0.62595   0.09107   0.13247   0.00000  Uiso   1.00
C233   C     0.64496   0.11705   0.20734   0.00000  Uiso   1.00
C234   C     0.87843   0.41029   0.14236   0.00000  Uiso   1.00
C235   C     0.59786   0.33978   0.17037   0.00000  Uiso   1.00
C236   C     0.90057   0.16263   0.17015   0.00000  Uiso   1.00
C237   C     0.90065   0.33614   0.16384   0.00000  Uiso   1.00
C238   C     0.59984   0.16337   0.16255   0.00000  Uiso   1.00
C239   C     0.85044   0.08498   0.16344   0.00000  Uiso   1.00
C240   C     0.64884   0.41636   0.16201   0.00000  Uiso   1.00
C241   C     0.65047   0.08647   0.17054   0.00000  Uiso   1.00
C242   C     0.56165   0.30838   0.16746   0.00000  Uiso   1.00
C243   C     0.84074   0.40441   0.16648   0.00000  Uiso   1.00
C244   C     0.53303   0.33004   0.04236   0.00000  Uiso   1.00
C245   C     0.50716   0.36779   0.06592   0.00000  Uiso   1.00
C246   C     0.53429   0.40960   0.07852   0.00000  Uiso   1.00
C247   C     0.53032   0.17010   0.29343   0.00000  Uiso   1.00
C248   C     0.50637   0.13095   0.26939   0.00000  Uiso   1.00
C249   C     0.53606   0.09265   0.25394   0.00000  Uiso   1.00
C250   C     0.96528   0.17094   0.03867   0.00000  Uiso   1.00
C251   C     0.98993   0.13193   0.06058   0.00000  Uiso   1.00
C252   C     0.96148   0.09388   0.07811   0.00000  Uiso   1.00
C253   C     0.80960   0.44002   0.16658   0.00000  Uiso   1.00
C254   C     0.98879   0.33602   0.28746   0.00000  Uiso   1.00
C255   C     0.94163   0.34737   0.28867   0.00000  Uiso   1.00
C256   C     0.93181   0.39149   0.26359   0.00000  Uiso   1.00
C257   C     0.74895   0.08720   0.04990   0.00000  Uiso   1.00
C258   C     0.70855   0.11459   0.03991   0.00000  Uiso   1.00
C259   C     0.71646   0.16668   0.03993   0.00000  Uiso   1.00
C260   C     0.74257   0.41313   0.28412   0.00000  Uiso   1.00
C261   C     0.69849   0.39087   0.28954   0.00000  Uiso   1.00
C262   C     0.70004   0.33832   0.29427   0.00000  Uiso   1.00
C263   C     0.75495   0.41350   0.04718   0.00000  Uiso   1.00
C264   C     0.68781   0.05728   0.16753   0.00000  Uiso   1.00
C265   C     0.79943   0.39191   0.04380   0.00000  Uiso   1.00
C266   C     0.79828   0.34168   0.05880   0.00000  Uiso   1.00
C267   C     0.78218   0.08048   0.29097   0.00000  Uiso   1.00
C268   C     0.75701   0.11672   0.26512   0.00000  Uiso   1.00
C269   C     0.78357   0.15997   0.25667   0.00000  Uiso   1.00
C270   C     0.85933   0.19675   0.10675   0.00000  Uiso   1.00
C271   C     0.58835   0.36085   0.25140   0.00000  Uiso   1.00
C272   C     0.64069   0.30074   0.10984   0.00000  Uiso   1.00
C273   C     0.90157   0.14986   0.25370   0.00000  Uiso   1.00
C274   C     0.64055   0.20178   0.22512   0.00000  Uiso   1.00
C275   C     0.68736   0.44361   0.16573   0.00000  Uiso   1.00
C276   C     0.90330   0.35842   0.08343   0.00000  Uiso   1.00
C277   C     0.85956   0.28866   0.21860   0.00000  Uiso   1.00
C278   C     0.59527   0.14605   0.07975   0.00000  Uiso   1.00
C279   C     0.64233   0.40218   0.07891   0.00000  Uiso   1.00
C280   C     0.89107   0.04896   0.22584   0.00000  Uiso   1.00
C281   C     0.85587   0.09394   0.07997   0.00000  Uiso   1.00
C282   C     0.61465   0.45617   0.22566   0.00000  Uiso   1.00
C283   C     0.78686   0.34914   0.19854   0.00000  Uiso   1.00
C284   C     0.61678   0.04983   0.10413   0.00000  Uiso   1.00
C285   C     0.64489   0.10088   0.25438   0.00000  Uiso   1.00
C286   C     0.81232   0.05700   0.16620   0.00000  Uiso   1.00
C287   C     0.89588   0.45564   0.12817   0.00000  Uiso   1.00
C288   C     0.50677   0.29011   0.02366   0.00000  Uiso   1.00
H289   H     0.55768   0.40009   0.10404   0.00000  Uiso   1.00
H290   H     0.51733   0.06385   0.23903   0.00000  Uiso   1.00
H291   H     0.98310   0.11522   0.29201   0.00000  Uiso   1.00
H292   H     0.98970   0.14394   0.24019   0.00000  Uiso   1.00
H293   H     0.55752   0.18327   0.27461   0.00000  Uiso   1.00
H294   H     0.54681   0.15507   0.32194   0.00000  Uiso   1.00
H295   H     0.94235   0.10703   0.10613   0.00000  Uiso   1.00
H296   H     0.94073   0.07989   0.05139   0.00000  Uiso   1.00
H297   H     0.98151   0.06538   0.09045   0.00000  Uiso   1.00
H298   H     0.51049   0.11509   0.03568   0.00000  Uiso   1.00
H299   H     0.50917   0.14555   0.08822   0.00000  Uiso   1.00
H300   H     0.55074   0.42339   0.04902   0.00000  Uiso   1.00
H301   H     0.93871   0.18425   0.05857   0.00000  Uiso   1.00
H302   H     0.94817   0.15554   0.01023   0.00000  Uiso   1.00
H303   H     0.94724   0.42166   0.28019   0.00000  Uiso   1.00
H304   H     0.94347   0.38900   0.22901   0.00000  Uiso   1.00
H305   H     0.89700   0.39726   0.26317   0.00000  Uiso   1.00
H306   H     0.92302   0.31803   0.27532   0.00000  Uiso   1.00
H307   H     0.93203   0.35300   0.32319   0.00000  Uiso   1.00
H308   H     0.50449   0.36583   0.30342   0.00000  Uiso   1.00
H309   H     0.50055   0.33565   0.25332   0.00000  Uiso   1.00
H310   H     0.72705   0.17871   0.07323   0.00000  Uiso   1.00
H311   H     0.51397   0.43724   0.09272   0.00000  Uiso   1.00
H312   H     0.74104   0.17577   0.01526   0.00000  Uiso   1.00
H313   H     0.68665   0.18481   0.03143   0.00000  Uiso   1.00
H314   H     0.69462   0.10320   0.00808   0.00000  Uiso   1.00
H315   H     0.68463   0.10795   0.06573   0.00000  Uiso   1.00
H316   H     0.74974   0.08307   0.08533   0.00000  Uiso   1.00
H317   H     0.77743   0.10868   0.04541   0.00000  Uiso   1.00
H318   H     0.70355   0.32139   0.26130   0.00000  Uiso   1.00
H319   H     0.72642   0.32745   0.31588   0.00000  Uiso   1.00
H320   H     0.67012   0.32588   0.30925   0.00000  Uiso   1.00
H321   H     0.68182   0.40655   0.31818   0.00000  Uiso   1.00
H322   H     0.98171   0.37962   0.04370   0.00000  Uiso   1.00
H323   H     0.67921   0.39782   0.26017   0.00000  Uiso   1.00
H324   H     0.74912   0.41642   0.24915   0.00000  Uiso   1.00
H325   H     0.76748   0.38900   0.29399   0.00000  Uiso   1.00
H326   H     0.79698   0.34029   0.09542   0.00000  Uiso   1.00
H327   H     0.77052   0.32280   0.04493   0.00000  Uiso   1.00
H328   H     0.82682   0.32334   0.04689   0.00000  Uiso   1.00
H329   H     0.81298   0.39330   0.01014   0.00000  Uiso   1.00
H330   H     0.82205   0.41173   0.06470   0.00000  Uiso   1.00
H331   H     0.74778   0.41700   0.08215   0.00000  Uiso   1.00
H332   H     0.73047   0.38888   0.03563   0.00000  Uiso   1.00
H333   H     0.99288   0.35477   0.09642   0.00000  Uiso   1.00
H334   H     0.79502   0.17566   0.28826   0.00000  Uiso   1.00
H335   H     0.81114   0.15121   0.23544   0.00000  Uiso   1.00
H336   H     0.76405   0.18585   0.23928   0.00000  Uiso   1.00
H337   H     0.74708   0.10330   0.23267   0.00000  Uiso   1.00
H338   H     0.72820   0.12718   0.28324   0.00000  Uiso   1.00
H339   H     0.79974   0.09941   0.31665   0.00000  Uiso   1.00
H340   H     0.80999   0.06702   0.27331   0.00000  Uiso   1.00
H341   H     0.81437   0.22264   0.06653   0.00000  Uiso   1.00
H342   H     0.59199   0.31300   0.29947   0.00000  Uiso   1.00
H343   H     0.68157   0.27308   0.06531   0.00000  Uiso   1.00
H344   H     0.56024   0.31725   0.06100   0.00000  Uiso   1.00
H345   H     0.90102   0.20361   0.29717   0.00000  Uiso   1.00
H346   H     0.68230   0.23008   0.26857   0.00000  Uiso   1.00
H347   H     0.90046   0.30770   0.03614   0.00000  Uiso   1.00
H348   H     0.84367   0.26251   0.27799   0.00000  Uiso   1.00
H349   H     0.59699   0.19635   0.03413   0.00000  Uiso   1.00
H350   H     0.62094   0.38922   0.01695   0.00000  Uiso   1.00
H351   H     0.93926   0.01793   0.25771   0.00000  Uiso   1.00
H352   H     0.86406   0.10469   0.01526   0.00000  Uiso   1.00
H353   H     0.58892   0.01971   0.22659   0.00000  Uiso   1.00
H354   H     0.72499   0.35146   0.18152   0.00000  Uiso   1.00
H355   H     0.55075   0.34679   0.01560   0.00000  Uiso   1.00
H356   H     0.57874   0.49484   0.09321   0.00000  Uiso   1.00
H357   H     0.62789   0.11465   0.31746   0.00000  Uiso   1.00
H358   H     0.94376   0.49033   0.09911   0.00000  Uiso   1.00
H359   H     0.55789   0.10572   0.22832   0.00000  Uiso   1.00
H360   H     0.55443   0.07913   0.28224   0.00000  Uiso   1.00
N361   N     0.50000   0.25000   0.28573   0.00000  Uiso   1.00
N362   N     0.50000   0.25000   0.04760   0.00000  Uiso   1.00
N363   N     0.75000   0.00000   0.28573   0.00000  Uiso   1.00
N364   N     0.75000   0.00000   0.04760   0.00000  Uiso   1.00
O365   O     0.54581   0.20419   0.20487   0.00000  Uiso   1.00
O366   O     0.70420   0.04581   0.12846   0.00000  Uiso   1.00
O367   O     0.70420   0.04581   0.20487   0.00000  Uiso   1.00
O368   O     0.79581   0.45419   0.12846   0.00000  Uiso   1.00
O369   O     0.70420   0.45419   0.12846   0.00000  Uiso   1.00
O370   O     0.79581   0.04581   0.20487   0.00000  Uiso   1.00
O371   O     0.79581   0.04581   0.12846   0.00000  Uiso   1.00
O372   O     0.70420   0.45419   0.20487   0.00000  Uiso   1.00
O373   O     0.87760   0.23390   0.10894   0.00000  Uiso   1.00
O374   O     0.82184   0.19300   0.08210   0.00000  Uiso   1.00
O375   O     0.57164   0.38930   0.27592   0.00000  Uiso   1.00
O376   O     0.95420   0.29581   0.12846   0.00000  Uiso   1.00
O377   O     0.59937   0.31744   0.26729   0.00000  Uiso   1.00
O378   O     0.62772   0.26258   0.12000   0.00000  Uiso   1.00
O379   O     0.67315   0.30416   0.07844   0.00000  Uiso   1.00
O380   O     0.90472   0.12247   0.28370   0.00000  Uiso   1.00
O381   O     0.89846   0.19686   0.26426   0.00000  Uiso   1.00
O382   O     0.62424   0.23925   0.21873   0.00000  Uiso   1.00
O383   O     0.67523   0.19929   0.25387   0.00000  Uiso   1.00
O384   O     0.90288   0.38881   0.05584   0.00000  Uiso   1.00
O385   O     0.90188   0.31220   0.06933   0.00000  Uiso   1.00
O386   O     0.86181   0.25049   0.20120   0.00000  Uiso   1.00
O387   O     0.95420   0.29581   0.20487   0.00000  Uiso   1.00
O388   O     0.84955   0.29321   0.26356   0.00000  Uiso   1.00
O389   O     0.58460   0.11715   0.05211   0.00000  Uiso   1.00
O390   O     0.60248   0.19152   0.06676   0.00000  Uiso   1.00
O391   O     0.64850   0.44276   0.07047   0.00000  Uiso   1.00
O392   O     0.62825   0.37246   0.04505   0.00000  Uiso   1.00
O393   O     0.86801   0.01549   0.23098   0.00000  Uiso   1.00
O394   O     0.93271   0.04759   0.24172   0.00000  Uiso   1.00
O395   O     0.85500   0.05220   0.07328   0.00000  Uiso   1.00
O396   O     0.86181   0.12283   0.04397   0.00000  Uiso   1.00
O397   O     0.62503   0.45909   0.26457   0.00000  Uiso   1.00
O398   O     0.54581   0.20419   0.12846   0.00000  Uiso   1.00
O399   O     0.59491   0.49326   0.20528   0.00000  Uiso   1.00
O400   O     0.77899   0.32493   0.23020   0.00000  Uiso   1.00
O401   O     0.75363   0.36332   0.17135   0.00000  Uiso   1.00
O402   O     0.63756   0.04174   0.07078   0.00000  Uiso   1.00
O403   O     0.58285   0.02116   0.11527   0.00000  Uiso   1.00
O404   O     0.65180   0.06065   0.26337   0.00000  Uiso   1.00
O405   O     0.63142   0.13078   0.28829   0.00000  Uiso   1.00
O406   O     0.87759   0.49143   0.13733   0.00000  Uiso   1.00
O407   O     0.93506   0.45764   0.10658   0.00000  Uiso   1.00
O408   O     0.95420   0.20419   0.12846   0.00000  Uiso   1.00
O409   O     0.54581   0.29581   0.20487   0.00000  Uiso   1.00
O410   O     0.54581   0.29581   0.12846   0.00000  Uiso   1.00
O411   O     0.95420   0.20419   0.20487   0.00000  Uiso   1.00
O412   O     0.79581   0.45419   0.20487   0.00000  Uiso   1.00
Zn413  Zn    0.50000   0.25000   0.21771   0.00000  Uiso   1.00
Zn414  Zn    0.50000   0.25000   0.11563   0.00000  Uiso   1.00
Zn415  Zn    0.75000   0.00000   0.21771   0.00000  Uiso   1.00
Zn416  Zn    0.75000   0.00000   0.11563   0.00000  Uiso   1.00
C417   C     0.06218   0.69251   0.16582   0.00000  Uiso   1.00
C418   C     0.00277   0.70980   0.30954   0.00000  Uiso   1.00
C419   C     0.49281   0.71038   0.02241   0.00000  Uiso   1.00
C420   C     0.49823   0.79059   0.31011   0.00000  Uiso   1.00
C421   C     0.25132   0.54088   0.02468   0.00000  Uiso   1.00
C422   C     0.24713   0.95919   0.30892   0.00000  Uiso   1.00
C423   C     0.25078   0.95917   0.02333   0.00000  Uiso   1.00
C424   C     0.25691   0.54036   0.31050   0.00000  Uiso   1.00
C425   C     0.37431   0.65668   0.13305   0.00000  Uiso   1.00
C426   C     0.10013   0.87288   0.20554   0.00000  Uiso   1.00
C427   C     0.12522   0.84289   0.13394   0.00000  Uiso   1.00
C428   C     0.43796   0.80731   0.16637   0.00000  Uiso   1.00
C429   C     0.39650   0.63282   0.20692   0.00000  Uiso   1.00
C430   C     0.12645   0.65979   0.19947   0.00000  Uiso   1.00
C431   C     0.40024   0.87056   0.13157   0.00000  Uiso   1.00
C432   C     0.36491   0.83030   0.19144   0.00000  Uiso   1.00
C433   C     0.10429   0.63223   0.12609   0.00000  Uiso   1.00
C434   C     0.14360   0.88555   0.12563   0.00000  Uiso   1.00
C435   C     0.37675   0.59009   0.20036   0.00000  Uiso   1.00
C436   C     0.35597   0.61347   0.12624   0.00000  Uiso   1.00
C437   C     0.12275   0.91361   0.19895   0.00000  Uiso   1.00
C438   C     0.33156   0.86210   0.18738   0.00000  Uiso   1.00
C439   C     0.43778   0.69251   0.16722   0.00000  Uiso   1.00
C440   C     0.12595   0.59107   0.13247   0.00000  Uiso   1.00
C441   C     0.14496   0.61705   0.20734   0.00000  Uiso   1.00
C442   C     0.37843   0.91029   0.14236   0.00000  Uiso   1.00
C443   C     0.09786   0.83978   0.17037   0.00000  Uiso   1.00
C444   C     0.40057   0.66263   0.17015   0.00000  Uiso   1.00
C445   C     0.40065   0.83614   0.16384   0.00000  Uiso   1.00
C446   C     0.09984   0.66337   0.16255   0.00000  Uiso   1.00
C447   C     0.35044   0.58498   0.16344   0.00000  Uiso   1.00
C448   C     0.14884   0.91636   0.16201   0.00000  Uiso   1.00
C449   C     0.15047   0.58647   0.17054   0.00000  Uiso   1.00
C450   C     0.06165   0.80838   0.16746   0.00000  Uiso   1.00
C451   C     0.34074   0.90441   0.16648   0.00000  Uiso   1.00
C452   C     0.03303   0.83004   0.04236   0.00000  Uiso   1.00
C453   C     0.00716   0.86779   0.06592   0.00000  Uiso   1.00
C454   C     0.03429   0.90960   0.07852   0.00000  Uiso   1.00
C455   C     0.03032   0.67010   0.29343   0.00000  Uiso   1.00
C456   C     0.00637   0.63095   0.26939   0.00000  Uiso   1.00
C457   C     0.03606   0.59265   0.25394   0.00000  Uiso   1.00
C458   C     0.46528   0.67094   0.03867   0.00000  Uiso   1.00
C459   C     0.48993   0.63193   0.06058   0.00000  Uiso   1.00
C460   C     0.46148   0.59388   0.07811   0.00000  Uiso   1.00
C461   C     0.30960   0.94002   0.16658   0.00000  Uiso   1.00
C462   C     0.48879   0.83602   0.28746   0.00000  Uiso   1.00
C463   C     0.44163   0.84737   0.28867   0.00000  Uiso   1.00
C464   C     0.43181   0.89149   0.26359   0.00000  Uiso   1.00
C465   C     0.24895   0.58720   0.04990   0.00000  Uiso   1.00
C466   C     0.20855   0.61459   0.03991   0.00000  Uiso   1.00
C467   C     0.21646   0.66668   0.03993   0.00000  Uiso   1.00
C468   C     0.24257   0.91313   0.28412   0.00000  Uiso   1.00
C469   C     0.19849   0.89087   0.28954   0.00000  Uiso   1.00
C470   C     0.20004   0.83832   0.29427   0.00000  Uiso   1.00
C471   C     0.25495   0.91350   0.04718   0.00000  Uiso   1.00
C472   C     0.18781   0.55728   0.16753   0.00000  Uiso   1.00
C473   C     0.29943   0.89191   0.04380   0.00000  Uiso   1.00
C474   C     0.29828   0.84168   0.05880   0.00000  Uiso   1.00
C475   C     0.28218   0.58048   0.29097   0.00000  Uiso   1.00
C476   C     0.25701   0.61672   0.26512   0.00000  Uiso   1.00
C477   C     0.28357   0.65997   0.25667   0.00000  Uiso   1.00
C478   C     0.35933   0.69675   0.10675   0.00000  Uiso   1.00
C479   C     0.08835   0.86085   0.25140   0.00000  Uiso   1.00
C480   C     0.14069   0.80074   0.10984   0.00000  Uiso   1.00
C481   C     0.40157   0.64986   0.25370   0.00000  Uiso   1.00
C482   C     0.14055   0.70178   0.22512   0.00000  Uiso   1.00
C483   C     0.18736   0.94361   0.16573   0.00000  Uiso   1.00
C484   C     0.40330   0.85842   0.08343   0.00000  Uiso   1.00
C485   C     0.35956   0.78866   0.21860   0.00000  Uiso   1.00
C486   C     0.09527   0.64605   0.07975   0.00000  Uiso   1.00
C487   C     0.14233   0.90218   0.07891   0.00000  Uiso   1.00
C488   C     0.39107   0.54896   0.22584   0.00000  Uiso   1.00
C489   C     0.35587   0.59394   0.07997   0.00000  Uiso   1.00
C490   C     0.11465   0.95617   0.22566   0.00000  Uiso   1.00
C491   C     0.28686   0.84914   0.19854   0.00000  Uiso   1.00
C492   C     0.11678   0.54983   0.10413   0.00000  Uiso   1.00
C493   C     0.14489   0.60088   0.25438   0.00000  Uiso   1.00
C494   C     0.31232   0.55700   0.16620   0.00000  Uiso   1.00
C495   C     0.39588   0.95564   0.12817   0.00000  Uiso   1.00
C496   C     0.00677   0.79011   0.02366   0.00000  Uiso   1.00
H497   H     0.05768   0.90009   0.10404   0.00000  Uiso   1.00
H498   H     0.01733   0.56385   0.23903   0.00000  Uiso   1.00
H499   H     0.48310   0.61522   0.29201   0.00000  Uiso   1.00
H500   H     0.48970   0.64394   0.24019   0.00000  Uiso   1.00
H501   H     0.05752   0.68327   0.27461   0.00000  Uiso   1.00
H502   H     0.04681   0.65507   0.32194   0.00000  Uiso   1.00
H503   H     0.44235   0.60703   0.10613   0.00000  Uiso   1.00
H504   H     0.44073   0.57989   0.05139   0.00000  Uiso   1.00
H505   H     0.48151   0.56538   0.09045   0.00000  Uiso   1.00
H506   H     0.01049   0.61509   0.03568   0.00000  Uiso   1.00
H507   H     0.00917   0.64555   0.08822   0.00000  Uiso   1.00
H508   H     0.05074   0.92339   0.04902   0.00000  Uiso   1.00
H509   H     0.43871   0.68425   0.05857   0.00000  Uiso   1.00
H510   H     0.44817   0.65554   0.01023   0.00000  Uiso   1.00
H511   H     0.44724   0.92166   0.28019   0.00000  Uiso   1.00
H512   H     0.44347   0.88900   0.22901   0.00000  Uiso   1.00
H513   H     0.39700   0.89726   0.26317   0.00000  Uiso   1.00
H514   H     0.42302   0.81803   0.27532   0.00000  Uiso   1.00
H515   H     0.43203   0.85300   0.32319   0.00000  Uiso   1.00
H516   H     0.00449   0.86583   0.30342   0.00000  Uiso   1.00
H517   H     0.00055   0.83565   0.25332   0.00000  Uiso   1.00
H518   H     0.22705   0.67871   0.07323   0.00000  Uiso   1.00
H519   H     0.01397   0.93724   0.09272   0.00000  Uiso   1.00
H520   H     0.24104   0.67577   0.01526   0.00000  Uiso   1.00
H521   H     0.18665   0.68481   0.03143   0.00000  Uiso   1.00
H522   H     0.19462   0.60320   0.00808   0.00000  Uiso   1.00
H523   H     0.18463   0.60795   0.06573   0.00000  Uiso   1.00
H524   H     0.24974   0.58307   0.08533   0.00000  Uiso   1.00
H525   H     0.27743   0.60868   0.04541   0.00000  Uiso   1.00
H526   H     0.20355   0.82139   0.26130   0.00000  Uiso   1.00
H527   H     0.22642   0.82745   0.31588   0.00000  Uiso   1.00
H528   H     0.17012   0.82588   0.30925   0.00000  Uiso   1.00
H529   H     0.18182   0.90655   0.31818   0.00000  Uiso   1.00
H530   H     0.48171   0.87962   0.04370   0.00000  Uiso   1.00
H531   H     0.17921   0.89782   0.26017   0.00000  Uiso   1.00
H532   H     0.24912   0.91642   0.24915   0.00000  Uiso   1.00
H533   H     0.26748   0.88900   0.29399   0.00000  Uiso   1.00
H534   H     0.29698   0.84029   0.09542   0.00000  Uiso   1.00
H535   H     0.27052   0.82280   0.04493   0.00000  Uiso   1.00
H536   H     0.32682   0.82334   0.04689   0.00000  Uiso   1.00
H537   H     0.31298   0.89330   0.01014   0.00000  Uiso   1.00
H538   H     0.32205   0.91173   0.06470   0.00000  Uiso   1.00
H539   H     0.24778   0.91700   0.08215   0.00000  Uiso   1.00
H540   H     0.23047   0.88888   0.03563   0.00000  Uiso   1.00
H541   H     0.49288   0.85477   0.09642   0.00000  Uiso   1.00
H542   H     0.29502   0.67566   0.28826   0.00000  Uiso   1.00
H543   H     0.31114   0.65121   0.23544   0.00000  Uiso   1.00
H544   H     0.26405   0.68585   0.23928   0.00000  Uiso   1.00
H545   H     0.24708   0.60330   0.23267   0.00000  Uiso   1.00
H546   H     0.22820   0.62718   0.28324   0.00000  Uiso   1.00
H547   H     0.29974   0.59941   0.31665   0.00000  Uiso   1.00
H548   H     0.30999   0.56702   0.27331   0.00000  Uiso   1.00
H549   H     0.31437   0.72264   0.06653   0.00000  Uiso   1.00
H550   H     0.09199   0.81300   0.29947   0.00000  Uiso   1.00
H551   H     0.18157   0.77308   0.06531   0.00000  Uiso   1.00
H552   H     0.06024   0.81725   0.06100   0.00000  Uiso   1.00
H553   H     0.40102   0.70361   0.29717   0.00000  Uiso   1.00
H554   H     0.18230   0.73008   0.26857   0.00000  Uiso   1.00
H555   H     0.40046   0.80770   0.03614   0.00000  Uiso   1.00
H556   H     0.34367   0.76251   0.27799   0.00000  Uiso   1.00
H557   H     0.09699   0.69635   0.03413   0.00000  Uiso   1.00
H558   H     0.12094   0.88922   0.01695   0.00000  Uiso   1.00
H559   H     0.43926   0.51793   0.25771   0.00000  Uiso   1.00
H560   H     0.36406   0.60469   0.01526   0.00000  Uiso   1.00
H561   H     0.08892   0.51971   0.22659   0.00000  Uiso   1.00
H562   H     0.22499   0.85146   0.18152   0.00000  Uiso   1.00
H563   H     0.05075   0.84679   0.01560   0.00000  Uiso   1.00
H564   H     0.07874   0.99484   0.09321   0.00000  Uiso   1.00
H565   H     0.12789   0.61465   0.31746   0.00000  Uiso   1.00
H566   H     0.44376   0.99033   0.09911   0.00000  Uiso   1.00
H567   H     0.05789   0.60572   0.22832   0.00000  Uiso   1.00
H568   H     0.05443   0.57913   0.28224   0.00000  Uiso   1.00
N569   N     0.00000   0.75000   0.28573   0.00000  Uiso   1.00
N570   N     0.00000   0.75000   0.04760   0.00000  Uiso   1.00
N571   N     0.25000   0.50000   0.28573   0.00000  Uiso   1.00
N572   N     0.25000   0.50000   0.04760   0.00000  Uiso   1.00
O573   O     0.04581   0.70419   0.20487   0.00000  Uiso   1.00
O574   O     0.20420   0.54581   0.12846   0.00000  Uiso   1.00
O575   O     0.20420   0.54581   0.20487   0.00000  Uiso   1.00
O576   O     0.29581   0.95419   0.12846   0.00000  Uiso   1.00
O577   O     0.20420   0.95419   0.12846   0.00000  Uiso   1.00
O578   O     0.29581   0.54581   0.20487   0.00000  Uiso   1.00
O579   O     0.29581   0.54581   0.12846   0.00000  Uiso   1.00
O580   O     0.20420   0.95419   0.20487   0.00000  Uiso   1.00
O581   O     0.37760   0.73390   0.10894   0.00000  Uiso   1.00
O582   O     0.32184   0.69300   0.08210   0.00000  Uiso   1.00
O583   O     0.07164   0.88930   0.27592   0.00000  Uiso   1.00
O584   O     0.45420   0.79581   0.12846   0.00000  Uiso   1.00
O585   O     0.09937   0.81744   0.26729   0.00000  Uiso   1.00
O586   O     0.12772   0.76258   0.12000   0.00000  Uiso   1.00
O587   O     0.17315   0.80416   0.07844   0.00000  Uiso   1.00
O588   O     0.40472   0.62247   0.28370   0.00000  Uiso   1.00
O589   O     0.39846   0.69686   0.26426   0.00000  Uiso   1.00
O590   O     0.12424   0.73925   0.21873   0.00000  Uiso   1.00
O591   O     0.17523   0.69929   0.25387   0.00000  Uiso   1.00
O592   O     0.40288   0.88881   0.05584   0.00000  Uiso   1.00
O593   O     0.40188   0.81220   0.06933   0.00000  Uiso   1.00
O594   O     0.36181   0.75049   0.20120   0.00000  Uiso   1.00
O595   O     0.45420   0.79581   0.20487   0.00000  Uiso   1.00
O596   O     0.34955   0.79321   0.26356   0.00000  Uiso   1.00
O597   O     0.08460   0.61715   0.05211   0.00000  Uiso   1.00
O598   O     0.10248   0.69152   0.06676   0.00000  Uiso   1.00
O599   O     0.14850   0.94276   0.07047   0.00000  Uiso   1.00
O600   O     0.12825   0.87246   0.04505   0.00000  Uiso   1.00
O601   O     0.36801   0.51549   0.23098   0.00000  Uiso   1.00
O602   O     0.43271   0.54759   0.24172   0.00000  Uiso   1.00
O603   O     0.35500   0.55220   0.07328   0.00000  Uiso   1.00
O604   O     0.36181   0.62283   0.04397   0.00000  Uiso   1.00
O605   O     0.12503   0.95909   0.26457   0.00000  Uiso   1.00
O606   O     0.04581   0.70419   0.12846   0.00000  Uiso   1.00
O607   O     0.09491   0.99326   0.20528   0.00000  Uiso   1.00
O608   O     0.27899   0.82493   0.23020   0.00000  Uiso   1.00
O609   O     0.25363   0.86332   0.17135   0.00000  Uiso   1.00
O610   O     0.13756   0.54174   0.07078   0.00000  Uiso   1.00
O611   O     0.08285   0.52116   0.11527   0.00000  Uiso   1.00
O612   O     0.15180   0.56065   0.26337   0.00000  Uiso   1.00
O613   O     0.13142   0.63078   0.28829   0.00000  Uiso   1.00
O614   O     0.37759   0.99143   0.13733   0.00000  Uiso   1.00
O615   O     0.43506   0.95764   0.10658   0.00000  Uiso   1.00
O616   O     0.45420   0.70419   0.12846   0.00000  Uiso   1.00
O617   O     0.04581   0.79581   0.20487   0.00000  Uiso   1.00
O618   O     0.04581   0.79581   0.12846   0.00000  Uiso   1.00
O619   O     0.45420   0.70419   0.20487   0.00000  Uiso   1.00
O620   O     0.29581   0.95419   0.20487   0.00000  Uiso   1.00
Zn621  Zn    0.00000   0.75000   0.21771   0.00000  Uiso   1.00
Zn622  Zn    0.00000   0.75000   0.11563   0.00000  Uiso   1.00
Zn623  Zn    0.25000   0.50000   0.21771   0.00000  Uiso   1.00
Zn624  Zn    0.25000   0.50000   0.11563   0.00000  Uiso   1.00
C625   C     0.56218   0.69251   0.16582   0.00000  Uiso   1.00
C626   C     0.50277   0.70980   0.30954   0.00000  Uiso   1.00
C627   C     0.99281   0.71038   0.02241   0.00000  Uiso   1.00
C628   C     0.99823   0.79059   0.31011   0.00000  Uiso   1.00
C629   C     0.75132   0.54088   0.02468   0.00000  Uiso   1.00
C630   C     0.74713   0.95919   0.30892   0.00000  Uiso   1.00
C631   C     0.75078   0.95917   0.02333   0.00000  Uiso   1.00
C632   C     0.75691   0.54036   0.31050   0.00000  Uiso   1.00
C633   C     0.87431   0.65668   0.13305   0.00000  Uiso   1.00
C634   C     0.60013   0.87288   0.20554   0.00000  Uiso   1.00
C635   C     0.62522   0.84289   0.13394   0.00000  Uiso   1.00
C636   C     0.93796   0.80731   0.16637   0.00000  Uiso   1.00
C637   C     0.89650   0.63282   0.20692   0.00000  Uiso   1.00
C638   C     0.62645   0.65979   0.19947   0.00000  Uiso   1.00
C639   C     0.90024   0.87056   0.13157   0.00000  Uiso   1.00
C640   C     0.86491   0.83030   0.19144   0.00000  Uiso   1.00
C641   C     0.60429   0.63223   0.12609   0.00000  Uiso   1.00
C642   C     0.64360   0.88555   0.12563   0.00000  Uiso   1.00
C643   C     0.87675   0.59009   0.20036   0.00000  Uiso   1.00
C644   C     0.85597   0.61347   0.12624   0.00000  Uiso   1.00
C645   C     0.62275   0.91361   0.19895   0.00000  Uiso   1.00
C646   C     0.83156   0.86210   0.18738   0.00000  Uiso   1.00
C647   C     0.93778   0.69251   0.16722   0.00000  Uiso   1.00
C648   C     0.62595   0.59107   0.13247   0.00000  Uiso   1.00
C649   C     0.64496   0.61705   0.20734   0.00000  Uiso   1.00
C650   C     0.87843   0.91029   0.14236   0.00000  Uiso   1.00
C651   C     0.59786   0.83978   0.17037   0.00000  Uiso   1.00
C652   C     0.90057   0.66263   0.17015   0.00000  Uiso   1.00
C653   C     0.90065   0.83614   0.16384   0.00000  Uiso   1.00
C654   C     0.59984   0.66337   0.16255   0.00000  Uiso   1.00
C655   C     0.85044   0.58498   0.16344   0.00000  Uiso   1.00
C656   C     0.64884   0.91636   0.16201   0.00000  Uiso   1.00
C657   C     0.65047   0.58647   0.17054   0.00000  Uiso   1.00
C658   C     0.56165   0.80838   0.16746   0.00000  Uiso   1.00
C659   C     0.84074   0.90441   0.16648   0.00000  Uiso   1.00
C660   C     0.53303   0.83004   0.04236   0.00000  Uiso   1.00
C661   C     0.50716   0.86779   0.06592   0.00000  Uiso   1.00
C662   C     0.53429   0.90960   0.07852   0.00000  Uiso   1.00
C663   C     0.53032   0.67010   0.29343   0.00000  Uiso   1.00
C664   C     0.50637   0.63095   0.26939   0.00000  Uiso   1.00
C665   C     0.53606   0.59265   0.25394   0.00000  Uiso   1.00
C666   C     0.96528   0.67094   0.03867   0.00000  Uiso   1.00
C667   C     0.98993   0.63193   0.06058   0.00000  Uiso   1.00
C668   C     0.96148   0.59388   0.07811   0.00000  Uiso   1.00
C669   C     0.80960   0.94002   0.16658   0.00000  Uiso   1.00
C670   C     0.98879   0.83602   0.28746   0.00000  Uiso   1.00
C671   C     0.94163   0.84737   0.28867   0.00000  Uiso   1.00
C672   C     0.93181   0.89149   0.26359   0.00000  Uiso   1.00
C673   C     0.74895   0.58720   0.04990   0.00000  Uiso   1.00
C674   C     0.70855   0.61459   0.03991   0.00000  Uiso   1.00
C675   C     0.71646   0.66668   0.03993   0.00000  Uiso   1.00
C676   C     0.74257   0.91313   0.28412   0.00000  Uiso   1.00
C677   C     0.69849   0.89087   0.28954   0.00000  Uiso   1.00
C678   C     0.70004   0.83832   0.29427   0.00000  Uiso   1.00
C679   C     0.75495   0.91350   0.04718   0.00000  Uiso   1.00
C680   C     0.68781   0.55728   0.16753   0.00000  Uiso   1.00
C681   C     0.79943   0.89191   0.04380   0.00000  Uiso   1.00
C682   C     0.79828   0.84168   0.05880   0.00000  Uiso   1.00
C683   C     0.78218   0.58048   0.29097   0.00000  Uiso   1.00
C684   C     0.75701   0.61672   0.26512   0.00000  Uiso   1.00
C685   C     0.78357   0.65997   0.25667   0.00000  Uiso   1.00
C686   C     0.85933   0.69675   0.10675   0.00000  Uiso   1.00
C687   C     0.58835   0.86085   0.25140   0.00000  Uiso   1.00
C688   C     0.64069   0.80074   0.10984   0.00000  Uiso   1.00
C689   C     0.90157   0.64986   0.25370   0.00000  Uiso   1.00
C690   C     0.64055   0.70178   0.22512   0.00000  Uiso   1.00
C691   C     0.68736   0.94361   0.16573   0.00000  Uiso   1.00
C692   C     0.90330   0.85842   0.08343   0.00000  Uiso   1.00
C693   C     0.85956   0.78866   0.21860   0.00000  Uiso   1.00
C694   C     0.59527   0.64605   0.07975   0.00000  Uiso   1.00
C695   C     0.64233   0.90218   0.07891   0.00000  Uiso   1.00
C696   C     0.89107   0.54896   0.22584   0.00000  Uiso   1.00
C697   C     0.85587   0.59394   0.07997   0.00000  Uiso   1.00
C698   C     0.61465   0.95617   0.22566   0.00000  Uiso   1.00
C699   C     0.78686   0.84914   0.19854   0.00000  Uiso   1.00
C700   C     0.61678   0.54983   0.10413   0.00000  Uiso   1.00
C701   C     0.64489   0.60088   0.25438   0.00000  Uiso   1.00
C702   C     0.81232   0.55700   0.16620   0.00000  Uiso   1.00
C703   C     0.89588   0.95564   0.12817   0.00000  Uiso   1.00
C704   C     0.50677   0.79011   0.02366   0.00000  Uiso   1.00
H705   H     0.55768   0.90009   0.10404   0.00000  Uiso   1.00
H706   H     0.51733   0.56385   0.23903   0.00000  Uiso   1.00
H707   H     0.98310   0.61522   0.29201   0.00000  Uiso   1.00
H708   H     0.98970   0.64394   0.24019   0.00000  Uiso   1.00
H709   H     0.55752   0.68327   0.27461   0.00000  Uiso   1.00
H710   H     0.54681   0.65507   0.32194   0.00000  Uiso   1.00
H711   H     0.94235   0.60703   0.10613   0.00000  Uiso   1.00
H712   H     0.94073   0.57989   0.05139   0.00000  Uiso   1.00
H713   H     0.98151   0.56538   0.09045   0.00000  Uiso   1.00
H714   H     0.51049   0.61509   0.03568   0.00000  Uiso   1.00
H715   H     0.50917   0.64555   0.08822   0.00000  Uiso   1.00
H716   H     0.55074   0.92339   0.04902   0.00000  Uiso   1.00
H717   H     0.93871   0.68425   0.05857   0.00000  Uiso   1.00
H718   H     0.94817   0.65554   0.01023   0.00000  Uiso   1.00
H719   H     0.94724   0.92166   0.28019   0.00000  Uiso   1.00
H720   H     0.94347   0.88900   0.22901   0.00000  Uiso   1.00
H721   H     0.89700   0.89726   0.26317   0.00000  Uiso   1.00
H722   H     0.92302   0.81803   0.27532   0.00000  Uiso   1.00
H723   H     0.93203   0.85300   0.32319   0.00000  Uiso   1.00
H724   H     0.50449   0.86583   0.30342   0.00000  Uiso   1.00
H725   H     0.50055   0.83565   0.25332   0.00000  Uiso   1.00
H726   H     0.72705   0.67871   0.07323   0.00000  Uiso   1.00
H727   H     0.51397   0.93724   0.09272   0.00000  Uiso   1.00
H728   H     0.74104   0.67577   0.01526   0.00000  Uiso   1.00
H729   H     0.68665   0.68481   0.03143   0.00000  Uiso   1.00
H730   H     0.69462   0.60320   0.00808   0.00000  Uiso   1.00
H731   H     0.68463   0.60795   0.06573   0.00000  Uiso   1.00
H732   H     0.74974   0.58307   0.08533   0.00000  Uiso   1.00
H733   H     0.77743   0.60868   0.04541   0.00000  Uiso   1.00
H734   H     0.70355   0.82139   0.26130   0.00000  Uiso   1.00
H735   H     0.72642   0.82745   0.31588   0.00000  Uiso   1.00
H736   H     0.67012   0.82588   0.30925   0.00000  Uiso   1.00
H737   H     0.68182   0.90655   0.31818   0.00000  Uiso   1.00
H738   H     0.98171   0.87962   0.04370   0.00000  Uiso   1.00
H739   H     0.67921   0.89782   0.26017   0.00000  Uiso   1.00
H740   H     0.74912   0.91642   0.24915   0.00000  Uiso   1.00
H741   H     0.76748   0.88900   0.29399   0.00000  Uiso   1.00
H742   H     0.79698   0.84029   0.09542   0.00000  Uiso   1.00
H743   H     0.77052   0.82280   0.04493   0.00000  Uiso   1.00
H744   H     0.82682   0.82334   0.04689   0.00000  Uiso   1.00
H745   H     0.81298   0.89330   0.01014   0.00000  Uiso   1.00
H746   H     0.82205   0.91173   0.06470   0.00000  Uiso   1.00
H747   H     0.74778   0.91700   0.08215   0.00000  Uiso   1.00
H748   H     0.73047   0.88888   0.03563   0.00000  Uiso   1.00
H749   H     0.99288   0.85477   0.09642   0.00000  Uiso   1.00
H750   H     0.79502   0.67566   0.28826   0.00000  Uiso   1.00
H751   H     0.81114   0.65121   0.23544   0.00000  Uiso   1.00
H752   H     0.76405   0.68585   0.23928   0.00000  Uiso   1.00
H753   H     0.74708   0.60330   0.23267   0.00000  Uiso   1.00
H754   H     0.72820   0.62718   0.28324   0.00000  Uiso   1.00
H755   H     0.79974   0.59941   0.31665   0.00000  Uiso   1.00
H756   H     0.80999   0.56702   0.27331   0.00000  Uiso   1.00
H757   H     0.81437   0.72264   0.06653   0.00000  Uiso   1.00
H758   H     0.59199   0.81300   0.29947   0.00000  Uiso   1.00
H759   H     0.68157   0.77308   0.06531   0.00000  Uiso   1.00
H760   H     0.56024   0.81725   0.06100   0.00000  Uiso   1.00
H761   H     0.90102   0.70361   0.29717   0.00000  Uiso   1.00
H762   H     0.68230   0.73008   0.26857   0.00000  Uiso   1.00
H763   H     0.90046   0.80770   0.03614   0.00000  Uiso   1.00
H764   H     0.84367   0.76251   0.27799   0.00000  Uiso   1.00
H765   H     0.59699   0.69635   0.03413   0.00000  Uiso   1.00
H766   H     0.62094   0.88922   0.01695   0.00000  Uiso   1.00
H767   H     0.93926   0.51793   0.25771   0.00000  Uiso   1.00
H768   H     0.86406   0.60469   0.01526   0.00000  Uiso   1.00
H769   H     0.58892   0.51971   0.22659   0.00000  Uiso   1.00
H770   H     0.72499   0.85146   0.18152   0.00000  Uiso   1.00
H771   H     0.55075   0.84679   0.01560   0.00000  Uiso   1.00
H772   H     0.57874   0.99484   0.09321   0.00000  Uiso   1.00
H773   H     0.62789   0.61465   0.31746   0.00000  Uiso   1.00
H774   H     0.94376   0.99033   0.09911   0.00000  Uiso   1.00
H775   H     0.55789   0.60572   0.22832   0.00000  Uiso   1.00
H776   H     0.55443   0.57913   0.28224   0.00000  Uiso   1.00
N777   N     0.50000   0.75000   0.28573   0.00000  Uiso   1.00
N778   N     0.50000   0.75000   0.04760   0.00000  Uiso   1.00
N779   N     0.75000   0.50000   0.28573   0.00000  Uiso   1.00
N780   N     0.75000   0.50000   0.04760   0.00000  Uiso   1.00
O781   O     0.54581   0.70419   0.20487   0.00000  Uiso   1.00
O782   O     0.70420   0.54581   0.12846   0.00000  Uiso   1.00
O783   O     0.70420   0.54581   0.20487   0.00000  Uiso   1.00
O784   O     0.79581   0.95419   0.12846   0.00000  Uiso   1.00
O785   O     0.70420   0.95419   0.12846   0.00000  Uiso   1.00
O786   O     0.79581   0.54581   0.20487   0.00000  Uiso   1.00
O787   O     0.79581   0.54581   0.12846   0.00000  Uiso   1.00
O788   O     0.70420   0.95419   0.20487   0.00000  Uiso   1.00
O789   O     0.87760   0.73390   0.10894   0.00000  Uiso   1.00
O790   O     0.82184   0.69300   0.08210   0.00000  Uiso   1.00
O791   O     0.57164   0.88930   0.27592   0.00000  Uiso   1.00
O792   O     0.95420   0.79581   0.12846   0.00000  Uiso   1.00
O793   O     0.59937   0.81744   0.26729   0.00000  Uiso   1.00
O794   O     0.62772   0.76258   0.12000   0.00000  Uiso   1.00
O795   O     0.67315   0.80416   0.07844   0.00000  Uiso   1.00
O796   O     0.90472   0.62247   0.28370   0.00000  Uiso   1.00
O797   O     0.89846   0.69686   0.26426   0.00000  Uiso   1.00
O798   O     0.62424   0.73925   0.21873   0.00000  Uiso   1.00
O799   O     0.67523   0.69929   0.25387   0.00000  Uiso   1.00
O800   O     0.90288   0.88881   0.05584   0.00000  Uiso   1.00
O801   O     0.90188   0.81220   0.06933   0.00000  Uiso   1.00
O802   O     0.86181   0.75049   0.20120   0.00000  Uiso   1.00
O803   O     0.95420   0.79581   0.20487   0.00000  Uiso   1.00
O804   O     0.84955   0.79321   0.26356   0.00000  Uiso   1.00
O805   O     0.58460   0.61715   0.05211   0.00000  Uiso   1.00
O806   O     0.60248   0.69152   0.06676   0.00000  Uiso   1.00
O807   O     0.64850   0.94276   0.07047   0.00000  Uiso   1.00
O808   O     0.62825   0.87246   0.04505   0.00000  Uiso   1.00
O809   O     0.86801   0.51549   0.23098   0.00000  Uiso   1.00
O810   O     0.93271   0.54759   0.24172   0.00000  Uiso   1.00
O811   O     0.85500   0.55220   0.07328   0.00000  Uiso   1.00
O812   O     0.86181   0.62283   0.04397   0.00000  Uiso   1.00
O813   O     0.62503   0.95909   0.26457   0.00000  Uiso   1.00
O814   O     0.54581   0.70419   0.12846   0.00000  Uiso   1.00
O815   O     0.59491   0.99326   0.20528   0.00000  Uiso   1.00
O816   O     0.77899   0.82493   0.23020   0.00000  Uiso   1.00
O817   O     0.75363   0.86332   0.17135   0.00000  Uiso   1.00
O818   O     0.63756   0.54174   0.07078   0.00000  Uiso   1.00
O819   O     0.58285   0.52116   0.11527   0.00000  Uiso   1.00
O820   O     0.65180   0.56065   0.26337   0.00000  Uiso   1.00
O821   O     0.63142   0.63078   0.28829   0.00000  Uiso   1.00
O822   O     0.87759   0.99143   0.13733   0.00000  Uiso   1.00
O823   O     0.93506   0.95764   0.10658   0.00000  Uiso   1.00
O824   O     0.95420   0.70419   0.12846   0.00000  Uiso   1.00
O825   O     0.54581   0.79581   0.20487   0.00000  Uiso   1.00
O826   O     0.54581   0.79581   0.12846   0.00000  Uiso   1.00
O827   O     0.95420   0.70419   0.20487   0.00000  Uiso   1.00
O828   O     0.79581   0.95419   0.20487   0.00000  Uiso   1.00
Zn829  Zn    0.50000   0.75000   0.21771   0.00000  Uiso   1.00
Zn830  Zn    0.50000   0.75000   0.11563   0.00000  Uiso   1.00
Zn831  Zn    0.75000   0.50000   0.21771   0.00000  Uiso   1.00
Zn832  Zn    0.75000   0.50000   0.11563   0.00000  Uiso   1.00
C833   C     0.06218   0.19251   0.49916   0.00000  Uiso   1.00
C834   C     0.00277   0.20980   0.64288   0.00000  Uiso   1.00
C835   C     0.49281   0.21038   0.35574   0.00000  Uiso   1.00
C836   C     0.49823   0.29059   0.64345   0.00000  Uiso   1.00
C837   C     0.25132   0.04088   0.35802   0.00000  Uiso   1.00
C838   C     0.24713   0.45919   0.64225   0.00000  Uiso   1.00
C839   C     0.25078   0.45917   0.35667   0.00000  Uiso   1.00
C840   C     0.25691   0.04036   0.64384   0.00000  Uiso   1.00
C841   C     0.37431   0.15668   0.46638   0.00000  Uiso   1.00
C842   C     0.10013   0.37288   0.53887   0.00000  Uiso   1.00
C843   C     0.12522   0.34289   0.46727   0.00000  Uiso   1.00
C844   C     0.43796   0.30731   0.49970   0.00000  Uiso   1.00
C845   C     0.39650   0.13282   0.54025   0.00000  Uiso   1.00
C846   C     0.12645   0.15979   0.53280   0.00000  Uiso   1.00
C847   C     0.40024   0.37056   0.46491   0.00000  Uiso   1.00
C848   C     0.36491   0.33030   0.52477   0.00000  Uiso   1.00
C849   C     0.10429   0.13223   0.45942   0.00000  Uiso   1.00
C850   C     0.14360   0.38555   0.45897   0.00000  Uiso   1.00
C851   C     0.37675   0.09009   0.53369   0.00000  Uiso   1.00
C852   C     0.35597   0.11347   0.45958   0.00000  Uiso   1.00
C853   C     0.12275   0.41361   0.53228   0.00000  Uiso   1.00
C854   C     0.33156   0.36210   0.52071   0.00000  Uiso   1.00
C855   C     0.43778   0.19251   0.50055   0.00000  Uiso   1.00
C856   C     0.12595   0.09107   0.46581   0.00000  Uiso   1.00
C857   C     0.14496   0.11705   0.54067   0.00000  Uiso   1.00
C858   C     0.37843   0.41029   0.47569   0.00000  Uiso   1.00
C859   C     0.09786   0.33978   0.50370   0.00000  Uiso   1.00
C860   C     0.40057   0.16263   0.50348   0.00000  Uiso   1.00
C861   C     0.40065   0.33614   0.49717   0.00000  Uiso   1.00
C862   C     0.09984   0.16337   0.49588   0.00000  Uiso   1.00
C863   C     0.35044   0.08498   0.49678   0.00000  Uiso   1.00
C864   C     0.14884   0.41636   0.49535   0.00000  Uiso   1.00
C865   C     0.15047   0.08647   0.50387   0.00000  Uiso   1.00
C866   C     0.06165   0.30838   0.50079   0.00000  Uiso   1.00
C867   C     0.34074   0.40441   0.49981   0.00000  Uiso   1.00
C868   C     0.03303   0.33004   0.37569   0.00000  Uiso   1.00
C869   C     0.00716   0.36779   0.39926   0.00000  Uiso   1.00
C870   C     0.03429   0.40960   0.41185   0.00000  Uiso   1.00
C871   C     0.03032   0.17010   0.62676   0.00000  Uiso   1.00
C872   C     0.00637   0.13095   0.60272   0.00000  Uiso   1.00
C873   C     0.03606   0.09265   0.58727   0.00000  Uiso   1.00
C874   C     0.46528   0.17094   0.37201   0.00000  Uiso   1.00
C875   C     0.48993   0.13193   0.39392   0.00000  Uiso   1.00
C876   C     0.46148   0.09388   0.41144   0.00000  Uiso   1.00
C877   C     0.30960   0.44002   0.49992   0.00000  Uiso   1.00
C878   C     0.48879   0.33602   0.62079   0.00000  Uiso   1.00
C879   C     0.44163   0.34737   0.62200   0.00000  Uiso   1.00
C880   C     0.43181   0.39149   0.59692   0.00000  Uiso   1.00
C881   C     0.24895   0.08720   0.38323   0.00000  Uiso   1.00
C882   C     0.20855   0.11459   0.37324   0.00000  Uiso   1.00
C883   C     0.21646   0.16668   0.37326   0.00000  Uiso   1.00
C884   C     0.24257   0.41313   0.61746   0.00000  Uiso   1.00
C885   C     0.19849   0.39087   0.62287   0.00000  Uiso   1.00
C886   C     0.20004   0.33832   0.62761   0.00000  Uiso   1.00
C887   C     0.25495   0.41350   0.38051   0.00000  Uiso   1.00
C888   C     0.18781   0.05728   0.50086   0.00000  Uiso   1.00
C889   C     0.29943   0.39191   0.37713   0.00000  Uiso   1.00
C890   C     0.29828   0.34168   0.39213   0.00000  Uiso   1.00
C891   C     0.28218   0.08048   0.62430   0.00000  Uiso   1.00
C892   C     0.25701   0.11672   0.59845   0.00000  Uiso   1.00
C893   C     0.28357   0.15997   0.59000   0.00000  Uiso   1.00
C894   C     0.35933   0.19675   0.44008   0.00000  Uiso   1.00
C895   C     0.08835   0.36085   0.58474   0.00000  Uiso   1.00
C896   C     0.14069   0.30074   0.44317   0.00000  Uiso   1.00
C897   C     0.40157   0.14986   0.58703   0.00000  Uiso   1.00
C898   C     0.14055   0.20178   0.55845   0.00000  Uiso   1.00
C899   C     0.18736   0.44361   0.49907   0.00000  Uiso   1.00
C900   C     0.40330   0.35842   0.41676   0.00000  Uiso   1.00
C901   C     0.35956   0.28866   0.55193   0.00000  Uiso   1.00
C902   C     0.09527   0.14605   0.41308   0.00000  Uiso   1.00
C903   C     0.14233   0.40218   0.41224   0.00000  Uiso   1.00
C904   C     0.39107   0.04896   0.55917   0.00000  Uiso   1.00
C905   C     0.35587   0.09394   0.41331   0.00000  Uiso   1.00
C906   C     0.11465   0.45617   0.55899   0.00000  Uiso   1.00
C907   C     0.28686   0.34914   0.53187   0.00000  Uiso   1.00
C908   C     0.11678   0.04983   0.43746   0.00000  Uiso   1.00
C909   C     0.14489   0.10088   0.58772   0.00000  Uiso   1.00
C910   C     0.31232   0.05700   0.49953   0.00000  Uiso   1.00
C911   C     0.39588   0.45564   0.46150   0.00000  Uiso   1.00
C912   C     0.00677   0.29011   0.35699   0.00000  Uiso   1.00
H913   H     0.05768   0.40009   0.43737   0.00000  Uiso   1.00
H914   H     0.01733   0.06385   0.57237   0.00000  Uiso   1.00
H915   H     0.48310   0.11522   0.62535   0.00000  Uiso   1.00
H916   H     0.48970   0.14394   0.57353   0.00000  Uiso   1.00
H917   H     0.05752   0.18327   0.60794   0.00000  Uiso   1.00
H918   H     0.04681   0.15507   0.65527   0.00000  Uiso   1.00
H919   H     0.44235   0.10703   0.43946   0.00000  Uiso   1.00
H920   H     0.44073   0.07989   0.38472   0.00000  Uiso   1.00
H921   H     0.48151   0.06538   0.42378   0.00000  Uiso   1.00
H922   H     0.01049   0.11509   0.36901   0.00000  Uiso   1.00
H923   H     0.00917   0.14555   0.42155   0.00000  Uiso   1.00
H924   H     0.05074   0.42339   0.38235   0.00000  Uiso   1.00
H925   H     0.43871   0.18425   0.39190   0.00000  Uiso   1.00
H926   H     0.44817   0.15554   0.34357   0.00000  Uiso   1.00
H927   H     0.44724   0.42166   0.61353   0.00000  Uiso   1.00
H928   H     0.44347   0.38900   0.56234   0.00000  Uiso   1.00
H929   H     0.39700   0.39726   0.59650   0.00000  Uiso   1.00
H930   H     0.42302   0.31803   0.60865   0.00000  Uiso   1.00
H931   H     0.43203   0.35300   0.65652   0.00000  Uiso   1.00
H932   H     0.00449   0.36583   0.63676   0.00000  Uiso   1.00
H933   H     0.00055   0.33565   0.58666   0.00000  Uiso   1.00
H934   H     0.22705   0.17871   0.40657   0.00000  Uiso   1.00
H935   H     0.01397   0.43724   0.42605   0.00000  Uiso   1.00
H936   H     0.24104   0.17577   0.34859   0.00000  Uiso   1.00
H937   H     0.18665   0.18481   0.36476   0.00000  Uiso   1.00
H938   H     0.19462   0.10320   0.34141   0.00000  Uiso   1.00
H939   H     0.18463   0.10795   0.39906   0.00000  Uiso   1.00
H940   H     0.24974   0.08307   0.41866   0.00000  Uiso   1.00
H941   H     0.27743   0.10868   0.37874   0.00000  Uiso   1.00
H942   H     0.20355   0.32139   0.59463   0.00000  Uiso   1.00
H943   H     0.22642   0.32745   0.64921   0.00000  Uiso   1.00
H944   H     0.17012   0.32588   0.64259   0.00000  Uiso   1.00
H945   H     0.18182   0.40655   0.65152   0.00000  Uiso   1.00
H946   H     0.48171   0.37962   0.37704   0.00000  Uiso   1.00
H947   H     0.17921   0.39782   0.59350   0.00000  Uiso   1.00
H948   H     0.24912   0.41642   0.58248   0.00000  Uiso   1.00
H949   H     0.26748   0.38900   0.62732   0.00000  Uiso   1.00
H950   H     0.29698   0.34029   0.42876   0.00000  Uiso   1.00
H951   H     0.27052   0.32280   0.37826   0.00000  Uiso   1.00
H952   H     0.32682   0.32334   0.38022   0.00000  Uiso   1.00
H953   H     0.31298   0.39330   0.34347   0.00000  Uiso   1.00
H954   H     0.32205   0.41173   0.39803   0.00000  Uiso   1.00
H955   H     0.24778   0.41700   0.41549   0.00000  Uiso   1.00
H956   H     0.23047   0.38888   0.36896   0.00000  Uiso   1.00
H957   H     0.49288   0.35477   0.42976   0.00000  Uiso   1.00
H958   H     0.29502   0.17566   0.62160   0.00000  Uiso   1.00
H959   H     0.31114   0.15121   0.56877   0.00000  Uiso   1.00
H960   H     0.26405   0.18585   0.57261   0.00000  Uiso   1.00
H961   H     0.24708   0.10330   0.56600   0.00000  Uiso   1.00
H962   H     0.22820   0.12718   0.61657   0.00000  Uiso   1.00
H963   H     0.29974   0.09941   0.64999   0.00000  Uiso   1.00
H964   H     0.30999   0.06702   0.60665   0.00000  Uiso   1.00
H965   H     0.31437   0.22264   0.39987   0.00000  Uiso   1.00
H966   H     0.09199   0.31300   0.63280   0.00000  Uiso   1.00
H967   H     0.18157   0.27308   0.39864   0.00000  Uiso   1.00
H968   H     0.06024   0.31725   0.39434   0.00000  Uiso   1.00
H969   H     0.40102   0.20361   0.63050   0.00000  Uiso   1.00
H970   H     0.18230   0.23008   0.60190   0.00000  Uiso   1.00
H971   H     0.40046   0.30770   0.36947   0.00000  Uiso   1.00
H972   H     0.34367   0.26251   0.61132   0.00000  Uiso   1.00
H973   H     0.09699   0.19635   0.36747   0.00000  Uiso   1.00
H974   H     0.12094   0.38922   0.35029   0.00000  Uiso   1.00
H975   H     0.43926   0.01793   0.59104   0.00000  Uiso   1.00
H976   H     0.36406   0.10469   0.34859   0.00000  Uiso   1.00
H977   H     0.08892   0.01971   0.55992   0.00000  Uiso   1.00
H978   H     0.22499   0.35146   0.51485   0.00000  Uiso   1.00
H979   H     0.05075   0.34679   0.34893   0.00000  Uiso   1.00
H980   H     0.07874   0.49484   0.42655   0.00000  Uiso   1.00
H981   H     0.12789   0.11465   0.65079   0.00000  Uiso   1.00
H982   H     0.44376   0.49033   0.43245   0.00000  Uiso   1.00
H983   H     0.05789   0.10572   0.56165   0.00000  Uiso   1.00
H984   H     0.05443   0.07913   0.61558   0.00000  Uiso   1.00
N985   N     0.00000   0.25000   0.61907   0.00000  Uiso   1.00
N986   N     0.00000   0.25000   0.38093   0.00000  Uiso   1.00
N987   N     0.25000   0.00000   0.61907   0.00000  Uiso   1.00
N988   N     0.25000   0.00000   0.38093   0.00000  Uiso   1.00
O989   O     0.04581   0.20419   0.53821   0.00000  Uiso   1.00
O990   O     0.20420   0.04581   0.46179   0.00000  Uiso   1.00
O991   O     0.20420   0.04581   0.53821   0.00000  Uiso   1.00
O992   O     0.29581   0.45419   0.46179   0.00000  Uiso   1.00
O993   O     0.20420   0.45419   0.46179   0.00000  Uiso   1.00
O994   O     0.29581   0.04581   0.53821   0.00000  Uiso   1.00
O995   O     0.29581   0.04581   0.46179   0.00000  Uiso   1.00
O996   O     0.20420   0.45419   0.53821   0.00000  Uiso   1.00
O997   O     0.37760   0.23390   0.44228   0.00000  Uiso   1.00
O998   O     0.32184   0.19300   0.41544   0.00000  Uiso   1.00
O999   O     0.07164   0.38930   0.60926   0.00000  Uiso   1.00
O1000  O     0.45420   0.29581   0.46179   0.00000  Uiso   1.00
O1001  O     0.09937   0.31744   0.60063   0.00000  Uiso   1.00
O1002  O     0.12772   0.26258   0.45333   0.00000  Uiso   1.00
O1003  O     0.17315   0.30416   0.41177   0.00000  Uiso   1.00
O1004  O     0.40472   0.12247   0.61704   0.00000  Uiso   1.00
O1005  O     0.39846   0.19686   0.59759   0.00000  Uiso   1.00
O1006  O     0.12424   0.23925   0.55207   0.00000  Uiso   1.00
O1007  O     0.17523   0.19929   0.58720   0.00000  Uiso   1.00
O1008  O     0.40288   0.38881   0.38917   0.00000  Uiso   1.00
O1009  O     0.40188   0.31220   0.40266   0.00000  Uiso   1.00
O1010  O     0.36181   0.25049   0.53454   0.00000  Uiso   1.00
O1011  O     0.45420   0.29581   0.53821   0.00000  Uiso   1.00
O1012  O     0.34955   0.29321   0.59689   0.00000  Uiso   1.00
O1013  O     0.08460   0.11715   0.38544   0.00000  Uiso   1.00
O1014  O     0.10248   0.19152   0.40009   0.00000  Uiso   1.00
O1015  O     0.14850   0.44276   0.40381   0.00000  Uiso   1.00
O1016  O     0.12825   0.37246   0.37839   0.00000  Uiso   1.00
O1017  O     0.36801   0.01549   0.56431   0.00000  Uiso   1.00
O1018  O     0.43271   0.04759   0.57506   0.00000  Uiso   1.00
O1019  O     0.35500   0.05220   0.40661   0.00000  Uiso   1.00
O1020  O     0.36181   0.12283   0.37730   0.00000  Uiso   1.00
O1021  O     0.12503   0.45909   0.59790   0.00000  Uiso   1.00
O1022  O     0.04581   0.20419   0.46179   0.00000  Uiso   1.00
O1023  O     0.09491   0.49326   0.53862   0.00000  Uiso   1.00
O1024  O     0.27899   0.32493   0.56353   0.00000  Uiso   1.00
O1025  O     0.25363   0.36332   0.50469   0.00000  Uiso   1.00
O1026  O     0.13756   0.04174   0.40411   0.00000  Uiso   1.00
O1027  O     0.08285   0.02116   0.44861   0.00000  Uiso   1.00
O1028  O     0.15180   0.06065   0.59670   0.00000  Uiso   1.00
O1029  O     0.13142   0.13078   0.62162   0.00000  Uiso   1.00
O1030  O     0.37759   0.49143   0.47066   0.00000  Uiso   1.00
O1031  O     0.43506   0.45764   0.43991   0.00000  Uiso   1.00
O1032  O     0.45420   0.20419   0.46179   0.00000  Uiso   1.00
O1033  O     0.04581   0.29581   0.53821   0.00000  Uiso   1.00
O1034  O     0.04581   0.29581   0.46179   0.00000  Uiso   1.00
O1035  O     0.45420   0.20419   0.53821   0.00000  Uiso   1.00
O1036  O     0.29581   0.45419   0.53821   0.00000  Uiso   1.00
Zn1037 Zn    0.00000   0.25000   0.55104   0.00000  Uiso   1.00
Zn1038 Zn    0.00000   0.25000   0.44896   0.00000  Uiso   1.00
Zn1039 Zn    0.25000   0.00000   0.55104   0.00000  Uiso   1.00
Zn1040 Zn    0.25000   0.00000   0.44896   0.00000  Uiso   1.00
C1041  C     0.56218   0.19251   0.49916   0.00000  Uiso   1.00
C1042  C     0.50277   0.20980   0.64288   0.00000  Uiso   1.00
C1043  C     0.99281   0.21038   0.35574   0.00000  Uiso   1.00
C1044  C     0.99823   0.29059   0.64345   0.00000  Uiso   1.00
C1045  C     0.75132   0.04088   0.35802   0.00000  Uiso   1.00
C1046  C     0.74713   0.45919   0.64225   0.00000  Uiso   1.00
C1047  C     0.75078   0.45917   0.35667   0.00000  Uiso   1.00
C1048  C     0.75691   0.04036   0.64384   0.00000  Uiso   1.00
C1049  C     0.87431   0.15668   0.46638   0.00000  Uiso   1.00
C1050  C     0.60013   0.37288   0.53887   0.00000  Uiso   1.00
C1051  C     0.62522   0.34289   0.46727   0.00000  Uiso   1.00
C1052  C     0.93796   0.30731   0.49970   0.00000  Uiso   1.00
C1053  C     0.89650   0.13282   0.54025   0.00000  Uiso   1.00
C1054  C     0.62645   0.15979   0.53280   0.00000  Uiso   1.00
C1055  C     0.90024   0.37056   0.46491   0.00000  Uiso   1.00
C1056  C     0.86491   0.33030   0.52477   0.00000  Uiso   1.00
C1057  C     0.60429   0.13223   0.45942   0.00000  Uiso   1.00
C1058  C     0.64360   0.38555   0.45897   0.00000  Uiso   1.00
C1059  C     0.87675   0.09009   0.53369   0.00000  Uiso   1.00
C1060  C     0.85597   0.11347   0.45958   0.00000  Uiso   1.00
C1061  C     0.62275   0.41361   0.53228   0.00000  Uiso   1.00
C1062  C     0.83156   0.36210   0.52071   0.00000  Uiso   1.00
C1063  C     0.93778   0.19251   0.50055   0.00000  Uiso   1.00
C1064  C     0.62595   0.09107   0.46581   0.00000  Uiso   1.00
C1065  C     0.64496   0.11705   0.54067   0.00000  Uiso   1.00
C1066  C     0.87843   0.41029   0.47569   0.00000  Uiso   1.00
C1067  C     0.59786   0.33978   0.50370   0.00000  Uiso   1.00
C1068  C     0.90057   0.16263   0.50348   0.00000  Uiso   1.00
C1069  C     0.90065   0.33614   0.49717   0.00000  Uiso   1.00
C1070  C     0.59984   0.16337   0.49588   0.00000  Uiso   1.00
C1071  C     0.85044   0.08498   0.49678   0.00000  Uiso   1.00
C1072  C     0.64884   0.41636   0.49535   0.00000  Uiso   1.00
C1073  C     0.65047   0.08647   0.50387   0.00000  Uiso   1.00
C1074  C     0.56165   0.30838   0.50079   0.00000  Uiso   1.00
C1075  C     0.84074   0.40441   0.49981   0.00000  Uiso   1.00
C1076  C     0.53303   0.33004   0.37569   0.00000  Uiso   1.00
C1077  C     0.50716   0.36779   0.39926   0.00000  Uiso   1.00
C1078  C     0.53429   0.40960   0.41185   0.00000  Uiso   1.00
C1079  C     0.53032   0.17010   0.62676   0.00000  Uiso   1.00
C1080  C     0.50637   0.13095   0.60272   0.00000  Uiso   1.00
C1081  C     0.53606   0.09265   0.58727   0.00000  Uiso   1.00
C1082  C     0.96528   0.17094   0.37201   0.00000  Uiso   1.00
C1083  C     0.98993   0.13193   0.39392   0.00000  Uiso   1.00
C1084  C     0.96148   0.09388   0.41144   0.00000  Uiso   1.00
C1085  C     0.80960   0.44002   0.49992   0.00000  Uiso   1.00
C1086  C     0.98879   0.33602   0.62079   0.00000  Uiso   1.00
C1087  C     0.94163   0.34737   0.62200   0.00000  Uiso   1.00
C1088  C     0.93181   0.39149   0.59692   0.00000  Uiso   1.00
C1089  C     0.74895   0.08720   0.38323   0.00000  Uiso   1.00
C1090  C     0.70855   0.11459   0.37324   0.00000  Uiso   1.00
C1091  C     0.71646   0.16668   0.37326   0.00000  Uiso   1.00
C1092  C     0.74257   0.41313   0.61746   0.00000  Uiso   1.00
C1093  C     0.69849   0.39087   0.62287   0.00000  Uiso   1.00
C1094  C     0.70004   0.33832   0.62761   0.00000  Uiso   1.00
C1095  C     0.75495   0.41350   0.38051   0.00000  Uiso   1.00
C1096  C     0.68781   0.05728   0.50086   0.00000  Uiso   1.00
C1097  C     0.79943   0.39191   0.37713   0.00000  Uiso   1.00
C1098  C     0.79828   0.34168   0.39213   0.00000  Uiso   1.00
C1099  C     0.78218   0.08048   0.62430   0.00000  Uiso   1.00
C1100  C     0.75701   0.11672   0.59845   0.00000  Uiso   1.00
C1101  C     0.78357   0.15997   0.59000   0.00000  Uiso   1.00
C1102  C     0.85933   0.19675   0.44008   0.00000  Uiso   1.00
C1103  C     0.58835   0.36085   0.58474   0.00000  Uiso   1.00
C1104  C     0.64069   0.30074   0.44317   0.00000  Uiso   1.00
C1105  C     0.90157   0.14986   0.58703   0.00000  Uiso   1.00
C1106  C     0.64055   0.20178   0.55845   0.00000  Uiso   1.00
C1107  C     0.68736   0.44361   0.49907   0.00000  Uiso   1.00
C1108  C     0.90330   0.35842   0.41676   0.00000  Uiso   1.00
C1109  C     0.85956   0.28866   0.55193   0.00000  Uiso   1.00
C1110  C     0.59527   0.14605   0.41308   0.00000  Uiso   1.00
C1111  C     0.64233   0.40218   0.41224   0.00000  Uiso   1.00
C1112  C     0.89107   0.04896   0.55917   0.00000  Uiso   1.00
C1113  C     0.85587   0.09394   0.41331   0.00000  Uiso   1.00
C1114  C     0.61465   0.45617   0.55899   0.00000  Uiso   1.00
C1115  C     0.78686   0.34914   0.53187   0.00000  Uiso   1.00
C1116  C     0.61678   0.04983   0.43746   0.00000  Uiso   1.00
C1117  C     0.64489   0.10088   0.58772   0.00000  Uiso   1.00
C1118  C     0.81232   0.05700   0.49953   0.00000  Uiso   1.00
C1119  C     0.89588   0.45564   0.46150   0.00000  Uiso   1.00
C1120  C     0.50677   0.29011   0.35699   0.00000  Uiso   1.00
H1121  H     0.55768   0.40009   0.43737   0.00000  Uiso   1.00
H1122  H     0.51733   0.06385   0.57237   0.00000  Uiso   1.00
H1123  H     0.98310   0.11522   0.62535   0.00000  Uiso   1.00
H1124  H     0.98970   0.14394   0.57353   0.00000  Uiso   1.00
H1125  H     0.55752   0.18327   0.60794   0.00000  Uiso   1.00
H1126  H     0.54681   0.15507   0.65527   0.00000  Uiso   1.00
H1127  H     0.94235   0.10703   0.43946   0.00000  Uiso   1.00
H1128  H     0.94073   0.07989   0.38472   0.00000  Uiso   1.00
H1129  H     0.98151   0.06538   0.42378   0.00000  Uiso   1.00
H1130  H     0.51049   0.11509   0.36901   0.00000  Uiso   1.00
H1131  H     0.50917   0.14555   0.42155   0.00000  Uiso   1.00
H1132  H     0.55074   0.42339   0.38235   0.00000  Uiso   1.00
H1133  H     0.93871   0.18425   0.39190   0.00000  Uiso   1.00
H1134  H     0.94817   0.15554   0.34357   0.00000  Uiso   1.00
H1135  H     0.94724   0.42166   0.61353   0.00000  Uiso   1.00
H1136  H     0.94347   0.38900   0.56234   0.00000  Uiso   1.00
H1137  H     0.89700   0.39726   0.59650   0.00000  Uiso   1.00
H1138  H     0.92302   0.31803   0.60865   0.00000  Uiso   1.00
H1139  H     0.93203   0.35300   0.65652   0.00000  Uiso   1.00
H1140  H     0.50449   0.36583   0.63676   0.00000  Uiso   1.00
H1141  H     0.50055   0.33565   0.58666   0.00000  Uiso   1.00
H1142  H     0.72705   0.17871   0.40657   0.00000  Uiso   1.00
H1143  H     0.51397   0.43724   0.42605   0.00000  Uiso   1.00
H1144  H     0.74104   0.17577   0.34859   0.00000  Uiso   1.00
H1145  H     0.68665   0.18481   0.36476   0.00000  Uiso   1.00
H1146  H     0.69462   0.10320   0.34141   0.00000  Uiso   1.00
H1147  H     0.68463   0.10795   0.39906   0.00000  Uiso   1.00
H1148  H     0.74974   0.08307   0.41866   0.00000  Uiso   1.00
H1149  H     0.77743   0.10868   0.37874   0.00000  Uiso   1.00
H1150  H     0.70355   0.32139   0.59463   0.00000  Uiso   1.00
H1151  H     0.72642   0.32745   0.64921   0.00000  Uiso   1.00
H1152  H     0.67012   0.32588   0.64259   0.00000  Uiso   1.00
H1153  H     0.68182   0.40655   0.65152   0.00000  Uiso   1.00
H1154  H     0.98171   0.37962   0.37704   0.00000  Uiso   1.00
H1155  H     0.67921   0.39782   0.59350   0.00000  Uiso   1.00
H1156  H     0.74912   0.41642   0.58248   0.00000  Uiso   1.00
H1157  H     0.76748   0.38900   0.62732   0.00000  Uiso   1.00
H1158  H     0.79698   0.34029   0.42876   0.00000  Uiso   1.00
H1159  H     0.77052   0.32280   0.37826   0.00000  Uiso   1.00
H1160  H     0.82682   0.32334   0.38022   0.00000  Uiso   1.00
H1161  H     0.81298   0.39330   0.34347   0.00000  Uiso   1.00
H1162  H     0.82205   0.41173   0.39803   0.00000  Uiso   1.00
H1163  H     0.74778   0.41700   0.41549   0.00000  Uiso   1.00
H1164  H     0.73047   0.38888   0.36896   0.00000  Uiso   1.00
H1165  H     0.99288   0.35477   0.42976   0.00000  Uiso   1.00
H1166  H     0.79502   0.17566   0.62160   0.00000  Uiso   1.00
H1167  H     0.81114   0.15121   0.56877   0.00000  Uiso   1.00
H1168  H     0.76405   0.18585   0.57261   0.00000  Uiso   1.00
H1169  H     0.74708   0.10330   0.56600   0.00000  Uiso   1.00
H1170  H     0.72820   0.12718   0.61657   0.00000  Uiso   1.00
H1171  H     0.79974   0.09941   0.64999   0.00000  Uiso   1.00
H1172  H     0.80999   0.06702   0.60665   0.00000  Uiso   1.00
H1173  H     0.81437   0.22264   0.39987   0.00000  Uiso   1.00
H1174  H     0.59199   0.31300   0.63280   0.00000  Uiso   1.00
H1175  H     0.68157   0.27308   0.39864   0.00000  Uiso   1.00
H1176  H     0.56024   0.31725   0.39434   0.00000  Uiso   1.00
H1177  H     0.90102   0.20361   0.63050   0.00000  Uiso   1.00
H1178  H     0.68230   0.23008   0.60190   0.00000  Uiso   1.00
H1179  H     0.90046   0.30770   0.36947   0.00000  Uiso   1.00
H1180  H     0.84367   0.26251   0.61132   0.00000  Uiso   1.00
H1181  H     0.59699   0.19635   0.36747   0.00000  Uiso   1.00
H1182  H     0.62094   0.38922   0.35029   0.00000  Uiso   1.00
H1183  H     0.93926   0.01793   0.59104   0.00000  Uiso   1.00
H1184  H     0.86406   0.10469   0.34859   0.00000  Uiso   1.00
H1185  H     0.58892   0.01971   0.55992   0.00000  Uiso   1.00
H1186  H     0.72499   0.35146   0.51485   0.00000  Uiso   1.00
H1187  H     0.55075   0.34679   0.34893   0.00000  Uiso   1.00
H1188  H     0.57874   0.49484   0.42655   0.00000  Uiso   1.00
H1189  H     0.62789   0.11465   0.65079   0.00000  Uiso   1.00
H1190  H     0.94376   0.49033   0.43245   0.00000  Uiso   1.00
H1191  H     0.55789   0.10572   0.56165   0.00000  Uiso   1.00
H1192  H     0.55443   0.07913   0.61558   0.00000  Uiso   1.00
N1193  N     0.50000   0.25000   0.61907   0.00000  Uiso   1.00
N1194  N     0.50000   0.25000   0.38093   0.00000  Uiso   1.00
N1195  N     0.75000   0.00000   0.61907   0.00000  Uiso   1.00
N1196  N     0.75000   0.00000   0.38093   0.00000  Uiso   1.00
O1197  O     0.54581   0.20419   0.53821   0.00000  Uiso   1.00
O1198  O     0.70420   0.04581   0.46179   0.00000  Uiso   1.00
O1199  O     0.70420   0.04581   0.53821   0.00000  Uiso   1.00
O1200  O     0.79581   0.45419   0.46179   0.00000  Uiso   1.00
O1201  O     0.70420   0.45419   0.46179   0.00000  Uiso   1.00
O1202  O     0.79581   0.04581   0.53821   0.00000  Uiso   1.00
O1203  O     0.79581   0.04581   0.46179   0.00000  Uiso   1.00
O1204  O     0.70420   0.45419   0.53821   0.00000  Uiso   1.00
O1205  O     0.87760   0.23390   0.44228   0.00000  Uiso   1.00
O1206  O     0.82184   0.19300   0.41544   0.00000  Uiso   1.00
O1207  O     0.57164   0.38930   0.60926   0.00000  Uiso   1.00
O1208  O     0.95420   0.29581   0.46179   0.00000  Uiso   1.00
O1209  O     0.59937   0.31744   0.60063   0.00000  Uiso   1.00
O1210  O     0.62772   0.26258   0.45333   0.00000  Uiso   1.00
O1211  O     0.67315   0.30416   0.41177   0.00000  Uiso   1.00
O1212  O     0.90472   0.12247   0.61704   0.00000  Uiso   1.00
O1213  O     0.89846   0.19686   0.59759   0.00000  Uiso   1.00
O1214  O     0.62424   0.23925   0.55207   0.00000  Uiso   1.00
O1215  O     0.67523   0.19929   0.58720   0.00000  Uiso   1.00
O1216  O     0.90288   0.38881   0.38917   0.00000  Uiso   1.00
O1217  O     0.90188   0.31220   0.40266   0.00000  Uiso   1.00
O1218  O     0.86181   0.25049   0.53454   0.00000  Uiso   1.00
O1219  O     0.95420   0.29581   0.53821   0.00000  Uiso   1.00
O1220  O     0.84955   0.29321   0.59689   0.00000  Uiso   1.00
O1221  O     0.58460   0.11715   0.38544   0.00000  Uiso   1.00
O1222  O     0.60248   0.19152   0.40009   0.00000  Uiso   1.00
O1223  O     0.64850   0.44276   0.40381   0.00000  Uiso   1.00
O1224  O     0.62825   0.37246   0.37839   0.00000  Uiso   1.00
O1225  O     0.86801   0.01549   0.56431   0.00000  Uiso   1.00
O1226  O     0.93271   0.04759   0.57506   0.00000  Uiso   1.00
O1227  O     0.85500   0.05220   0.40661   0.00000  Uiso   1.00
O1228  O     0.86181   0.12283   0.37730   0.00000  Uiso   1.00
O1229  O     0.62503   0.45909   0.59790   0.00000  Uiso   1.00
O1230  O     0.54581   0.20419   0.46179   0.00000  Uiso   1.00
O1231  O     0.59491   0.49326   0.53862   0.00000  Uiso   1.00
O1232  O     0.77899   0.32493   0.56353   0.00000  Uiso   1.00
O1233  O     0.75363   0.36332   0.50469   0.00000  Uiso   1.00
O1234  O     0.63756   0.04174   0.40411   0.00000  Uiso   1.00
O1235  O     0.58285   0.02116   0.44861   0.00000  Uiso   1.00
O1236  O     0.65180   0.06065   0.59670   0.00000  Uiso   1.00
O1237  O     0.63142   0.13078   0.62162   0.00000  Uiso   1.00
O1238  O     0.87759   0.49143   0.47066   0.00000  Uiso   1.00
O1239  O     0.93506   0.45764   0.43991   0.00000  Uiso   1.00
O1240  O     0.95420   0.20419   0.46179   0.00000  Uiso   1.00
O1241  O     0.54581   0.29581   0.53821   0.00000  Uiso   1.00
O1242  O     0.54581   0.29581   0.46179   0.00000  Uiso   1.00
O1243  O     0.95420   0.20419   0.53821   0.00000  Uiso   1.00
O1244  O     0.79581   0.45419   0.53821   0.00000  Uiso   1.00
Zn1245 Zn    0.50000   0.25000   0.55104   0.00000  Uiso   1.00
Zn1246 Zn    0.50000   0.25000   0.44896   0.00000  Uiso   1.00
Zn1247 Zn    0.75000   0.00000   0.55104   0.00000  Uiso   1.00
Zn1248 Zn    0.75000   0.00000   0.44896   0.00000  Uiso   1.00
C1249  C     0.06218   0.69251   0.49916   0.00000  Uiso   1.00
C1250  C     0.00277   0.70980   0.64288   0.00000  Uiso   1.00
C1251  C     0.49281   0.71038   0.35574   0.00000  Uiso   1.00
C1252  C     0.49823   0.79059   0.64345   0.00000  Uiso   1.00
C1253  C     0.25132   0.54088   0.35802   0.00000  Uiso   1.00
C1254  C     0.24713   0.95919   0.64225   0.00000  Uiso   1.00
C1255  C     0.25078   0.95917   0.35667   0.00000  Uiso   1.00
C1256  C     0.25691   0.54036   0.64384   0.00000  Uiso   1.00
C1257  C     0.37431   0.65668   0.46638   0.00000  Uiso   1.00
C1258  C     0.10013   0.87288   0.53887   0.00000  Uiso   1.00
C1259  C     0.12522   0.84289   0.46727   0.00000  Uiso   1.00
C1260  C     0.43796   0.80731   0.49970   0.00000  Uiso   1.00
C1261  C     0.39650   0.63282   0.54025   0.00000  Uiso   1.00
C1262  C     0.12645   0.65979   0.53280   0.00000  Uiso   1.00
C1263  C     0.40024   0.87056   0.46491   0.00000  Uiso   1.00
C1264  C     0.36491   0.83030   0.52477   0.00000  Uiso   1.00
C1265  C     0.10429   0.63223   0.45942   0.00000  Uiso   1.00
C1266  C     0.14360   0.88555   0.45897   0.00000  Uiso   1.00
C1267  C     0.37675   0.59009   0.53369   0.00000  Uiso   1.00
C1268  C     0.35597   0.61347   0.45958   0.00000  Uiso   1.00
C1269  C     0.12275   0.91361   0.53228   0.00000  Uiso   1.00
C1270  C     0.33156   0.86210   0.52071   0.00000  Uiso   1.00
C1271  C     0.43778   0.69251   0.50055   0.00000  Uiso   1.00
C1272  C     0.12595   0.59107   0.46581   0.00000  Uiso   1.00
C1273  C     0.14496   0.61705   0.54067   0.00000  Uiso   1.00
C1274  C     0.37843   0.91029   0.47569   0.00000  Uiso   1.00
C1275  C     0.09786   0.83978   0.50370   0.00000  Uiso   1.00
C1276  C     0.40057   0.66263   0.50348   0.00000  Uiso   1.00
C1277  C     0.40065   0.83614   0.49717   0.00000  Uiso   1.00
C1278  C     0.09984   0.66337   0.49588   0.00000  Uiso   1.00
C1279  C     0.35044   0.58498   0.49678   0.00000  Uiso   1.00
C1280  C     0.14884   0.91636   0.49535   0.00000  Uiso   1.00
C1281  C     0.15047   0.58647   0.50387   0.00000  Uiso   1.00
C1282  C     0.06165   0.80838   0.50079   0.00000  Uiso   1.00
C1283  C     0.34074   0.90441   0.49981   0.00000  Uiso   1.00
C1284  C     0.03303   0.83004   0.37569   0.00000  Uiso   1.00
C1285  C     0.00716   0.86779   0.39926   0.00000  Uiso   1.00
C1286  C     0.03429   0.90960   0.41185   0.00000  Uiso   1.00
C1287  C     0.03032   0.67010   0.62676   0.00000  Uiso   1.00
C1288  C     0.00637   0.63095   0.60272   0.00000  Uiso   1.00
C1289  C     0.03606   0.59265   0.58727   0.00000  Uiso   1.00
C1290  C     0.46528   0.67094   0.37201   0.00000  Uiso   1.00
C1291  C     0.48993   0.63193   0.39392   0.00000  Uiso   1.00
C1292  C     0.46148   0.59388   0.41144   0.00000  Uiso   1.00
C1293  C     0.30960   0.94002   0.49992   0.00000  Uiso   1.00
C1294  C     0.48879   0.83602   0.62079   0.00000  Uiso   1.00
C1295  C     0.44163   0.84737   0.62200   0.00000  Uiso   1.00
C1296  C     0.43181   0.89149   0.59692   0.00000  Uiso   1.00
C1297  C     0.24895   0.58720   0.38323   0.00000  Uiso   1.00
C1298  C     0.20855   0.61459   0.37324   0.00000  Uiso   1.00
C1299  C     0.21646   0.66668   0.37326   0.00000  Uiso   1.00
C1300  C     0.24257   0.91313   0.61746   0.00000  Uiso   1.00
C1301  C     0.19849   0.89087   0.62287   0.00000  Uiso   1.00
C1302  C     0.20004   0.83832   0.62761   0.00000  Uiso   1.00
C1303  C     0.25495   0.91350   0.38051   0.00000  Uiso   1.00
C1304  C     0.18781   0.55728   0.50086   0.00000  Uiso   1.00
C1305  C     0.29943   0.89191   0.37713   0.00000  Uiso   1.00
C1306  C     0.29828   0.84168   0.39213   0.00000  Uiso   1.00
C1307  C     0.28218   0.58048   0.62430   0.00000  Uiso   1.00
C1308  C     0.25701   0.61672   0.59845   0.00000  Uiso   1.00
C1309  C     0.28357   0.65997   0.59000   0.00000  Uiso   1.00
C1310  C     0.35933   0.69675   0.44008   0.00000  Uiso   1.00
C1311  C     0.08835   0.86085   0.58474   0.00000  Uiso   1.00
C1312  C     0.14069   0.80074   0.44317   0.00000  Uiso   1.00
C1313  C     0.40157   0.64986   0.58703   0.00000  Uiso   1.00
C1314  C     0.14055   0.70178   0.55845   0.00000  Uiso   1.00
C1315  C     0.18736   0.94361   0.49907   0.00000  Uiso   1.00
C1316  C     0.40330   0.85842   0.41676   0.00000  Uiso   1.00
C1317  C     0.35956   0.78866   0.55193   0.00000  Uiso   1.00
C1318  C     0.09527   0.64605   0.41308   0.00000  Uiso   1.00
C1319  C     0.14233   0.90218   0.41224   0.00000  Uiso   1.00
C1320  C     0.39107   0.54896   0.55917   0.00000  Uiso   1.00
C1321  C     0.35587   0.59394   0.41331   0.00000  Uiso   1.00
C1322  C     0.11465   0.95617   0.55899   0.00000  Uiso   1.00
C1323  C     0.28686   0.84914   0.53187   0.00000  Uiso   1.00
C1324  C     0.11678   0.54983   0.43746   0.00000  Uiso   1.00
C1325  C     0.14489   0.60088   0.58772   0.00000  Uiso   1.00
C1326  C     0.31232   0.55700   0.49953   0.00000  Uiso   1.00
C1327  C     0.39588   0.95564   0.46150   0.00000  Uiso   1.00
C1328  C     0.00677   0.79011   0.35699   0.00000  Uiso   1.00
H1329  H     0.05768   0.90009   0.43737   0.00000  Uiso   1.00
H1330  H     0.01733   0.56385   0.57237   0.00000  Uiso   1.00
H1331  H     0.48310   0.61522   0.62535   0.00000  Uiso   1.00
H1332  H     0.48970   0.64394   0.57353   0.00000  Uiso   1.00
H1333  H     0.05752   0.68327   0.60794   0.00000  Uiso   1.00
H1334  H     0.04681   0.65507   0.65527   0.00000  Uiso   1.00
H1335  H     0.44235   0.60703   0.43946   0.00000  Uiso   1.00
H1336  H     0.44073   0.57989   0.38472   0.00000  Uiso   1.00
H1337  H     0.48151   0.56538   0.42378   0.00000  Uiso   1.00
H1338  H     0.01049   0.61509   0.36901   0.00000  Uiso   1.00
H1339  H     0.00917   0.64555   0.42155   0.00000  Uiso   1.00
H1340  H     0.05074   0.92339   0.38235   0.00000  Uiso   1.00
H1341  H     0.43871   0.68425   0.39190   0.00000  Uiso   1.00
H1342  H     0.44817   0.65554   0.34357   0.00000  Uiso   1.00
H1343  H     0.44724   0.92166   0.61353   0.00000  Uiso   1.00
H1344  H     0.44347   0.88900   0.56234   0.00000  Uiso   1.00
H1345  H     0.39700   0.89726   0.59650   0.00000  Uiso   1.00
H1346  H     0.42302   0.81803   0.60865   0.00000  Uiso   1.00
H1347  H     0.43203   0.85300   0.65652   0.00000  Uiso   1.00
H1348  H     0.00449   0.86583   0.63676   0.00000  Uiso   1.00
H1349  H     0.00055   0.83565   0.58666   0.00000  Uiso   1.00
H1350  H     0.22705   0.67871   0.40657   0.00000  Uiso   1.00
H1351  H     0.01397   0.93724   0.42605   0.00000  Uiso   1.00
H1352  H     0.24104   0.67577   0.34859   0.00000  Uiso   1.00
H1353  H     0.18665   0.68481   0.36476   0.00000  Uiso   1.00
H1354  H     0.19462   0.60320   0.34141   0.00000  Uiso   1.00
H1355  H     0.18463   0.60795   0.39906   0.00000  Uiso   1.00
H1356  H     0.24974   0.58307   0.41866   0.00000  Uiso   1.00
H1357  H     0.27743   0.60868   0.37874   0.00000  Uiso   1.00
H1358  H     0.20355   0.82139   0.59463   0.00000  Uiso   1.00
H1359  H     0.22642   0.82745   0.64921   0.00000  Uiso   1.00
H1360  H     0.17012   0.82588   0.64259   0.00000  Uiso   1.00
H1361  H     0.18182   0.90655   0.65152   0.00000  Uiso   1.00
H1362  H     0.48171   0.87962   0.37704   0.00000  Uiso   1.00
H1363  H     0.17921   0.89782   0.59350   0.00000  Uiso   1.00
H1364  H     0.24912   0.91642   0.58248   0.00000  Uiso   1.00
H1365  H     0.26748   0.88900   0.62732   0.00000  Uiso   1.00
H1366  H     0.29698   0.84029   0.42876   0.00000  Uiso   1.00
H1367  H     0.27052   0.82280   0.37826   0.00000  Uiso   1.00
H1368  H     0.32682   0.82334   0.38022   0.00000  Uiso   1.00
H1369  H     0.31298   0.89330   0.34347   0.00000  Uiso   1.00
H1370  H     0.32205   0.91173   0.39803   0.00000  Uiso   1.00
H1371  H     0.24778   0.91700   0.41549   0.00000  Uiso   1.00
H1372  H     0.23047   0.88888   0.36896   0.00000  Uiso   1.00
H1373  H     0.49288   0.85477   0.42976   0.00000  Uiso   1.00
H1374  H     0.29502   0.67566   0.62160   0.00000  Uiso   1.00
H1375  H     0.31114   0.65121   0.56877   0.00000  Uiso   1.00
H1376  H     0.26405   0.68585   0.57261   0.00000  Uiso   1.00
H1377  H     0.24708   0.60330   0.56600   0.00000  Uiso   1.00
H1378  H     0.22820   0.62718   0.61657   0.00000  Uiso   1.00
H1379  H     0.29974   0.59941   0.64999   0.00000  Uiso   1.00
H1380  H     0.30999   0.56702   0.60665   0.00000  Uiso   1.00
H1381  H     0.31437   0.72264   0.39987   0.00000  Uiso   1.00
H1382  H     0.09199   0.81300   0.63280   0.00000  Uiso   1.00
H1383  H     0.18157   0.77308   0.39864   0.00000  Uiso   1.00
H1384  H     0.06024   0.81725   0.39434   0.00000  Uiso   1.00
H1385  H     0.40102   0.70361   0.63050   0.00000  Uiso   1.00
H1386  H     0.18230   0.73008   0.60190   0.00000  Uiso   1.00
H1387  H     0.40046   0.80770   0.36947   0.00000  Uiso   1.00
H1388  H     0.34367   0.76251   0.61132   0.00000  Uiso   1.00
H1389  H     0.09699   0.69635   0.36747   0.00000  Uiso   1.00
H1390  H     0.12094   0.88922   0.35029   0.00000  Uiso   1.00
H1391  H     0.43926   0.51793   0.59104   0.00000  Uiso   1.00
H1392  H     0.36406   0.60469   0.34859   0.00000  Uiso   1.00
H1393  H     0.08892   0.51971   0.55992   0.00000  Uiso   1.00
H1394  H     0.22499   0.85146   0.51485   0.00000  Uiso   1.00
H1395  H     0.05075   0.84679   0.34893   0.00000  Uiso   1.00
H1396  H     0.07874   0.99484   0.42655   0.00000  Uiso   1.00
H1397  H     0.12789   0.61465   0.65079   0.00000  Uiso   1.00
H1398  H     0.44376   0.99033   0.43245   0.00000  Uiso   1.00
H1399  H     0.05789   0.60572   0.56165   0.00000  Uiso   1.00
H1400  H     0.05443   0.57913   0.61558   0.00000  Uiso   1.00
N1401  N     0.00000   0.75000   0.61907   0.00000  Uiso   1.00
N1402  N     0.00000   0.75000   0.38093   0.00000  Uiso   1.00
N1403  N     0.25000   0.50000   0.61907   0.00000  Uiso   1.00
N1404  N     0.25000   0.50000   0.38093   0.00000  Uiso   1.00
O1405  O     0.04581   0.70419   0.53821   0.00000  Uiso   1.00
O1406  O     0.20420   0.54581   0.46179   0.00000  Uiso   1.00
O1407  O     0.20420   0.54581   0.53821   0.00000  Uiso   1.00
O1408  O     0.29581   0.95419   0.46179   0.00000  Uiso   1.00
O1409  O     0.20420   0.95419   0.46179   0.00000  Uiso   1.00
O1410  O     0.29581   0.54581   0.53821   0.00000  Uiso   1.00
O1411  O     0.29581   0.54581   0.46179   0.00000  Uiso   1.00
O1412  O     0.20420   0.95419   0.53821   0.00000  Uiso   1.00
O1413  O     0.37760   0.73390   0.44228   0.00000  Uiso   1.00
O1414  O     0.32184   0.69300   0.41544   0.00000  Uiso   1.00
O1415  O     0.07164   0.88930   0.60926   0.00000  Uiso   1.00
O1416  O     0.45420   0.79581   0.46179   0.00000  Uiso   1.00
O1417  O     0.09937   0.81744   0.60063   0.00000  Uiso   1.00
O1418  O     0.12772   0.76258   0.45333   0.00000  Uiso   1.00
O1419  O     0.17315   0.80416   0.41177   0.00000  Uiso   1.00
O1420  O     0.40472   0.62247   0.61704   0.00000  Uiso   1.00
O1421  O     0.39846   0.69686   0.59759   0.00000  Uiso   1.00
O1422  O     0.12424   0.73925   0.55207   0.00000  Uiso   1.00
O1423  O     0.17523   0.69929   0.58720   0.00000  Uiso   1.00
O1424  O     0.40288   0.88881   0.38917   0.00000  Uiso   1.00
O1425  O     0.40188   0.81220   0.40266   0.00000  Uiso   1.00
O1426  O     0.36181   0.75049   0.53454   0.00000  Uiso   1.00
O1427  O     0.45420   0.79581   0.53821   0.00000  Uiso   1.00
O1428  O     0.34955   0.79321   0.59689   0.00000  Uiso   1.00
O1429  O     0.08460   0.61715   0.38544   0.00000  Uiso   1.00
O1430  O     0.10248   0.69152   0.40009   0.00000  Uiso   1.00
O1431  O     0.14850   0.94276   0.40381   0.00000  Uiso   1.00
O1432  O     0.12825   0.87246   0.37839   0.00000  Uiso   1.00
O1433  O     0.36801   0.51549   0.56431   0.00000  Uiso   1.00
O1434  O     0.43271   0.54759   0.57506   0.00000  Uiso   1.00
O1435  O     0.35500   0.55220   0.40661   0.00000  Uiso   1.00
O1436  O     0.36181   0.62283   0.37730   0.00000  Uiso   1.00
O1437  O     0.12503   0.95909   0.59790   0.00000  Uiso   1.00
O1438  O     0.04581   0.70419   0.46179   0.00000  Uiso   1.00
O1439  O     0.09491   0.99326   0.53862   0.00000  Uiso   1.00
O1440  O     0.27899   0.82493   0.56353   0.00000  Uiso   1.00
O1441  O     0.25363   0.86332   0.50469   0.00000  Uiso   1.00
O1442  O     0.13756   0.54174   0.40411   0.00000  Uiso   1.00
O1443  O     0.08285   0.52116   0.44861   0.00000  Uiso   1.00
O1444  O     0.15180   0.56065   0.59670   0.00000  Uiso   1.00
O1445  O     0.13142   0.63078   0.62162   0.00000  Uiso   1.00
O1446  O     0.37759   0.99143   0.47066   0.00000  Uiso   1.00
O1447  O     0.43506   0.95764   0.43991   0.00000  Uiso   1.00
O1448  O     0.45420   0.70419   0.46179   0.00000  Uiso   1.00
O1449  O     0.04581   0.79581   0.53821   0.00000  Uiso   1.00
O1450  O     0.04581   0.79581   0.46179   0.00000  Uiso   1.00
O1451  O     0.45420   0.70419   0.53821   0.00000  Uiso   1.00
O1452  O     0.29581   0.95419   0.53821   0.00000  Uiso   1.00
Zn1453 Zn    0.00000   0.75000   0.55104   0.00000  Uiso   1.00
Zn1454 Zn    0.00000   0.75000   0.44896   0.00000  Uiso   1.00
Zn1455 Zn    0.25000   0.50000   0.55104   0.00000  Uiso   1.00
Zn1456 Zn    0.25000   0.50000   0.44896   0.00000  Uiso   1.00
C1457  C     0.56218   0.69251   0.49916   0.00000  Uiso   1.00
C1458  C     0.50277   0.70980   0.64288   0.00000  Uiso   1.00
C1459  C     0.99281   0.71038   0.35574   0.00000  Uiso   1.00
C1460  C     0.99823   0.79059   0.64345   0.00000  Uiso   1.00
C1461  C     0.75132   0.54088   0.35802   0.00000  Uiso   1.00
C1462  C     0.74713   0.95919   0.64225   0.00000  Uiso   1.00
C1463  C     0.75078   0.95917   0.35667   0.00000  Uiso   1.00
C1464  C     0.75691   0.54036   0.64384   0.00000  Uiso   1.00
C1465  C     0.87431   0.65668   0.46638   0.00000  Uiso   1.00
C1466  C     0.60013   0.87288   0.53887   0.00000  Uiso   1.00
C1467  C     0.62522   0.84289   0.46727   0.00000  Uiso   1.00
C1468  C     0.93796   0.80731   0.49970   0.00000  Uiso   1.00
C1469  C     0.89650   0.63282   0.54025   0.00000  Uiso   1.00
C1470  C     0.62645   0.65979   0.53280   0.00000  Uiso   1.00
C1471  C     0.90024   0.87056   0.46491   0.00000  Uiso   1.00
C1472  C     0.86491   0.83030   0.52477   0.00000  Uiso   1.00
C1473  C     0.60429   0.63223   0.45942   0.00000  Uiso   1.00
C1474  C     0.64360   0.88555   0.45897   0.00000  Uiso   1.00
C1475  C     0.87675   0.59009   0.53369   0.00000  Uiso   1.00
C1476  C     0.85597   0.61347   0.45958   0.00000  Uiso   1.00
C1477  C     0.62275   0.91361   0.53228   0.00000  Uiso   1.00
C1478  C     0.83156   0.86210   0.52071   0.00000  Uiso   1.00
C1479  C     0.93778   0.69251   0.50055   0.00000  Uiso   1.00
C1480  C     0.62595   0.59107   0.46581   0.00000  Uiso   1.00
C1481  C     0.64496   0.61705   0.54067   0.00000  Uiso   1.00
C1482  C     0.87843   0.91029   0.47569   0.00000  Uiso   1.00
C1483  C     0.59786   0.83978   0.50370   0.00000  Uiso   1.00
C1484  C     0.90057   0.66263   0.50348   0.00000  Uiso   1.00
C1485  C     0.90065   0.83614   0.49717   0.00000  Uiso   1.00
C1486  C     0.59984   0.66337   0.49588   0.00000  Uiso   1.00
C1487  C     0.85044   0.58498   0.49678   0.00000  Uiso   1.00
C1488  C     0.64884   0.91636   0.49535   0.00000  Uiso   1.00
C1489  C     0.65047   0.58647   0.50387   0.00000  Uiso   1.00
C1490  C     0.56165   0.80838   0.50079   0.00000  Uiso   1.00
C1491  C     0.84074   0.90441   0.49981   0.00000  Uiso   1.00
C1492  C     0.53303   0.83004   0.37569   0.00000  Uiso   1.00
C1493  C     0.50716   0.86779   0.39926   0.00000  Uiso   1.00
C1494  C     0.53429   0.90960   0.41185   0.00000  Uiso   1.00
C1495  C     0.53032   0.67010   0.62676   0.00000  Uiso   1.00
C1496  C     0.50637   0.63095   0.60272   0.00000  Uiso   1.00
C1497  C     0.53606   0.59265   0.58727   0.00000  Uiso   1.00
C1498  C     0.96528   0.67094   0.37201   0.00000  Uiso   1.00
C1499  C     0.98993   0.63193   0.39392   0.00000  Uiso   1.00
C1500  C     0.96148   0.59388   0.41144   0.00000  Uiso   1.00
C1501  C     0.80960   0.94002   0.49992   0.00000  Uiso   1.00
C1502  C     0.98879   0.83602   0.62079   0.00000  Uiso   1.00
C1503  C     0.94163   0.84737   0.62200   0.00000  Uiso   1.00
C1504  C     0.93181   0.89149   0.59692   0.00000  Uiso   1.00
C1505  C     0.74895   0.58720   0.38323   0.00000  Uiso   1.00
C1506  C     0.70855   0.61459   0.37324   0.00000  Uiso   1.00
C1507  C     0.71646   0.66668   0.37326   0.00000  Uiso   1.00
C1508  C     0.74257   0.91313   0.61746   0.00000  Uiso   1.00
C1509  C     0.69849   0.89087   0.62287   0.00000  Uiso   1.00
C1510  C     0.70004   0.83832   0.62761   0.00000  Uiso   1.00
C1511  C     0.75495   0.91350   0.38051   0.00000  Uiso   1.00
C1512  C     0.68781   0.55728   0.50086   0.00000  Uiso   1.00
C1513  C     0.79943   0.89191   0.37713   0.00000  Uiso   1.00
C1514  C     0.79828   0.84168   0.39213   0.00000  Uiso   1.00
C1515  C     0.78218   0.58048   0.62430   0.00000  Uiso   1.00
C1516  C     0.75701   0.61672   0.59845   0.00000  Uiso   1.00
C1517  C     0.78357   0.65997   0.59000   0.00000  Uiso   1.00
C1518  C     0.85933   0.69675   0.44008   0.00000  Uiso   1.00
C1519  C     0.58835   0.86085   0.58474   0.00000  Uiso   1.00
C1520  C     0.64069   0.80074   0.44317   0.00000  Uiso   1.00
C1521  C     0.90157   0.64986   0.58703   0.00000  Uiso   1.00
C1522  C     0.64055   0.70178   0.55845   0.00000  Uiso   1.00
C1523  C     0.68736   0.94361   0.49907   0.00000  Uiso   1.00
C1524  C     0.90330   0.85842   0.41676   0.00000  Uiso   1.00
C1525  C     0.85956   0.78866   0.55193   0.00000  Uiso   1.00
C1526  C     0.59527   0.64605   0.41308   0.00000  Uiso   1.00
C1527  C     0.64233   0.90218   0.41224   0.00000  Uiso   1.00
C1528  C     0.89107   0.54896   0.55917   0.00000  Uiso   1.00
C1529  C     0.85587   0.59394   0.41331   0.00000  Uiso   1.00
C1530  C     0.61465   0.95617   0.55899   0.00000  Uiso   1.00
C1531  C     0.78686   0.84914   0.53187   0.00000  Uiso   1.00
C1532  C     0.61678   0.54983   0.43746   0.00000  Uiso   1.00
C1533  C     0.64489   0.60088   0.58772   0.00000  Uiso   1.00
C1534  C     0.81232   0.55700   0.49953   0.00000  Uiso   1.00
C1535  C     0.89588   0.95564   0.46150   0.00000  Uiso   1.00
C1536  C     0.50677   0.79011   0.35699   0.00000  Uiso   1.00
H1537  H     0.55768   0.90009   0.43737   0.00000  Uiso   1.00
H1538  H     0.51733   0.56385   0.57237   0.00000  Uiso   1.00
H1539  H     0.98310   0.61522   0.62535   0.00000  Uiso   1.00
H1540  H     0.98970   0.64394   0.57353   0.00000  Uiso   1.00
H1541  H     0.55752   0.68327   0.60794   0.00000  Uiso   1.00
H1542  H     0.54681   0.65507   0.65527   0.00000  Uiso   1.00
H1543  H     0.94235   0.60703   0.43946   0.00000  Uiso   1.00
H1544  H     0.94073   0.57989   0.38472   0.00000  Uiso   1.00
H1545  H     0.98151   0.56538   0.42378   0.00000  Uiso   1.00
H1546  H     0.51049   0.61509   0.36901   0.00000  Uiso   1.00
H1547  H     0.50917   0.64555   0.42155   0.00000  Uiso   1.00
H1548  H     0.55074   0.92339   0.38235   0.00000  Uiso   1.00
H1549  H     0.93871   0.68425   0.39190   0.00000  Uiso   1.00
H1550  H     0.94817   0.65554   0.34357   0.00000  Uiso   1.00
H1551  H     0.94724   0.92166   0.61353   0.00000  Uiso   1.00
H1552  H     0.94347   0.88900   0.56234   0.00000  Uiso   1.00
H1553  H     0.89700   0.89726   0.59650   0.00000  Uiso   1.00
H1554  H     0.92302   0.81803   0.60865   0.00000  Uiso   1.00
H1555  H     0.93203   0.85300   0.65652   0.00000  Uiso   1.00
H1556  H     0.50449   0.86583   0.63676   0.00000  Uiso   1.00
H1557  H     0.50055   0.83565   0.58666   0.00000  Uiso   1.00
H1558  H     0.72705   0.67871   0.40657   0.00000  Uiso   1.00
H1559  H     0.51397   0.93724   0.42605   0.00000  Uiso   1.00
H1560  H     0.74104   0.67577   0.34859   0.00000  Uiso   1.00
H1561  H     0.68665   0.68481   0.36476   0.00000  Uiso   1.00
H1562  H     0.69462   0.60320   0.34141   0.00000  Uiso   1.00
H1563  H     0.68463   0.60795   0.39906   0.00000  Uiso   1.00
H1564  H     0.74974   0.58307   0.41866   0.00000  Uiso   1.00
H1565  H     0.77743   0.60868   0.37874   0.00000  Uiso   1.00
H1566  H     0.70355   0.82139   0.59463   0.00000  Uiso   1.00
H1567  H     0.72642   0.82745   0.64921   0.00000  Uiso   1.00
H1568  H     0.67012   0.82588   0.64259   0.00000  Uiso   1.00
H1569  H     0.68182   0.90655   0.65152   0.00000  Uiso   1.00
H1570  H     0.98171   0.87962   0.37704   0.00000  Uiso   1.00
H1571  H     0.67921   0.89782   0.59350   0.00000  Uiso   1.00
H1572  H     0.74912   0.91642   0.58248   0.00000  Uiso   1.00
H1573  H     0.76748   0.88900   0.62732   0.00000  Uiso   1.00
H1574  H     0.79698   0.84029   0.42876   0.00000  Uiso   1.00
H1575  H     0.77052   0.82280   0.37826   0.00000  Uiso   1.00
H1576  H     0.82682   0.82334   0.38022   0.00000  Uiso   1.00
H1577  H     0.81298   0.89330   0.34347   0.00000  Uiso   1.00
H1578  H     0.82205   0.91173   0.39803   0.00000  Uiso   1.00
H1579  H     0.74778   0.91700   0.41549   0.00000  Uiso   1.00
H1580  H     0.73047   0.88888   0.36896   0.00000  Uiso   1.00
H1581  H     0.99288   0.85477   0.42976   0.00000  Uiso   1.00
H1582  H     0.79502   0.67566   0.62160   0.00000  Uiso   1.00
H1583  H     0.81114   0.65121   0.56877   0.00000  Uiso   1.00
H1584  H     0.76405   0.68585   0.57261   0.00000  Uiso   1.00
H1585  H     0.74708   0.60330   0.56600   0.00000  Uiso   1.00
H1586  H     0.72820   0.62718   0.61657   0.00000  Uiso   1.00
H1587  H     0.79974   0.59941   0.64999   0.00000  Uiso   1.00
H1588  H     0.80999   0.56702   0.60665   0.00000  Uiso   1.00
H1589  H     0.81437   0.72264   0.39987   0.00000  Uiso   1.00
H1590  H     0.59199   0.81300   0.63280   0.00000  Uiso   1.00
H1591  H     0.68157   0.77308   0.39864   0.00000  Uiso   1.00
H1592  H     0.56024   0.81725   0.39434   0.00000  Uiso   1.00
H1593  H     0.90102   0.70361   0.63050   0.00000  Uiso   1.00
H1594  H     0.68230   0.73008   0.60190   0.00000  Uiso   1.00
H1595  H     0.90046   0.80770   0.36947   0.00000  Uiso   1.00
H1596  H     0.84367   0.76251   0.61132   0.00000  Uiso   1.00
H1597  H     0.59699   0.69635   0.36747   0.00000  Uiso   1.00
H1598  H     0.62094   0.88922   0.35029   0.00000  Uiso   1.00
H1599  H     0.93926   0.51793   0.59104   0.00000  Uiso   1.00
H1600  H     0.86406   0.60469   0.34859   0.00000  Uiso   1.00
H1601  H     0.58892   0.51971   0.55992   0.00000  Uiso   1.00
H1602  H     0.72499   0.85146   0.51485   0.00000  Uiso   1.00
H1603  H     0.55075   0.84679   0.34893   0.00000  Uiso   1.00
H1604  H     0.57874   0.99484   0.42655   0.00000  Uiso   1.00
H1605  H     0.62789   0.61465   0.65079   0.00000  Uiso   1.00
H1606  H     0.94376   0.99033   0.43245   0.00000  Uiso   1.00
H1607  H     0.55789   0.60572   0.56165   0.00000  Uiso   1.00
H1608  H     0.55443   0.57913   0.61558   0.00000  Uiso   1.00
N1609  N     0.50000   0.75000   0.61907   0.00000  Uiso   1.00
N1610  N     0.50000   0.75000   0.38093   0.00000  Uiso   1.00
N1611  N     0.75000   0.50000   0.61907   0.00000  Uiso   1.00
N1612  N     0.75000   0.50000   0.38093   0.00000  Uiso   1.00
O1613  O     0.54581   0.70419   0.53821   0.00000  Uiso   1.00
O1614  O     0.70420   0.54581   0.46179   0.00000  Uiso   1.00
O1615  O     0.70420   0.54581   0.53821   0.00000  Uiso   1.00
O1616  O     0.79581   0.95419   0.46179   0.00000  Uiso   1.00
O1617  O     0.70420   0.95419   0.46179   0.00000  Uiso   1.00
O1618  O     0.79581   0.54581   0.53821   0.00000  Uiso   1.00
O1619  O     0.79581   0.54581   0.46179   0.00000  Uiso   1.00
O1620  O     0.70420   0.95419   0.53821   0.00000  Uiso   1.00
O1621  O     0.87760   0.73390   0.44228   0.00000  Uiso   1.00
O1622  O     0.82184   0.69300   0.41544   0.00000  Uiso   1.00
O1623  O     0.57164   0.88930   0.60926   0.00000  Uiso   1.00
O1624  O     0.95420   0.79581   0.46179   0.00000  Uiso   1.00
O1625  O     0.59937   0.81744   0.60063   0.00000  Uiso   1.00
O1626  O     0.62772   0.76258   0.45333   0.00000  Uiso   1.00
O1627  O     0.67315   0.80416   0.41177   0.00000  Uiso   1.00
O1628  O     0.90472   0.62247   0.61704   0.00000  Uiso   1.00
O1629  O     0.89846   0.69686   0.59759   0.00000  Uiso   1.00
O1630  O     0.62424   0.73925   0.55207   0.00000  Uiso   1.00
O1631  O     0.67523   0.69929   0.58720   0.00000  Uiso   1.00
O1632  O     0.90288   0.88881   0.38917   0.00000  Uiso   1.00
O1633  O     0.90188   0.81220   0.40266   0.00000  Uiso   1.00
O1634  O     0.86181   0.75049   0.53454   0.00000  Uiso   1.00
O1635  O     0.95420   0.79581   0.53821   0.00000  Uiso   1.00
O1636  O     0.84955   0.79321   0.59689   0.00000  Uiso   1.00
O1637  O     0.58460   0.61715   0.38544   0.00000  Uiso   1.00
O1638  O     0.60248   0.69152   0.40009   0.00000  Uiso   1.00
O1639  O     0.64850   0.94276   0.40381   0.00000  Uiso   1.00
O1640  O     0.62825   0.87246   0.37839   0.00000  Uiso   1.00
O1641  O     0.86801   0.51549   0.56431   0.00000  Uiso   1.00
O1642  O     0.93271   0.54759   0.57506   0.00000  Uiso   1.00
O1643  O     0.85500   0.55220   0.40661   0.00000  Uiso   1.00
O1644  O     0.86181   0.62283   0.37730   0.00000  Uiso   1.00
O1645  O     0.62503   0.95909   0.59790   0.00000  Uiso   1.00
O1646  O     0.54581   0.70419   0.46179   0.00000  Uiso   1.00
O1647  O     0.59491   0.99326   0.53862   0.00000  Uiso   1.00
O1648  O     0.77899   0.82493   0.56353   0.00000  Uiso   1.00
O1649  O     0.75363   0.86332   0.50469   0.00000  Uiso   1.00
O1650  O     0.63756   0.54174   0.40411   0.00000  Uiso   1.00
O1651  O     0.58285   0.52116   0.44861   0.00000  Uiso   1.00
O1652  O     0.65180   0.56065   0.59670   0.00000  Uiso   1.00
O1653  O     0.63142   0.63078   0.62162   0.00000  Uiso   1.00
O1654  O     0.87759   0.99143   0.47066   0.00000  Uiso   1.00
O1655  O     0.93506   0.95764   0.43991   0.00000  Uiso   1.00
O1656  O     0.95420   0.70419   0.46179   0.00000  Uiso   1.00
O1657  O     0.54581   0.79581   0.53821   0.00000  Uiso   1.00
O1658  O     0.54581   0.79581   0.46179   0.00000  Uiso   1.00
O1659  O     0.95420   0.70419   0.53821   0.00000  Uiso   1.00
O1660  O     0.79581   0.95419   0.53821   0.00000  Uiso   1.00
Zn1661 Zn    0.50000   0.75000   0.55104   0.00000  Uiso   1.00
Zn1662 Zn    0.50000   0.75000   0.44896   0.00000  Uiso   1.00
Zn1663 Zn    0.75000   0.50000   0.55104   0.00000  Uiso   1.00
Zn1664 Zn    0.75000   0.50000   0.44896   0.00000  Uiso   1.00
C1665  C     0.06218   0.19251   0.83249   0.00000  Uiso   1.00
C1666  C     0.00277   0.20980   0.97621   0.00000  Uiso   1.00
C1667  C     0.49281   0.21038   0.68908   0.00000  Uiso   1.00
C1668  C     0.49823   0.29059   0.97678   0.00000  Uiso   1.00
C1669  C     0.25132   0.04088   0.69135   0.00000  Uiso   1.00
C1670  C     0.24713   0.45919   0.97559   0.00000  Uiso   1.00
C1671  C     0.25078   0.45917   0.69000   0.00000  Uiso   1.00
C1672  C     0.25691   0.04036   0.97717   0.00000  Uiso   1.00
C1673  C     0.37431   0.15668   0.79972   0.00000  Uiso   1.00
C1674  C     0.10013   0.37288   0.87221   0.00000  Uiso   1.00
C1675  C     0.12522   0.34289   0.80060   0.00000  Uiso   1.00
C1676  C     0.43796   0.30731   0.83304   0.00000  Uiso   1.00
C1677  C     0.39650   0.13282   0.87359   0.00000  Uiso   1.00
C1678  C     0.12645   0.15979   0.86613   0.00000  Uiso   1.00
C1679  C     0.40024   0.37056   0.79824   0.00000  Uiso   1.00
C1680  C     0.36491   0.33030   0.85811   0.00000  Uiso   1.00
C1681  C     0.10429   0.13223   0.79276   0.00000  Uiso   1.00
C1682  C     0.14360   0.38555   0.79230   0.00000  Uiso   1.00
C1683  C     0.37675   0.09009   0.86702   0.00000  Uiso   1.00
C1684  C     0.35597   0.11347   0.79291   0.00000  Uiso   1.00
C1685  C     0.12275   0.41361   0.86561   0.00000  Uiso   1.00
C1686  C     0.33156   0.36210   0.85405   0.00000  Uiso   1.00
C1687  C     0.43778   0.19251   0.83388   0.00000  Uiso   1.00
C1688  C     0.12595   0.09107   0.79914   0.00000  Uiso   1.00
C1689  C     0.14496   0.11705   0.87401   0.00000  Uiso   1.00
C1690  C     0.37843   0.41029   0.80902   0.00000  Uiso   1.00
C1691  C     0.09786   0.33978   0.83704   0.00000  Uiso   1.00
C1692  C     0.40057   0.16263   0.83681   0.00000  Uiso   1.00
C1693  C     0.40065   0.33614   0.83051   0.00000  Uiso   1.00
C1694  C     0.09984   0.16337   0.82921   0.00000  Uiso   1.00
C1695  C     0.35044   0.08498   0.83011   0.00000  Uiso   1.00
C1696  C     0.14884   0.41636   0.82868   0.00000  Uiso   1.00
C1697  C     0.15047   0.08647   0.83721   0.00000  Uiso   1.00
C1698  C     0.06165   0.30838   0.83413   0.00000  Uiso   1.00
C1699  C     0.34074   0.40441   0.83314   0.00000  Uiso   1.00
C1700  C     0.03303   0.33004   0.70902   0.00000  Uiso   1.00
C1701  C     0.00716   0.36779   0.73259   0.00000  Uiso   1.00
C1702  C     0.03429   0.40960   0.74519   0.00000  Uiso   1.00
C1703  C     0.03032   0.17010   0.96010   0.00000  Uiso   1.00
C1704  C     0.00637   0.13095   0.93605   0.00000  Uiso   1.00
C1705  C     0.03606   0.09265   0.92060   0.00000  Uiso   1.00
C1706  C     0.46528   0.17094   0.70534   0.00000  Uiso   1.00
C1707  C     0.48993   0.13193   0.72725   0.00000  Uiso   1.00
C1708  C     0.46148   0.09388   0.74477   0.00000  Uiso   1.00
C1709  C     0.30960   0.44002   0.83325   0.00000  Uiso   1.00
C1710  C     0.48879   0.33602   0.95412   0.00000  Uiso   1.00
C1711  C     0.44163   0.34737   0.95533   0.00000  Uiso   1.00
C1712  C     0.43181   0.39149   0.93026   0.00000  Uiso   1.00
C1713  C     0.24895   0.08720   0.71657   0.00000  Uiso   1.00
C1714  C     0.20855   0.11459   0.70657   0.00000  Uiso   1.00
C1715  C     0.21646   0.16668   0.70659   0.00000  Uiso   1.00
C1716  C     0.24257   0.41313   0.95079   0.00000  Uiso   1.00
C1717  C     0.19849   0.39087   0.95621   0.00000  Uiso   1.00
C1718  C     0.20004   0.33832   0.96094   0.00000  Uiso   1.00
C1719  C     0.25495   0.41350   0.71385   0.00000  Uiso   1.00
C1720  C     0.18781   0.05728   0.83420   0.00000  Uiso   1.00
C1721  C     0.29943   0.39191   0.71046   0.00000  Uiso   1.00
C1722  C     0.29828   0.34168   0.72546   0.00000  Uiso   1.00
C1723  C     0.28218   0.08048   0.95763   0.00000  Uiso   1.00
C1724  C     0.25701   0.11672   0.93178   0.00000  Uiso   1.00
C1725  C     0.28357   0.15997   0.92334   0.00000  Uiso   1.00
C1726  C     0.35933   0.19675   0.77341   0.00000  Uiso   1.00
C1727  C     0.08835   0.36085   0.91807   0.00000  Uiso   1.00
C1728  C     0.14069   0.30074   0.77651   0.00000  Uiso   1.00
C1729  C     0.40157   0.14986   0.92037   0.00000  Uiso   1.00
C1730  C     0.14055   0.20178   0.89178   0.00000  Uiso   1.00
C1731  C     0.18736   0.44361   0.83240   0.00000  Uiso   1.00
C1732  C     0.40330   0.35842   0.75009   0.00000  Uiso   1.00
C1733  C     0.35956   0.28866   0.88527   0.00000  Uiso   1.00
C1734  C     0.09527   0.14605   0.74641   0.00000  Uiso   1.00
C1735  C     0.14233   0.40218   0.74557   0.00000  Uiso   1.00
C1736  C     0.39107   0.04896   0.89251   0.00000  Uiso   1.00
C1737  C     0.35587   0.09394   0.74664   0.00000  Uiso   1.00
C1738  C     0.11465   0.45617   0.89233   0.00000  Uiso   1.00
C1739  C     0.28686   0.34914   0.86520   0.00000  Uiso   1.00
C1740  C     0.11678   0.04983   0.77079   0.00000  Uiso   1.00
C1741  C     0.14489   0.10088   0.92105   0.00000  Uiso   1.00
C1742  C     0.31232   0.05700   0.83287   0.00000  Uiso   1.00
C1743  C     0.39588   0.45564   0.79484   0.00000  Uiso   1.00
C1744  C     0.00677   0.29011   0.69032   0.00000  Uiso   1.00
H1745  H     0.05768   0.40009   0.77070   0.00000  Uiso   1.00
H1746  H     0.01733   0.06385   0.90570   0.00000  Uiso   1.00
H1747  H     0.48310   0.11522   0.95868   0.00000  Uiso   1.00
H1748  H     0.48970   0.14394   0.90686   0.00000  Uiso   1.00
H1749  H     0.05752   0.18327   0.94128   0.00000  Uiso   1.00
H1750  H     0.04681   0.15507   0.98861   0.00000  Uiso   1.00
H1751  H     0.44235   0.10703   0.77280   0.00000  Uiso   1.00
H1752  H     0.44073   0.07989   0.71805   0.00000  Uiso   1.00
H1753  H     0.48151   0.06538   0.75712   0.00000  Uiso   1.00
H1754  H     0.01049   0.11509   0.70235   0.00000  Uiso   1.00
H1755  H     0.00917   0.14555   0.75489   0.00000  Uiso   1.00
H1756  H     0.05074   0.42339   0.71569   0.00000  Uiso   1.00
H1757  H     0.43871   0.18425   0.72524   0.00000  Uiso   1.00
H1758  H     0.44817   0.15554   0.67690   0.00000  Uiso   1.00
H1759  H     0.44724   0.42166   0.94686   0.00000  Uiso   1.00
H1760  H     0.44347   0.38900   0.89568   0.00000  Uiso   1.00
H1761  H     0.39700   0.39726   0.92984   0.00000  Uiso   1.00
H1762  H     0.42302   0.31803   0.94198   0.00000  Uiso   1.00
H1763  H     0.43203   0.35300   0.98986   0.00000  Uiso   1.00
H1764  H     0.00449   0.36583   0.97009   0.00000  Uiso   1.00
H1765  H     0.00055   0.33565   0.91999   0.00000  Uiso   1.00
H1766  H     0.22705   0.17871   0.73990   0.00000  Uiso   1.00
H1767  H     0.01397   0.43724   0.75938   0.00000  Uiso   1.00
H1768  H     0.24104   0.17577   0.68192   0.00000  Uiso   1.00
H1769  H     0.18665   0.18481   0.69809   0.00000  Uiso   1.00
H1770  H     0.19462   0.10320   0.67474   0.00000  Uiso   1.00
H1771  H     0.18463   0.10795   0.73240   0.00000  Uiso   1.00
H1772  H     0.24974   0.08307   0.75200   0.00000  Uiso   1.00
H1773  H     0.27743   0.10868   0.71207   0.00000  Uiso   1.00
H1774  H     0.20355   0.32139   0.92797   0.00000  Uiso   1.00
H1775  H     0.22642   0.32745   0.98255   0.00000  Uiso   1.00
H1776  H     0.17012   0.32588   0.97592   0.00000  Uiso   1.00
H1777  H     0.18182   0.40655   0.98485   0.00000  Uiso   1.00
H1778  H     0.48171   0.37962   0.71037   0.00000  Uiso   1.00
H1779  H     0.17921   0.39782   0.92683   0.00000  Uiso   1.00
H1780  H     0.24912   0.41642   0.91581   0.00000  Uiso   1.00
H1781  H     0.26748   0.38900   0.96065   0.00000  Uiso   1.00
H1782  H     0.29698   0.34029   0.76209   0.00000  Uiso   1.00
H1783  H     0.27052   0.32280   0.71160   0.00000  Uiso   1.00
H1784  H     0.32682   0.32334   0.71355   0.00000  Uiso   1.00
H1785  H     0.31298   0.39330   0.67681   0.00000  Uiso   1.00
H1786  H     0.32205   0.41173   0.73137   0.00000  Uiso   1.00
H1787  H     0.24778   0.41700   0.74882   0.00000  Uiso   1.00
H1788  H     0.23047   0.38888   0.70229   0.00000  Uiso   1.00
H1789  H     0.49288   0.35477   0.76309   0.00000  Uiso   1.00
H1790  H     0.29502   0.17566   0.95493   0.00000  Uiso   1.00
H1791  H     0.31114   0.15121   0.90211   0.00000  Uiso   1.00
H1792  H     0.26405   0.18585   0.90594   0.00000  Uiso   1.00
H1793  H     0.24708   0.10330   0.89934   0.00000  Uiso   1.00
H1794  H     0.22820   0.12718   0.94990   0.00000  Uiso   1.00
H1795  H     0.29974   0.09941   0.98332   0.00000  Uiso   1.00
H1796  H     0.30999   0.06702   0.93998   0.00000  Uiso   1.00
H1797  H     0.31437   0.22264   0.73320   0.00000  Uiso   1.00
H1798  H     0.09199   0.31300   0.96614   0.00000  Uiso   1.00
H1799  H     0.18157   0.27308   0.73198   0.00000  Uiso   1.00
H1800  H     0.06024   0.31725   0.72767   0.00000  Uiso   1.00
H1801  H     0.40102   0.20361   0.96384   0.00000  Uiso   1.00
H1802  H     0.18230   0.23008   0.93523   0.00000  Uiso   1.00
H1803  H     0.40046   0.30770   0.70280   0.00000  Uiso   1.00
H1804  H     0.34367   0.26251   0.94466   0.00000  Uiso   1.00
H1805  H     0.09699   0.19635   0.70080   0.00000  Uiso   1.00
H1806  H     0.12094   0.38922   0.68362   0.00000  Uiso   1.00
H1807  H     0.43926   0.01793   0.92437   0.00000  Uiso   1.00
H1808  H     0.36406   0.10469   0.68193   0.00000  Uiso   1.00
H1809  H     0.08892   0.01971   0.89326   0.00000  Uiso   1.00
H1810  H     0.22499   0.35146   0.84818   0.00000  Uiso   1.00
H1811  H     0.05075   0.34679   0.68227   0.00000  Uiso   1.00
H1812  H     0.07874   0.49484   0.75988   0.00000  Uiso   1.00
H1813  H     0.12789   0.11465   0.98413   0.00000  Uiso   1.00
H1814  H     0.44376   0.49033   0.76578   0.00000  Uiso   1.00
H1815  H     0.05789   0.10572   0.89499   0.00000  Uiso   1.00
H1816  H     0.05443   0.07913   0.94891   0.00000  Uiso   1.00
N1817  N     0.00000   0.25000   0.95240   0.00000  Uiso   1.00
N1818  N     0.00000   0.25000   0.71427   0.00000  Uiso   1.00
N1819  N     0.25000   0.00000   0.95240   0.00000  Uiso   1.00
N1820  N     0.25000   0.00000   0.71427   0.00000  Uiso   1.00
O1821  O     0.04581   0.20419   0.87154   0.00000  Uiso   1.00
O1822  O     0.20420   0.04581   0.79513   0.00000  Uiso   1.00
O1823  O     0.20420   0.04581   0.87154   0.00000  Uiso   1.00
O1824  O     0.29581   0.45419   0.79513   0.00000  Uiso   1.00
O1825  O     0.20420   0.45419   0.79513   0.00000  Uiso   1.00
O1826  O     0.29581   0.04581   0.87154   0.00000  Uiso   1.00
O1827  O     0.29581   0.04581   0.79513   0.00000  Uiso   1.00
O1828  O     0.20420   0.45419   0.87154   0.00000  Uiso   1.00
O1829  O     0.37760   0.23390   0.77561   0.00000  Uiso   1.00
O1830  O     0.32184   0.19300   0.74877   0.00000  Uiso   1.00
O1831  O     0.07164   0.38930   0.94259   0.00000  Uiso   1.00
O1832  O     0.45420   0.29581   0.79513   0.00000  Uiso   1.00
O1833  O     0.09937   0.31744   0.93396   0.00000  Uiso   1.00
O1834  O     0.12772   0.26258   0.78667   0.00000  Uiso   1.00
O1835  O     0.17315   0.30416   0.74510   0.00000  Uiso   1.00
O1836  O     0.40472   0.12247   0.95037   0.00000  Uiso   1.00
O1837  O     0.39846   0.19686   0.93093   0.00000  Uiso   1.00
O1838  O     0.12424   0.23925   0.88540   0.00000  Uiso   1.00
O1839  O     0.17523   0.19929   0.92054   0.00000  Uiso   1.00
O1840  O     0.40288   0.38881   0.72251   0.00000  Uiso   1.00
O1841  O     0.40188   0.31220   0.73600   0.00000  Uiso   1.00
O1842  O     0.36181   0.25049   0.86787   0.00000  Uiso   1.00
O1843  O     0.45420   0.29581   0.87154   0.00000  Uiso   1.00
O1844  O     0.34955   0.29321   0.93022   0.00000  Uiso   1.00
O1845  O     0.08460   0.11715   0.71878   0.00000  Uiso   1.00
O1846  O     0.10248   0.19152   0.73343   0.00000  Uiso   1.00
O1847  O     0.14850   0.44276   0.73714   0.00000  Uiso   1.00
O1848  O     0.12825   0.37246   0.71172   0.00000  Uiso   1.00
O1849  O     0.36801   0.01549   0.89765   0.00000  Uiso   1.00
O1850  O     0.43271   0.04759   0.90839   0.00000  Uiso   1.00
O1851  O     0.35500   0.05220   0.73995   0.00000  Uiso   1.00
O1852  O     0.36181   0.12283   0.71064   0.00000  Uiso   1.00
O1853  O     0.12503   0.45909   0.93123   0.00000  Uiso   1.00
O1854  O     0.04581   0.20419   0.79513   0.00000  Uiso   1.00
O1855  O     0.09491   0.49326   0.87195   0.00000  Uiso   1.00
O1856  O     0.27899   0.32493   0.89686   0.00000  Uiso   1.00
O1857  O     0.25363   0.36332   0.83802   0.00000  Uiso   1.00
O1858  O     0.13756   0.04174   0.73745   0.00000  Uiso   1.00
O1859  O     0.08285   0.02116   0.78194   0.00000  Uiso   1.00
O1860  O     0.15180   0.06065   0.93003   0.00000  Uiso   1.00
O1861  O     0.13142   0.13078   0.95496   0.00000  Uiso   1.00
O1862  O     0.37759   0.49143   0.80400   0.00000  Uiso   1.00
O1863  O     0.43506   0.45764   0.77324   0.00000  Uiso   1.00
O1864  O     0.45420   0.20419   0.79513   0.00000  Uiso   1.00
O1865  O     0.04581   0.29581   0.87154   0.00000  Uiso   1.00
O1866  O     0.04581   0.29581   0.79513   0.00000  Uiso   1.00
O1867  O     0.45420   0.20419   0.87154   0.00000  Uiso   1.00
O1868  O     0.29581   0.45419   0.87154   0.00000  Uiso   1.00
Zn1869 Zn    0.00000   0.25000   0.88437   0.00000  Uiso   1.00
Zn1870 Zn    0.00000   0.25000   0.78229   0.00000  Uiso   1.00
Zn1871 Zn    0.25000   0.00000   0.88437   0.00000  Uiso   1.00
Zn1872 Zn    0.25000   0.00000   0.78229   0.00000  Uiso   1.00
C1873  C     0.56218   0.19251   0.83249   0.00000  Uiso   1.00
C1874  C     0.50277   0.20980   0.97621   0.00000  Uiso   1.00
C1875  C     0.99281   0.21038   0.68908   0.00000  Uiso   1.00
C1876  C     0.99823   0.29059   0.97678   0.00000  Uiso   1.00
C1877  C     0.75132   0.04088   0.69135   0.00000  Uiso   1.00
C1878  C     0.74713   0.45919   0.97559   0.00000  Uiso   1.00
C1879  C     0.75078   0.45917   0.69000   0.00000  Uiso   1.00
C1880  C     0.75691   0.04036   0.97717   0.00000  Uiso   1.00
C1881  C     0.87431   0.15668   0.79972   0.00000  Uiso   1.00
C1882  C     0.60013   0.37288   0.87221   0.00000  Uiso   1.00
C1883  C     0.62522   0.34289   0.80060   0.00000  Uiso   1.00
C1884  C     0.93796   0.30731   0.83304   0.00000  Uiso   1.00
C1885  C     0.89650   0.13282   0.87359   0.00000  Uiso   1.00
C1886  C     0.62645   0.15979   0.86613   0.00000  Uiso   1.00
C1887  C     0.90024   0.37056   0.79824   0.00000  Uiso   1.00
C1888  C     0.86491   0.33030   0.85811   0.00000  Uiso   1.00
C1889  C     0.60429   0.13223   0.79276   0.00000  Uiso   1.00
C1890  C     0.64360   0.38555   0.79230   0.00000  Uiso   1.00
C1891  C     0.87675   0.09009   0.86702   0.00000  Uiso   1.00
C1892  C     0.85597   0.11347   0.79291   0.00000  Uiso   1.00
C1893  C     0.62275   0.41361   0.86561   0.00000  Uiso   1.00
C1894  C     0.83156   0.36210   0.85405   0.00000  Uiso   1.00
C1895  C     0.93778   0.19251   0.83388   0.00000  Uiso   1.00
C1896  C     0.62595   0.09107   0.79914   0.00000  Uiso   1.00
C1897  C     0.64496   0.11705   0.87401   0.00000  Uiso   1.00
C1898  C     0.87843   0.41029   0.80902   0.00000  Uiso   1.00
C1899  C     0.59786   0.33978   0.83704   0.00000  Uiso   1.00
C1900  C     0.90057   0.16263   0.83681   0.00000  Uiso   1.00
C1901  C     0.90065   0.33614   0.83051   0.00000  Uiso   1.00
C1902  C     0.59984   0.16337   0.82921   0.00000  Uiso   1.00
C1903  C     0.85044   0.08498   0.83011   0.00000  Uiso   1.00
C1904  C     0.64884   0.41636   0.82868   0.00000  Uiso   1.00
C1905  C     0.65047   0.08647   0.83721   0.00000  Uiso   1.00
C1906  C     0.56165   0.30838   0.83413   0.00000  Uiso   1.00
C1907  C     0.84074   0.40441   0.83314   0.00000  Uiso   1.00
C1908  C     0.53303   0.33004   0.70902   0.00000  Uiso   1.00
C1909  C     0.50716   0.36779   0.73259   0.00000  Uiso   1.00
C1910  C     0.53429   0.40960   0.74519   0.00000  Uiso   1.00
C1911  C     0.53032   0.17010   0.96010   0.00000  Uiso   1.00
C1912  C     0.50637   0.13095   0.93605   0.00000  Uiso   1.00
C1913  C     0.53606   0.09265   0.92060   0.00000  Uiso   1.00
C1914  C     0.96528   0.17094   0.70534   0.00000  Uiso   1.00
C1915  C     0.98993   0.13193   0.72725   0.00000  Uiso   1.00
C1916  C     0.96148   0.09388   0.74477   0.00000  Uiso   1.00
C1917  C     0.80960   0.44002   0.83325   0.00000  Uiso   1.00
C1918  C     0.98879   0.33602   0.95412   0.00000  Uiso   1.00
C1919  C     0.94163   0.34737   0.95533   0.00000  Uiso   1.00
C1920  C     0.93181   0.39149   0.93026   0.00000  Uiso   1.00
C1921  C     0.74895   0.08720   0.71657   0.00000  Uiso   1.00
C1922  C     0.70855   0.11459   0.70657   0.00000  Uiso   1.00
C1923  C     0.71646   0.16668   0.70659   0.00000  Uiso   1.00
C1924  C     0.74257   0.41313   0.95079   0.00000  Uiso   1.00
C1925  C     0.69849   0.39087   0.95621   0.00000  Uiso   1.00
C1926  C     0.70004   0.33832   0.96094   0.00000  Uiso   1.00
C1927  C     0.75495   0.41350   0.71385   0.00000  Uiso   1.00
C1928  C     0.68781   0.05728   0.83420   0.00000  Uiso   1.00
C1929  C     0.79943   0.39191   0.71046   0.00000  Uiso   1.00
C1930  C     0.79828   0.34168   0.72546   0.00000  Uiso   1.00
C1931  C     0.78218   0.08048   0.95763   0.00000  Uiso   1.00
C1932  C     0.75701   0.11672   0.93178   0.00000  Uiso   1.00
C1933  C     0.78357   0.15997   0.92334   0.00000  Uiso   1.00
C1934  C     0.85933   0.19675   0.77341   0.00000  Uiso   1.00
C1935  C     0.58835   0.36085   0.91807   0.00000  Uiso   1.00
C1936  C     0.64069   0.30074   0.77651   0.00000  Uiso   1.00
C1937  C     0.90157   0.14986   0.92037   0.00000  Uiso   1.00
C1938  C     0.64055   0.20178   0.89178   0.00000  Uiso   1.00
C1939  C     0.68736   0.44361   0.83240   0.00000  Uiso   1.00
C1940  C     0.90330   0.35842   0.75009   0.00000  Uiso   1.00
C1941  C     0.85956   0.28866   0.88527   0.00000  Uiso   1.00
C1942  C     0.59527   0.14605   0.74641   0.00000  Uiso   1.00
C1943  C     0.64233   0.40218   0.74557   0.00000  Uiso   1.00
C1944  C     0.89107   0.04896   0.89251   0.00000  Uiso   1.00
C1945  C     0.85587   0.09394   0.74664   0.00000  Uiso   1.00
C1946  C     0.61465   0.45617   0.89233   0.00000  Uiso   1.00
C1947  C     0.78686   0.34914   0.86520   0.00000  Uiso   1.00
C1948  C     0.61678   0.04983   0.77079   0.00000  Uiso   1.00
C1949  C     0.64489   0.10088   0.92105   0.00000  Uiso   1.00
C1950  C     0.81232   0.05700   0.83287   0.00000  Uiso   1.00
C1951  C     0.89588   0.45564   0.79484   0.00000  Uiso   1.00
C1952  C     0.50677   0.29011   0.69032   0.00000  Uiso   1.00
H1953  H     0.55768   0.40009   0.77070   0.00000  Uiso   1.00
H1954  H     0.51733   0.06385   0.90570   0.00000  Uiso   1.00
H1955  H     0.98310   0.11522   0.95868   0.00000  Uiso   1.00
H1956  H     0.98970   0.14394   0.90686   0.00000  Uiso   1.00
H1957  H     0.55752   0.18327   0.94128   0.00000  Uiso   1.00
H1958  H     0.54681   0.15507   0.98861   0.00000  Uiso   1.00
H1959  H     0.94235   0.10703   0.77280   0.00000  Uiso   1.00
H1960  H     0.94073   0.07989   0.71805   0.00000  Uiso   1.00
H1961  H     0.98151   0.06538   0.75712   0.00000  Uiso   1.00
H1962  H     0.51049   0.11509   0.70235   0.00000  Uiso   1.00
H1963  H     0.50917   0.14555   0.75489   0.00000  Uiso   1.00
H1964  H     0.55074   0.42339   0.71569   0.00000  Uiso   1.00
H1965  H     0.93871   0.18425   0.72524   0.00000  Uiso   1.00
H1966  H     0.94817   0.15554   0.67690   0.00000  Uiso   1.00
H1967  H     0.94724   0.42166   0.94686   0.00000  Uiso   1.00
H1968  H     0.94347   0.38900   0.89568   0.00000  Uiso   1.00
H1969  H     0.89700   0.39726   0.92984   0.00000  Uiso   1.00
H1970  H     0.92302   0.31803   0.94198   0.00000  Uiso   1.00
H1971  H     0.93203   0.35300   0.98986   0.00000  Uiso   1.00
H1972  H     0.50449   0.36583   0.97009   0.00000  Uiso   1.00
H1973  H     0.50055   0.33565   0.91999   0.00000  Uiso   1.00
H1974  H     0.72705   0.17871   0.73990   0.00000  Uiso   1.00
H1975  H     0.51397   0.43724   0.75938   0.00000  Uiso   1.00
H1976  H     0.74104   0.17577   0.68192   0.00000  Uiso   1.00
H1977  H     0.68665   0.18481   0.69809   0.00000  Uiso   1.00
H1978  H     0.69462   0.10320   0.67474   0.00000  Uiso   1.00
H1979  H     0.68463   0.10795   0.73240   0.00000  Uiso   1.00
H1980  H     0.74974   0.08307   0.75200   0.00000  Uiso   1.00
H1981  H     0.77743   0.10868   0.71207   0.00000  Uiso   1.00
H1982  H     0.70355   0.32139   0.92797   0.00000  Uiso   1.00
H1983  H     0.72642   0.32745   0.98255   0.00000  Uiso   1.00
H1984  H     0.67012   0.32588   0.97592   0.00000  Uiso   1.00
H1985  H     0.68182   0.40655   0.98485   0.00000  Uiso   1.00
H1986  H     0.98171   0.37962   0.71037   0.00000  Uiso   1.00
H1987  H     0.67921   0.39782   0.92683   0.00000  Uiso   1.00
H1988  H     0.74912   0.41642   0.91581   0.00000  Uiso   1.00
H1989  H     0.76748   0.38900   0.96065   0.00000  Uiso   1.00
H1990  H     0.79698   0.34029   0.76209   0.00000  Uiso   1.00
H1991  H     0.77052   0.32280   0.71160   0.00000  Uiso   1.00
H1992  H     0.82682   0.32334   0.71355   0.00000  Uiso   1.00
H1993  H     0.81298   0.39330   0.67681   0.00000  Uiso   1.00
H1994  H     0.82205   0.41173   0.73137   0.00000  Uiso   1.00
H1995  H     0.74778   0.41700   0.74882   0.00000  Uiso   1.00
H1996  H     0.73047   0.38888   0.70229   0.00000  Uiso   1.00
H1997  H     0.99288   0.35477   0.76309   0.00000  Uiso   1.00
H1998  H     0.79502   0.17566   0.95493   0.00000  Uiso   1.00
H1999  H     0.81114   0.15121   0.90211   0.00000  Uiso   1.00
H2000  H     0.76405   0.18585   0.90594   0.00000  Uiso   1.00
H2001  H     0.74708   0.10330   0.89934   0.00000  Uiso   1.00
H2002  H     0.72820   0.12718   0.94990   0.00000  Uiso   1.00
H2003  H     0.79974   0.09941   0.98332   0.00000  Uiso   1.00
H2004  H     0.80999   0.06702   0.93998   0.00000  Uiso   1.00
H2005  H     0.81437   0.22264   0.73320   0.00000  Uiso   1.00
H2006  H     0.59199   0.31300   0.96614   0.00000  Uiso   1.00
H2007  H     0.68157   0.27308   0.73198   0.00000  Uiso   1.00
H2008  H     0.56024   0.31725   0.72767   0.00000  Uiso   1.00
H2009  H     0.90102   0.20361   0.96384   0.00000  Uiso   1.00
H2010  H     0.68230   0.23008   0.93523   0.00000  Uiso   1.00
H2011  H     0.90046   0.30770   0.70280   0.00000  Uiso   1.00
H2012  H     0.84367   0.26251   0.94466   0.00000  Uiso   1.00
H2013  H     0.59699   0.19635   0.70080   0.00000  Uiso   1.00
H2014  H     0.62094   0.38922   0.68362   0.00000  Uiso   1.00
H2015  H     0.93926   0.01793   0.92437   0.00000  Uiso   1.00
H2016  H     0.86406   0.10469   0.68193   0.00000  Uiso   1.00
H2017  H     0.58892   0.01971   0.89326   0.00000  Uiso   1.00
H2018  H     0.72499   0.35146   0.84818   0.00000  Uiso   1.00
H2019  H     0.55075   0.34679   0.68227   0.00000  Uiso   1.00
H2020  H     0.57874   0.49484   0.75988   0.00000  Uiso   1.00
H2021  H     0.62789   0.11465   0.98413   0.00000  Uiso   1.00
H2022  H     0.94376   0.49033   0.76578   0.00000  Uiso   1.00
H2023  H     0.55789   0.10572   0.89499   0.00000  Uiso   1.00
H2024  H     0.55443   0.07913   0.94891   0.00000  Uiso   1.00
N2025  N     0.50000   0.25000   0.95240   0.00000  Uiso   1.00
N2026  N     0.50000   0.25000   0.71427   0.00000  Uiso   1.00
N2027  N     0.75000   0.00000   0.95240   0.00000  Uiso   1.00
N2028  N     0.75000   0.00000   0.71427   0.00000  Uiso   1.00
O2029  O     0.54581   0.20419   0.87154   0.00000  Uiso   1.00
O2030  O     0.70420   0.04581   0.79513   0.00000  Uiso   1.00
O2031  O     0.70420   0.04581   0.87154   0.00000  Uiso   1.00
O2032  O     0.79581   0.45419   0.79513   0.00000  Uiso   1.00
O2033  O     0.70420   0.45419   0.79513   0.00000  Uiso   1.00
O2034  O     0.79581   0.04581   0.87154   0.00000  Uiso   1.00
O2035  O     0.79581   0.04581   0.79513   0.00000  Uiso   1.00
O2036  O     0.70420   0.45419   0.87154   0.00000  Uiso   1.00
O2037  O     0.87760   0.23390   0.77561   0.00000  Uiso   1.00
O2038  O     0.82184   0.19300   0.74877   0.00000  Uiso   1.00
O2039  O     0.57164   0.38930   0.94259   0.00000  Uiso   1.00
O2040  O     0.95420   0.29581   0.79513   0.00000  Uiso   1.00
O2041  O     0.59937   0.31744   0.93396   0.00000  Uiso   1.00
O2042  O     0.62772   0.26258   0.78667   0.00000  Uiso   1.00
O2043  O     0.67315   0.30416   0.74510   0.00000  Uiso   1.00
O2044  O     0.90472   0.12247   0.95037   0.00000  Uiso   1.00
O2045  O     0.89846   0.19686   0.93093   0.00000  Uiso   1.00
O2046  O     0.62424   0.23925   0.88540   0.00000  Uiso   1.00
O2047  O     0.67523   0.19929   0.92054   0.00000  Uiso   1.00
O2048  O     0.90288   0.38881   0.72251   0.00000  Uiso   1.00
O2049  O     0.90188   0.31220   0.73600   0.00000  Uiso   1.00
O2050  O     0.86181   0.25049   0.86787   0.00000  Uiso   1.00
O2051  O     0.95420   0.29581   0.87154   0.00000  Uiso   1.00
O2052  O     0.84955   0.29321   0.93022   0.00000  Uiso   1.00
O2053  O     0.58460   0.11715   0.71878   0.00000  Uiso   1.00
O2054  O     0.60248   0.19152   0.73343   0.00000  Uiso   1.00
O2055  O     0.64850   0.44276   0.73714   0.00000  Uiso   1.00
O2056  O     0.62825   0.37246   0.71172   0.00000  Uiso   1.00
O2057  O     0.86801   0.01549   0.89765   0.00000  Uiso   1.00
O2058  O     0.93271   0.04759   0.90839   0.00000  Uiso   1.00
O2059  O     0.85500   0.05220   0.73995   0.00000  Uiso   1.00
O2060  O     0.86181   0.12283   0.71064   0.00000  Uiso   1.00
O2061  O     0.62503   0.45909   0.93123   0.00000  Uiso   1.00
O2062  O     0.54581   0.20419   0.79513   0.00000  Uiso   1.00
O2063  O     0.59491   0.49326   0.87195   0.00000  Uiso   1.00
O2064  O     0.77899   0.32493   0.89686   0.00000  Uiso   1.00
O2065  O     0.75363   0.36332   0.83802   0.00000  Uiso   1.00
O2066  O     0.63756   0.04174   0.73745   0.00000  Uiso   1.00
O2067  O     0.58285   0.02116   0.78194   0.00000  Uiso   1.00
O2068  O     0.65180   0.06065   0.93003   0.00000  Uiso   1.00
O2069  O     0.63142   0.13078   0.95496   0.00000  Uiso   1.00
O2070  O     0.87759   0.49143   0.80400   0.00000  Uiso   1.00
O2071  O     0.93506   0.45764   0.77324   0.00000  Uiso   1.00
O2072  O     0.95420   0.20419   0.79513   0.00000  Uiso   1.00
O2073  O     0.54581   0.29581   0.87154   0.00000  Uiso   1.00
O2074  O     0.54581   0.29581   0.79513   0.00000  Uiso   1.00
O2075  O     0.95420   0.20419   0.87154   0.00000  Uiso   1.00
O2076  O     0.79581   0.45419   0.87154   0.00000  Uiso   1.00
Zn2077 Zn    0.50000   0.25000   0.88437   0.00000  Uiso   1.00
Zn2078 Zn    0.50000   0.25000   0.78229   0.00000  Uiso   1.00
Zn2079 Zn    0.75000   0.00000   0.88437   0.00000  Uiso   1.00
Zn2080 Zn    0.75000   0.00000   0.78229   0.00000  Uiso   1.00
C2081  C     0.06218   0.69251   0.83249   0.00000  Uiso   1.00
C2082  C     0.00277   0.70980   0.97621   0.00000  Uiso   1.00
C2083  C     0.49281   0.71038   0.68908   0.00000  Uiso   1.00
C2084  C     0.49823   0.79059   0.97678   0.00000  Uiso   1.00
C2085  C     0.25132   0.54088   0.69135   0.00000  Uiso   1.00
C2086  C     0.24713   0.95919   0.97559   0.00000  Uiso   1.00
C2087  C     0.25078   0.95917   0.69000   0.00000  Uiso   1.00
C2088  C     0.25691   0.54036   0.97717   0.00000  Uiso   1.00
C2089  C     0.37431   0.65668   0.79972   0.00000  Uiso   1.00
C2090  C     0.10013   0.87288   0.87221   0.00000  Uiso   1.00
C2091  C     0.12522   0.84289   0.80060   0.00000  Uiso   1.00
C2092  C     0.43796   0.80731   0.83304   0.00000  Uiso   1.00
C2093  C     0.39650   0.63282   0.87359   0.00000  Uiso   1.00
C2094  C     0.12645   0.65979   0.86613   0.00000  Uiso   1.00
C2095  C     0.40024   0.87056   0.79824   0.00000  Uiso   1.00
C2096  C     0.36491   0.83030   0.85811   0.00000  Uiso   1.00
C2097  C     0.10429   0.63223   0.79276   0.00000  Uiso   1.00
C2098  C     0.14360   0.88555   0.79230   0.00000  Uiso   1.00
C2099  C     0.37675   0.59009   0.86702   0.00000  Uiso   1.00
C2100  C     0.35597   0.61347   0.79291   0.00000  Uiso   1.00
C2101  C     0.12275   0.91361   0.86561   0.00000  Uiso   1.00
C2102  C     0.33156   0.86210   0.85405   0.00000  Uiso   1.00
C2103  C     0.43778   0.69251   0.83388   0.00000  Uiso   1.00
C2104  C     0.12595   0.59107   0.79914   0.00000  Uiso   1.00
C2105  C     0.14496   0.61705   0.87401   0.00000  Uiso   1.00
C2106  C     0.37843   0.91029   0.80902   0.00000  Uiso   1.00
C2107  C     0.09786   0.83978   0.83704   0.00000  Uiso   1.00
C2108  C     0.40057   0.66263   0.83681   0.00000  Uiso   1.00
C2109  C     0.40065   0.83614   0.83051   0.00000  Uiso   1.00
C2110  C     0.09984   0.66337   0.82921   0.00000  Uiso   1.00
C2111  C     0.35044   0.58498   0.83011   0.00000  Uiso   1.00
C2112  C     0.14884   0.91636   0.82868   0.00000  Uiso   1.00
C2113  C     0.15047   0.58647   0.83721   0.00000  Uiso   1.00
C2114  C     0.06165   0.80838   0.83413   0.00000  Uiso   1.00
C2115  C     0.34074   0.90441   0.83314   0.00000  Uiso   1.00
C2116  C     0.03303   0.83004   0.70902   0.00000  Uiso   1.00
C2117  C     0.00716   0.86779   0.73259   0.00000  Uiso   1.00
C2118  C     0.03429   0.90960   0.74519   0.00000  Uiso   1.00
C2119  C     0.03032   0.67010   0.96010   0.00000  Uiso   1.00
C2120  C     0.00637   0.63095   0.93605   0.00000  Uiso   1.00
C2121  C     0.03606   0.59265   0.92060   0.00000  Uiso   1.00
C2122  C     0.46528   0.67094   0.70534   0.00000  Uiso   1.00
C2123  C     0.48993   0.63193   0.72725   0.00000  Uiso   1.00
C2124  C     0.46148   0.59388   0.74477   0.00000  Uiso   1.00
C2125  C     0.30960   0.94002   0.83325   0.00000  Uiso   1.00
C2126  C     0.48879   0.83602   0.95412   0.00000  Uiso   1.00
C2127  C     0.44163   0.84737   0.95533   0.00000  Uiso   1.00
C2128  C     0.43181   0.89149   0.93026   0.00000  Uiso   1.00
C2129  C     0.24895   0.58720   0.71657   0.00000  Uiso   1.00
C2130  C     0.20855   0.61459   0.70657   0.00000  Uiso   1.00
C2131  C     0.21646   0.66668   0.70659   0.00000  Uiso   1.00
C2132  C     0.24257   0.91313   0.95079   0.00000  Uiso   1.00
C2133  C     0.19849   0.89087   0.95621   0.00000  Uiso   1.00
C2134  C     0.20004   0.83832   0.96094   0.00000  Uiso   1.00
C2135  C     0.25495   0.91350   0.71385   0.00000  Uiso   1.00
C2136  C     0.18781   0.55728   0.83420   0.00000  Uiso   1.00
C2137  C     0.29943   0.89191   0.71046   0.00000  Uiso   1.00
C2138  C     0.29828   0.84168   0.72546   0.00000  Uiso   1.00
C2139  C     0.28218   0.58048   0.95763   0.00000  Uiso   1.00
C2140  C     0.25701   0.61672   0.93178   0.00000  Uiso   1.00
C2141  C     0.28357   0.65997   0.92334   0.00000  Uiso   1.00
C2142  C     0.35933   0.69675   0.77341   0.00000  Uiso   1.00
C2143  C     0.08835   0.86085   0.91807   0.00000  Uiso   1.00
C2144  C     0.14069   0.80074   0.77651   0.00000  Uiso   1.00
C2145  C     0.40157   0.64986   0.92037   0.00000  Uiso   1.00
C2146  C     0.14055   0.70178   0.89178   0.00000  Uiso   1.00
C2147  C     0.18736   0.94361   0.83240   0.00000  Uiso   1.00
C2148  C     0.40330   0.85842   0.75009   0.00000  Uiso   1.00
C2149  C     0.35956   0.78866   0.88527   0.00000  Uiso   1.00
C2150  C     0.09527   0.64605   0.74641   0.00000  Uiso   1.00
C2151  C     0.14233   0.90218   0.74557   0.00000  Uiso   1.00
C2152  C     0.39107   0.54896   0.89251   0.00000  Uiso   1.00
C2153  C     0.35587   0.59394   0.74664   0.00000  Uiso   1.00
C2154  C     0.11465   0.95617   0.89233   0.00000  Uiso   1.00
C2155  C     0.28686   0.84914   0.86520   0.00000  Uiso   1.00
C2156  C     0.11678   0.54983   0.77079   0.00000  Uiso   1.00
C2157  C     0.14489   0.60088   0.92105   0.00000  Uiso   1.00
C2158  C     0.31232   0.55700   0.83287   0.00000  Uiso   1.00
C2159  C     0.39588   0.95564   0.79484   0.00000  Uiso   1.00
C2160  C     0.00677   0.79011   0.69032   0.00000  Uiso   1.00
H2161  H     0.05768   0.90009   0.77070   0.00000  Uiso   1.00
H2162  H     0.01733   0.56385   0.90570   0.00000  Uiso   1.00
H2163  H     0.48310   0.61522   0.95868   0.00000  Uiso   1.00
H2164  H     0.48970   0.64394   0.90686   0.00000  Uiso   1.00
H2165  H     0.05752   0.68327   0.94128   0.00000  Uiso   1.00
H2166  H     0.04681   0.65507   0.98861   0.00000  Uiso   1.00
H2167  H     0.44235   0.60703   0.77280   0.00000  Uiso   1.00
H2168  H     0.44073   0.57989   0.71805   0.00000  Uiso   1.00
H2169  H     0.48151   0.56538   0.75712   0.00000  Uiso   1.00
H2170  H     0.01049   0.61509   0.70235   0.00000  Uiso   1.00
H2171  H     0.00917   0.64555   0.75489   0.00000  Uiso   1.00
H2172  H     0.05074   0.92339   0.71569   0.00000  Uiso   1.00
H2173  H     0.43871   0.68425   0.72524   0.00000  Uiso   1.00
H2174  H     0.44817   0.65554   0.67690   0.00000  Uiso   1.00
H2175  H     0.44724   0.92166   0.94686   0.00000  Uiso   1.00
H2176  H     0.44347   0.88900   0.89568   0.00000  Uiso   1.00
H2177  H     0.39700   0.89726   0.92984   0.00000  Uiso   1.00
H2178  H     0.42302   0.81803   0.94198   0.00000  Uiso   1.00
H2179  H     0.43203   0.85300   0.98986   0.00000  Uiso   1.00
H2180  H     0.00449   0.86583   0.97009   0.00000  Uiso   1.00
H2181  H     0.00055   0.83565   0.91999   0.00000  Uiso   1.00
H2182  H     0.22705   0.67871   0.73990   0.00000  Uiso   1.00
H2183  H     0.01397   0.93724   0.75938   0.00000  Uiso   1.00
H2184  H     0.24104   0.67577   0.68192   0.00000  Uiso   1.00
H2185  H     0.18665   0.68481   0.69809   0.00000  Uiso   1.00
H2186  H     0.19462   0.60320   0.67474   0.00000  Uiso   1.00
H2187  H     0.18463   0.60795   0.73240   0.00000  Uiso   1.00
H2188  H     0.24974   0.58307   0.75200   0.00000  Uiso   1.00
H2189  H     0.27743   0.60868   0.71207   0.00000  Uiso   1.00
H2190  H     0.20355   0.82139   0.92797   0.00000  Uiso   1.00
H2191  H     0.22642   0.82745   0.98255   0.00000  Uiso   1.00
H2192  H     0.17012   0.82588   0.97592   0.00000  Uiso   1.00
H2193  H     0.18182   0.90655   0.98485   0.00000  Uiso   1.00
H2194  H     0.48171   0.87962   0.71037   0.00000  Uiso   1.00
H2195  H     0.17921   0.89782   0.92683   0.00000  Uiso   1.00
H2196  H     0.24912   0.91642   0.91581   0.00000  Uiso   1.00
H2197  H     0.26748   0.88900   0.96065   0.00000  Uiso   1.00
H2198  H     0.29698   0.84029   0.76209   0.00000  Uiso   1.00
H2199  H     0.27052   0.82280   0.71160   0.00000  Uiso   1.00
H2200  H     0.32682   0.82334   0.71355   0.00000  Uiso   1.00
H2201  H     0.31298   0.89330   0.67681   0.00000  Uiso   1.00
H2202  H     0.32205   0.91173   0.73137   0.00000  Uiso   1.00
H2203  H     0.24778   0.91700   0.74882   0.00000  Uiso   1.00
H2204  H     0.23047   0.88888   0.70229   0.00000  Uiso   1.00
H2205  H     0.49288   0.85477   0.76309   0.00000  Uiso   1.00
H2206  H     0.29502   0.67566   0.95493   0.00000  Uiso   1.00
H2207  H     0.31114   0.65121   0.90211   0.00000  Uiso   1.00
H2208  H     0.26405   0.68585   0.90594   0.00000  Uiso   1.00
H2209  H     0.24708   0.60330   0.89934   0.00000  Uiso   1.00
H2210  H     0.22820   0.62718   0.94990   0.00000  Uiso   1.00
H2211  H     0.29974   0.59941   0.98332   0.00000  Uiso   1.00
H2212  H     0.30999   0.56702   0.93998   0.00000  Uiso   1.00
H2213  H     0.31437   0.72264   0.73320   0.00000  Uiso   1.00
H2214  H     0.09199   0.81300   0.96614   0.00000  Uiso   1.00
H2215  H     0.18157   0.77308   0.73198   0.00000  Uiso   1.00
H2216  H     0.06024   0.81725   0.72767   0.00000  Uiso   1.00
H2217  H     0.40102   0.70361   0.96384   0.00000  Uiso   1.00
H2218  H     0.18230   0.73008   0.93523   0.00000  Uiso   1.00
H2219  H     0.40046   0.80770   0.70280   0.00000  Uiso   1.00
H2220  H     0.34367   0.76251   0.94466   0.00000  Uiso   1.00
H2221  H     0.09699   0.69635   0.70080   0.00000  Uiso   1.00
H2222  H     0.12094   0.88922   0.68362   0.00000  Uiso   1.00
H2223  H     0.43926   0.51793   0.92437   0.00000  Uiso   1.00
H2224  H     0.36406   0.60469   0.68193   0.00000  Uiso   1.00
H2225  H     0.08892   0.51971   0.89326   0.00000  Uiso   1.00
H2226  H     0.22499   0.85146   0.84818   0.00000  Uiso   1.00
H2227  H     0.05075   0.84679   0.68227   0.00000  Uiso   1.00
H2228  H     0.07874   0.99484   0.75988   0.00000  Uiso   1.00
H2229  H     0.12789   0.61465   0.98413   0.00000  Uiso   1.00
H2230  H     0.44376   0.99033   0.76578   0.00000  Uiso   1.00
H2231  H     0.05789   0.60572   0.89499   0.00000  Uiso   1.00
H2232  H     0.05443   0.57913   0.94891   0.00000  Uiso   1.00
N2233  N     0.00000   0.75000   0.95240   0.00000  Uiso   1.00
N2234  N     0.00000   0.75000   0.71427   0.00000  Uiso   1.00
N2235  N     0.25000   0.50000   0.95240   0.00000  Uiso   1.00
N2236  N     0.25000   0.50000   0.71427   0.00000  Uiso   1.00
O2237  O     0.04581   0.70419   0.87154   0.00000  Uiso   1.00
O2238  O     0.20420   0.54581   0.79513   0.00000  Uiso   1.00
O2239  O     0.20420   0.54581   0.87154   0.00000  Uiso   1.00
O2240  O     0.29581   0.95419   0.79513   0.00000  Uiso   1.00
O2241  O     0.20420   0.95419   0.79513   0.00000  Uiso   1.00
O2242  O     0.29581   0.54581   0.87154   0.00000  Uiso   1.00
O2243  O     0.29581   0.54581   0.79513   0.00000  Uiso   1.00
O2244  O     0.20420   0.95419   0.87154   0.00000  Uiso   1.00
O2245  O     0.37760   0.73390   0.77561   0.00000  Uiso   1.00
O2246  O     0.32184   0.69300   0.74877   0.00000  Uiso   1.00
O2247  O     0.07164   0.88930   0.94259   0.00000  Uiso   1.00
O2248  O     0.45420   0.79581   0.79513   0.00000  Uiso   1.00
O2249  O     0.09937   0.81744   0.93396   0.00000  Uiso   1.00
O2250  O     0.12772   0.76258   0.78667   0.00000  Uiso   1.00
O2251  O     0.17315   0.80416   0.74510   0.00000  Uiso   1.00
O2252  O     0.40472   0.62247   0.95037   0.00000  Uiso   1.00
O2253  O     0.39846   0.69686   0.93093   0.00000  Uiso   1.00
O2254  O     0.12424   0.73925   0.88540   0.00000  Uiso   1.00
O2255  O     0.17523   0.69929   0.92054   0.00000  Uiso   1.00
O2256  O     0.40288   0.88881   0.72251   0.00000  Uiso   1.00
O2257  O     0.40188   0.81220   0.73600   0.00000  Uiso   1.00
O2258  O     0.36181   0.75049   0.86787   0.00000  Uiso   1.00
O2259  O     0.45420   0.79581   0.87154   0.00000  Uiso   1.00
O2260  O     0.34955   0.79321   0.93022   0.00000  Uiso   1.00
O2261  O     0.08460   0.61715   0.71878   0.00000  Uiso   1.00
O2262  O     0.10248   0.69152   0.73343   0.00000  Uiso   1.00
O2263  O     0.14850   0.94276   0.73714   0.00000  Uiso   1.00
O2264  O     0.12825   0.87246   0.71172   0.00000  Uiso   1.00
O2265  O     0.36801   0.51549   0.89765   0.00000  Uiso   1.00
O2266  O     0.43271   0.54759   0.90839   0.00000  Uiso   1.00
O2267  O     0.35500   0.55220   0.73995   0.00000  Uiso   1.00
O2268  O     0.36181   0.62283   0.71064   0.00000  Uiso   1.00
O2269  O     0.12503   0.95909   0.93123   0.00000  Uiso   1.00
O2270  O     0.04581   0.70419   0.79513   0.00000  Uiso   1.00
O2271  O     0.09491   0.99326   0.87195   0.00000  Uiso   1.00
O2272  O     0.27899   0.82493   0.89686   0.00000  Uiso   1.00
O2273  O     0.25363   0.86332   0.83802   0.00000  Uiso   1.00
O2274  O     0.13756   0.54174   0.73745   0.00000  Uiso   1.00
O2275  O     0.08285   0.52116   0.78194   0.00000  Uiso   1.00
O2276  O     0.15180   0.56065   0.93003   0.00000  Uiso   1.00
O2277  O     0.13142   0.63078   0.95496   0.00000  Uiso   1.00
O2278  O     0.37759   0.99143   0.80400   0.00000  Uiso   1.00
O2279  O     0.43506   0.95764   0.77324   0.00000  Uiso   1.00
O2280  O     0.45420   0.70419   0.79513   0.00000  Uiso   1.00
O2281  O     0.04581   0.79581   0.87154   0.00000  Uiso   1.00
O2282  O     0.04581   0.79581   0.79513   0.00000  Uiso   1.00
O2283  O     0.45420   0.70419   0.87154   0.00000  Uiso   1.00
O2284  O     0.29581   0.95419   0.87154   0.00000  Uiso   1.00
Zn2285 Zn    0.00000   0.75000   0.88437   0.00000  Uiso   1.00
Zn2286 Zn    0.00000   0.75000   0.78229   0.00000  Uiso   1.00
Zn2287 Zn    0.25000   0.50000   0.88437   0.00000  Uiso   1.00
Zn2288 Zn    0.25000   0.50000   0.78229   0.00000  Uiso   1.00
C2289  C     0.56218   0.69251   0.83249   0.00000  Uiso   1.00
C2290  C     0.50277   0.70980   0.97621   0.00000  Uiso   1.00
C2291  C     0.99281   0.71038   0.68908   0.00000  Uiso   1.00
C2292  C     0.99823   0.79059   0.97678   0.00000  Uiso   1.00
C2293  C     0.75132   0.54088   0.69135   0.00000  Uiso   1.00
C2294  C     0.74713   0.95919   0.97559   0.00000  Uiso   1.00
C2295  C     0.75078   0.95917   0.69000   0.00000  Uiso   1.00
C2296  C     0.75691   0.54036   0.97717   0.00000  Uiso   1.00
C2297  C     0.87431   0.65668   0.79972   0.00000  Uiso   1.00
C2298  C     0.60013   0.87288   0.87221   0.00000  Uiso   1.00
C2299  C     0.62522   0.84289   0.80060   0.00000  Uiso   1.00
C2300  C     0.93796   0.80731   0.83304   0.00000  Uiso   1.00
C2301  C     0.89650   0.63282   0.87359   0.00000  Uiso   1.00
C2302  C     0.62645   0.65979   0.86613   0.00000  Uiso   1.00
C2303  C     0.90024   0.87056   0.79824   0.00000  Uiso   1.00
C2304  C     0.86491   0.83030   0.85811   0.00000  Uiso   1.00
C2305  C     0.60429   0.63223   0.79276   0.00000  Uiso   1.00
C2306  C     0.64360   0.88555   0.79230   0.00000  Uiso   1.00
C2307  C     0.87675   0.59009   0.86702   0.00000  Uiso   1.00
C2308  C     0.85597   0.61347   0.79291   0.00000  Uiso   1.00
C2309  C     0.62275   0.91361   0.86561   0.00000  Uiso   1.00
C2310  C     0.83156   0.86210   0.85405   0.00000  Uiso   1.00
C2311  C     0.93778   0.69251   0.83388   0.00000  Uiso   1.00
C2312  C     0.62595   0.59107   0.79914   0.00000  Uiso   1.00
C2313  C     0.64496   0.61705   0.87401   0.00000  Uiso   1.00
C2314  C     0.87843   0.91029   0.80902   0.00000  Uiso   1.00
C2315  C     0.59786   0.83978   0.83704   0.00000  Uiso   1.00
C2316  C     0.90057   0.66263   0.83681   0.00000  Uiso   1.00
C2317  C     0.90065   0.83614   0.83051   0.00000  Uiso   1.00
C2318  C     0.59984   0.66337   0.82921   0.00000  Uiso   1.00
C2319  C     0.85044   0.58498   0.83011   0.00000  Uiso   1.00
C2320  C     0.64884   0.91636   0.82868   0.00000  Uiso   1.00
C2321  C     0.65047   0.58647   0.83721   0.00000  Uiso   1.00
C2322  C     0.56165   0.80838   0.83413   0.00000  Uiso   1.00
C2323  C     0.84074   0.90441   0.83314   0.00000  Uiso   1.00
C2324  C     0.53303   0.83004   0.70902   0.00000  Uiso   1.00
C2325  C     0.50716   0.86779   0.73259   0.00000  Uiso   1.00
C2326  C     0.53429   0.90960   0.74519   0.00000  Uiso   1.00
C2327  C     0.53032   0.67010   0.96010   0.00000  Uiso   1.00
C2328  C     0.50637   0.63095   0.93605   0.00000  Uiso   1.00
C2329  C     0.53606   0.59265   0.92060   0.00000  Uiso   1.00
C2330  C     0.96528   0.67094   0.70534   0.00000  Uiso   1.00
C2331  C     0.98993   0.63193   0.72725   0.00000  Uiso   1.00
C2332  C     0.96148   0.59388   0.74477   0.00000  Uiso   1.00
C2333  C     0.80960   0.94002   0.83325   0.00000  Uiso   1.00
C2334  C     0.98879   0.83602   0.95412   0.00000  Uiso   1.00
C2335  C     0.94163   0.84737   0.95533   0.00000  Uiso   1.00
C2336  C     0.93181   0.89149   0.93026   0.00000  Uiso   1.00
C2337  C     0.74895   0.58720   0.71657   0.00000  Uiso   1.00
C2338  C     0.70855   0.61459   0.70657   0.00000  Uiso   1.00
C2339  C     0.71646   0.66668   0.70659   0.00000  Uiso   1.00
C2340  C     0.74257   0.91313   0.95079   0.00000  Uiso   1.00
C2341  C     0.69849   0.89087   0.95621   0.00000  Uiso   1.00
C2342  C     0.70004   0.83832   0.96094   0.00000  Uiso   1.00
C2343  C     0.75495   0.91350   0.71385   0.00000  Uiso   1.00
C2344  C     0.68781   0.55728   0.83420   0.00000  Uiso   1.00
C2345  C     0.79943   0.89191   0.71046   0.00000  Uiso   1.00
C2346  C     0.79828   0.84168   0.72546   0.00000  Uiso   1.00
C2347  C     0.78218   0.58048   0.95763   0.00000  Uiso   1.00
C2348  C     0.75701   0.61672   0.93178   0.00000  Uiso   1.00
C2349  C     0.78357   0.65997   0.92334   0.00000  Uiso   1.00
C2350  C     0.85933   0.69675   0.77341   0.00000  Uiso   1.00
C2351  C     0.58835   0.86085   0.91807   0.00000  Uiso   1.00
C2352  C     0.64069   0.80074   0.77651   0.00000  Uiso   1.00
C2353  C     0.90157   0.64986   0.92037   0.00000  Uiso   1.00
C2354  C     0.64055   0.70178   0.89178   0.00000  Uiso   1.00
C2355  C     0.68736   0.94361   0.83240   0.00000  Uiso   1.00
C2356  C     0.90330   0.85842   0.75009   0.00000  Uiso   1.00
C2357  C     0.85956   0.78866   0.88527   0.00000  Uiso   1.00
C2358  C     0.59527   0.64605   0.74641   0.00000  Uiso   1.00
C2359  C     0.64233   0.90218   0.74557   0.00000  Uiso   1.00
C2360  C     0.89107   0.54896   0.89251   0.00000  Uiso   1.00
C2361  C     0.85587   0.59394   0.74664   0.00000  Uiso   1.00
C2362  C     0.61465   0.95617   0.89233   0.00000  Uiso   1.00
C2363  C     0.78686   0.84914   0.86520   0.00000  Uiso   1.00
C2364  C     0.61678   0.54983   0.77079   0.00000  Uiso   1.00
C2365  C     0.64489   0.60088   0.92105   0.00000  Uiso   1.00
C2366  C     0.81232   0.55700   0.83287   0.00000  Uiso   1.00
C2367  C     0.89588   0.95564   0.79484   0.00000  Uiso   1.00
C2368  C     0.50677   0.79011   0.69032   0.00000  Uiso   1.00
H2369  H     0.55768   0.90009   0.77070   0.00000  Uiso   1.00
H2370  H     0.51733   0.56385   0.90570   0.00000  Uiso   1.00
H2371  H     0.98310   0.61522   0.95868   0.00000  Uiso   1.00
H2372  H     0.98970   0.64394   0.90686   0.00000  Uiso   1.00
H2373  H     0.55752   0.68327   0.94128   0.00000  Uiso   1.00
H2374  H     0.54681   0.65507   0.98861   0.00000  Uiso   1.00
H2375  H     0.94235   0.60703   0.77280   0.00000  Uiso   1.00
H2376  H     0.94073   0.57989   0.71805   0.00000  Uiso   1.00
H2377  H     0.98151   0.56538   0.75712   0.00000  Uiso   1.00
H2378  H     0.51049   0.61509   0.70235   0.00000  Uiso   1.00
H2379  H     0.50917   0.64555   0.75489   0.00000  Uiso   1.00
H2380  H     0.55074   0.92339   0.71569   0.00000  Uiso   1.00
H2381  H     0.93871   0.68425   0.72524   0.00000  Uiso   1.00
H2382  H     0.94817   0.65554   0.67690   0.00000  Uiso   1.00
H2383  H     0.94724   0.92166   0.94686   0.00000  Uiso   1.00
H2384  H     0.94347   0.88900   0.89568   0.00000  Uiso   1.00
H2385  H     0.89700   0.89726   0.92984   0.00000  Uiso   1.00
H2386  H     0.92302   0.81803   0.94198   0.00000  Uiso   1.00
H2387  H     0.93203   0.85300   0.98986   0.00000  Uiso   1.00
H2388  H     0.50449   0.86583   0.97009   0.00000  Uiso   1.00
H2389  H     0.50055   0.83565   0.91999   0.00000  Uiso   1.00
H2390  H     0.72705   0.67871   0.73990   0.00000  Uiso   1.00
H2391  H     0.51397   0.93724   0.75938   0.00000  Uiso   1.00
H2392  H     0.74104   0.67577   0.68192   0.00000  Uiso   1.00
H2393  H     0.68665   0.68481   0.69809   0.00000  Uiso   1.00
H2394  H     0.69462   0.60320   0.67474   0.00000  Uiso   1.00
H2395  H     0.68463   0.60795   0.73240   0.00000  Uiso   1.00
H2396  H     0.74974   0.58307   0.75200   0.00000  Uiso   1.00
H2397  H     0.77743   0.60868   0.71207   0.00000  Uiso   1.00
H2398  H     0.70355   0.82139   0.92797   0.00000  Uiso   1.00
H2399  H     0.72642   0.82745   0.98255   0.00000  Uiso   1.00
H2400  H     0.67012   0.82588   0.97592   0.00000  Uiso   1.00
H2401  H     0.68182   0.90655   0.98485   0.00000  Uiso   1.00
H2402  H     0.98171   0.87962   0.71037   0.00000  Uiso   1.00
H2403  H     0.67921   0.89782   0.92683   0.00000  Uiso   1.00
H2404  H     0.74912   0.91642   0.91581   0.00000  Uiso   1.00
H2405  H     0.76748   0.88900   0.96065   0.00000  Uiso   1.00
H2406  H     0.79698   0.84029   0.76209   0.00000  Uiso   1.00
H2407  H     0.77052   0.82280   0.71160   0.00000  Uiso   1.00
H2408  H     0.82682   0.82334   0.71355   0.00000  Uiso   1.00
H2409  H     0.81298   0.89330   0.67681   0.00000  Uiso   1.00
H2410  H     0.82205   0.91173   0.73137   0.00000  Uiso   1.00
H2411  H     0.74778   0.91700   0.74882   0.00000  Uiso   1.00
H2412  H     0.73047   0.88888   0.70229   0.00000  Uiso   1.00
H2413  H     0.99288   0.85477   0.76309   0.00000  Uiso   1.00
H2414  H     0.79502   0.67566   0.95493   0.00000  Uiso   1.00
H2415  H     0.81114   0.65121   0.90211   0.00000  Uiso   1.00
H2416  H     0.76405   0.68585   0.90594   0.00000  Uiso   1.00
H2417  H     0.74708   0.60330   0.89934   0.00000  Uiso   1.00
H2418  H     0.72820   0.62718   0.94990   0.00000  Uiso   1.00
H2419  H     0.79974   0.59941   0.98332   0.00000  Uiso   1.00
H2420  H     0.80999   0.56702   0.93998   0.00000  Uiso   1.00
H2421  H     0.81437   0.72264   0.73320   0.00000  Uiso   1.00
H2422  H     0.59199   0.81300   0.96614   0.00000  Uiso   1.00
H2423  H     0.68157   0.77308   0.73198   0.00000  Uiso   1.00
H2424  H     0.56024   0.81725   0.72767   0.00000  Uiso   1.00
H2425  H     0.90102   0.70361   0.96384   0.00000  Uiso   1.00
H2426  H     0.68230   0.73008   0.93523   0.00000  Uiso   1.00
H2427  H     0.90046   0.80770   0.70280   0.00000  Uiso   1.00
H2428  H     0.84367   0.76251   0.94466   0.00000  Uiso   1.00
H2429  H     0.59699   0.69635   0.70080   0.00000  Uiso   1.00
H2430  H     0.62094   0.88922   0.68362   0.00000  Uiso   1.00
H2431  H     0.93926   0.51793   0.92437   0.00000  Uiso   1.00
H2432  H     0.86406   0.60469   0.68193   0.00000  Uiso   1.00
H2433  H     0.58892   0.51971   0.89326   0.00000  Uiso   1.00
H2434  H     0.72499   0.85146   0.84818   0.00000  Uiso   1.00
H2435  H     0.55075   0.84679   0.68227   0.00000  Uiso   1.00
H2436  H     0.57874   0.99484   0.75988   0.00000  Uiso   1.00
H2437  H     0.62789   0.61465   0.98413   0.00000  Uiso   1.00
H2438  H     0.94376   0.99033   0.76578   0.00000  Uiso   1.00
H2439  H     0.55789   0.60572   0.89499   0.00000  Uiso   1.00
H2440  H     0.55443   0.57913   0.94891   0.00000  Uiso   1.00
N2441  N     0.50000   0.75000   0.95240   0.00000  Uiso   1.00
N2442  N     0.50000   0.75000   0.71427   0.00000  Uiso   1.00
N2443  N     0.75000   0.50000   0.95240   0.00000  Uiso   1.00
N2444  N     0.75000   0.50000   0.71427   0.00000  Uiso   1.00
O2445  O     0.54581   0.70419   0.87154   0.00000  Uiso   1.00
O2446  O     0.70420   0.54581   0.79513   0.00000  Uiso   1.00
O2447  O     0.70420   0.54581   0.87154   0.00000  Uiso   1.00
O2448  O     0.79581   0.95419   0.79513   0.00000  Uiso   1.00
O2449  O     0.70420   0.95419   0.79513   0.00000  Uiso   1.00
O2450  O     0.79581   0.54581   0.87154   0.00000  Uiso   1.00
O2451  O     0.79581   0.54581   0.79513   0.00000  Uiso   1.00
O2452  O     0.70420   0.95419   0.87154   0.00000  Uiso   1.00
O2453  O     0.87760   0.73390   0.77561   0.00000  Uiso   1.00
O2454  O     0.82184   0.69300   0.74877   0.00000  Uiso   1.00
O2455  O     0.57164   0.88930   0.94259   0.00000  Uiso   1.00
O2456  O     0.95420   0.79581   0.79513   0.00000  Uiso   1.00
O2457  O     0.59937   0.81744   0.93396   0.00000  Uiso   1.00
O2458  O     0.62772   0.76258   0.78667   0.00000  Uiso   1.00
O2459  O     0.67315   0.80416   0.74510   0.00000  Uiso   1.00
O2460  O     0.90472   0.62247   0.95037   0.00000  Uiso   1.00
O2461  O     0.89846   0.69686   0.93093   0.00000  Uiso   1.00
O2462  O     0.62424   0.73925   0.88540   0.00000  Uiso   1.00
O2463  O     0.67523   0.69929   0.92054   0.00000  Uiso   1.00
O2464  O     0.90288   0.88881   0.72251   0.00000  Uiso   1.00
O2465  O     0.90188   0.81220   0.73600   0.00000  Uiso   1.00
O2466  O     0.86181   0.75049   0.86787   0.00000  Uiso   1.00
O2467  O     0.95420   0.79581   0.87154   0.00000  Uiso   1.00
O2468  O     0.84955   0.79321   0.93022   0.00000  Uiso   1.00
O2469  O     0.58460   0.61715   0.71878   0.00000  Uiso   1.00
O2470  O     0.60248   0.69152   0.73343   0.00000  Uiso   1.00
O2471  O     0.64850   0.94276   0.73714   0.00000  Uiso   1.00
O2472  O     0.62825   0.87246   0.71172   0.00000  Uiso   1.00
O2473  O     0.86801   0.51549   0.89765   0.00000  Uiso   1.00
O2474  O     0.93271   0.54759   0.90839   0.00000  Uiso   1.00
O2475  O     0.85500   0.55220   0.73995   0.00000  Uiso   1.00
O2476  O     0.86181   0.62283   0.71064   0.00000  Uiso   1.00
O2477  O     0.62503   0.95909   0.93123   0.00000  Uiso   1.00
O2478  O     0.54581   0.70419   0.79513   0.00000  Uiso   1.00
O2479  O     0.59491   0.99326   0.87195   0.00000  Uiso   1.00
O2480  O     0.77899   0.82493   0.89686   0.00000  Uiso   1.00
O2481  O     0.75363   0.86332   0.83802   0.00000  Uiso   1.00
O2482  O     0.63756   0.54174   0.73745   0.00000  Uiso   1.00
O2483  O     0.58285   0.52116   0.78194   0.00000  Uiso   1.00
O2484  O     0.65180   0.56065   0.93003   0.00000  Uiso   1.00
O2485  O     0.63142   0.63078   0.95496   0.00000  Uiso   1.00
O2486  O     0.87759   0.99143   0.80400   0.00000  Uiso   1.00
O2487  O     0.93506   0.95764   0.77324   0.00000  Uiso   1.00
O2488  O     0.95420   0.70419   0.79513   0.00000  Uiso   1.00
O2489  O     0.54581   0.79581   0.87154   0.00000  Uiso   1.00
O2490  O     0.54581   0.79581   0.79513   0.00000  Uiso   1.00
O2491  O     0.95420   0.70419   0.87154   0.00000  Uiso   1.00
O2492  O     0.79581   0.95419   0.87154   0.00000  Uiso   1.00
Zn2493 Zn    0.50000   0.75000   0.88437   0.00000  Uiso   1.00
Zn2494 Zn    0.50000   0.75000   0.78229   0.00000  Uiso   1.00
Zn2495 Zn    0.75000   0.50000   0.88437   0.00000  Uiso   1.00
Zn2496 Zn    0.75000   0.50000   0.78229   0.00000  Uiso   1.00
loop_
_geom_bond_atom_site_label_1
_geom_bond_atom_site_label_2
_geom_bond_distance
_geom_bond_site_symmetry_2
_ccdc_geom_bond_type
C1     O190    1.292   .     A
C1     O157    1.327   .     A
C1     C30     1.461   .     S
C2     C39     1.517   .     S
C2     C1043   1.431   1_455 S
C2     N153    1.381   .     S
C3     C42     1.519   .     S
C3     N362    1.385   .     A
C3     C1874   1.431   1_554 S
C4     C46     1.523   .     S
C4     N361    1.378   .     A
C4     C1120   1.443   .     S
C5     C49     1.534   .     S
C5     N156    1.381   .     A
C5     C1672   1.447   1_554 S
C6     C52     1.526   .     S
C6     C839    1.448   .     S
C6     N571    1.386   .     S
C7     C55     1.522   .     S
C7     C1670   1.448   1_554 S
C7     N572    1.382   .     S
C8     N155    1.394   .     A
C8     C59     1.532   .     S
C8     C837    1.447   .     S
C9     C62     1.495   .     S
C9     C20     1.388   .     A
C9     C28     1.402   .     A
C10    C27     1.421   .     A
C10    C63     1.482   .     S
C10    C21     1.393   .     A
C11    C18     1.389   .     A
C11    C64     1.495   .     S
C11    C27     1.402   .     A
C12    C29     1.448   .     S
C12    O168    1.294   .     A
C12    O179    1.320   .     A
C13    C19     1.394   .     A
C13    C65     1.498   .     S
C13    C28     1.424   .     A
C14    C30     1.401   .     A
C14    C66     1.498   .     S
C14    C25     1.394   .     A
C15    C68     1.495   .     S
C15    C29     1.406   .     A
C15    C26     1.377   .     A
C16    C29     1.413   .     A
C16    C22     1.407   .     A
C16    C69     1.479   .     S
C17    C30     1.420   .     A
C17    C24     1.392   .     A
C17    C70     1.491   .     S
C18    C32     1.414   .     A
C18    C71     1.500   .     S
C19    C31     1.396   .     A
C19    C72     1.500   .     S
C20    C73     1.500   .     S
C20    C31     1.416   .     A
C21    C32     1.389   .     A
C21    C74     1.485   .     S
C22    C35     1.416   .     A
C22    C75     1.496   .     S
C23    O203    1.290   .     A
C23    C28     1.458   .     S
C23    O200    1.329   .     A
C24    C76     1.486   .     S
C24    C33     1.395   .     A
C25    C77     1.504   .     S
C25    C33     1.421   .     A
C26    C79     1.491   .     S
C26    C35     1.405   .     A
C27    C34     1.458   .     S
C31    C78     1.450   .     S
C32    C67     1.449   .     S
C33    C56     1.454   .     S
C34    O201    1.293   .     A
C34    O202    1.325   .     A
C35    C45     1.426   .     S
C36    C37     1.533   .     S
C36    H136    1.096   .     S
C36    C80     1.521   .     S
C36    H147    1.101   .     S
C37    C38     1.523   .     S
C37    H322    1.105   1_455 S
C37    H333    1.097   1_455 S
C38    H103    1.108   .     S
C38    H92     1.110   .     S
C38    H81     1.106   .     S
C39    C40     1.533   .     S
C39    H85     1.099   .     S
C39    H86     1.103   .     S
C40    C41     1.521   .     S
C40    H291    1.104   1_455 S
C40    H292    1.099   1_455 S
C41    H152    1.111   .     S
C41    H151    1.106   .     S
C41    H82     1.110   .     S
C42    H93     1.098   .     S
C42    C43     1.533   .     S
C42    H94     1.102   .     S
C43    C44     1.519   .     S
C43    H298    1.102   .     S
C43    H299    1.100   .     S
C44    H87     1.103   .     S
C44    H88     1.110   .     S
C44    H89     1.110   .     S
C45    O160    1.305   .     A
C45    O204    1.297   .     A
C46    C47     1.524   .     S
C46    H308    1.098   .     S
C46    H309    1.096   .     S
C47    H98     1.102   .     S
C47    H99     1.096   .     S
C47    C48     1.529   .     S
C48    H95     1.111   .     S
C48    H97     1.111   .     S
C48    H96     1.109   .     S
C49    H108    1.080   .     S
C49    H109    1.100   .     S
C49    C50     1.535   .     S
C50    C51     1.528   .     S
C50    H107    1.104   .     S
C50    H106    1.103   .     S
C51    H102    1.111   .     S
C51    H105    1.110   .     S
C51    H104    1.109   .     S
C52    H116    1.083   .     S
C52    C53     1.539   .     S
C52    H117    1.097   .     S
C53    C54     1.532   .     S
C53    H113    1.105   .     S
C53    H115    1.098   .     S
C54    H110    1.109   .     S
C54    H112    1.107   .     S
C54    H111    1.107   .     S
C55    H123    1.084   .     S
C55    C57     1.540   .     S
C55    H124    1.101   .     S
C56    O159    1.290   .     A
C56    O158    1.327   .     A
C57    H122    1.106   .     S
C57    C58     1.531   .     S
C57    H121    1.105   .     S
C58    H118    1.109   .     S
C58    H119    1.109   .     S
C58    H120    1.104   .     S
C59    H131    1.093   .     S
C59    C60     1.541   .     S
C59    H132    1.096   .     S
C60    H130    1.101   .     S
C60    C61     1.529   .     S
C60    H129    1.094   .     S
C61    H126    1.111   .     S
C61    H127    1.108   .     S
C61    H128    1.110   .     S
C62    O165    1.219   .     D
C62    O166    1.400   .     S
C63    O169    1.398   .     S
C63    O167    1.220   .     D
C64    O171    1.400   .     S
C64    O170    1.220   .     D
C65    O172    1.219   .     D
C65    O173    1.397   .     S
C66    O175    1.399   .     S
C66    O174    1.221   .     D
C67    O161    1.286   .     A
C67    O164    1.328   .     A
C68    O176    1.222   .     D
C68    O177    1.398   .     S
C69    O180    1.399   .     S
C69    O178    1.218   .     D
C70    O182    1.397   .     S
C70    O181    1.219   .     D
C71    O183    1.221   .     D
C71    O184    1.398   .     S
C72    O186    1.399   .     S
C72    O185    1.221   .     D
C73    O187    1.223   .     D
C73    O188    1.395   .     S
C74    O189    1.222   .     D
C74    O191    1.395   .     S
C75    O193    1.398   .     S
C75    O192    1.220   .     D
C76    O195    1.396   .     S
C76    O194    1.222   .     D
C77    O196    1.221   .     D
C77    O197    1.398   .     S
C78    O162    1.324   .     A
C78    O163    1.290   .     A
C79    O198    1.216   .     D
C79    O199    1.398   .     S
C80    C1876   1.443   1_454 S
C80    N154    1.394   .     S
H83    C248    1.104   .     S
H84    C248    1.099   .     S
H90    C251    1.102   1_455 S
H91    C251    1.100   1_455 S
H100   C254    1.098   1_455 S
H101   C254    1.096   1_455 S
H114   C245    1.105   .     S
H125   C245    1.097   .     S
H133   O166    1.014   .     S
H134   O169    1.010   .     S
H135   O171    1.014   .     S
H137   O173    1.014   .     S
H138   O175    1.014   .     S
H139   O177    1.011   .     S
H140   O180    1.013   .     S
H141   O182    1.013   .     S
H142   O184    1.012   .     S
H143   O186    1.014   .     S
H144   O188    1.010   .     S
H145   O607    1.011   1_545 S
H146   O193    1.014   .     S
H148   O611    1.012   .     S
H149   O197    1.010   .     S
H150   O199    1.013   .     S
N153   C212    1.378   1_455 A
N153   Zn205   2.056   .     S
N154   C211    1.385   1_455 A
N154   Zn206   2.056   .     S
N155   Zn207   2.056   .     S
N155   C422    1.386   1_545 S
N156   Zn208   2.056   .     S
N156   C423    1.382   1_545 S
O157   Zn205   1.998   .     S
O158   Zn208   1.998   .     S
O159   Zn207   2.007   .     S
O160   Zn624   2.007   .     S
O161   Zn624   1.999   .     S
O162   Zn207   1.999   .     S
O163   Zn208   1.991   .     S
O164   Zn623   1.991   .     S
O168   Zn414   1.998   .     S
O179   Zn413   2.007   .     S
O190   Zn206   2.007   .     S
O191   H561    1.011   .     S
O195   H564    1.012   1_545 S
O200   Zn414   1.999   .     S
O201   Zn205   1.999   .     S
O202   Zn206   1.991   .     S
O203   Zn413   1.991   .     S
O204   Zn623   1.998   .     S
Zn205  O387    2.007   1_455 S
Zn205  O411    1.991   1_455 S
Zn206  O408    1.999   1_455 S
Zn206  O376    1.998   1_455 S
Zn207  O580    1.991   1_545 S
Zn207  O620    1.998   1_545 S
Zn208  O577    1.999   1_545 S
Zn208  O576    2.007   1_545 S
C209   O398    1.292   .     A
C209   O365    1.327   .     A
C209   C238    1.461   .     S
C210   C247    1.517   .     S
C210   C835    1.431   .     S
C210   N361    1.381   .     S
C211   C250    1.519   .     S
C211   N154    1.385   1_655 A
C211   C1666   1.431   1_654 S
C212   C254    1.523   .     S
C212   N153    1.378   1_655 A
C212   C912    1.443   1_655 S
C213   C257    1.534   .     S
C213   N364    1.381   .     A
C213   C1880   1.447   1_554 S
C214   C260    1.526   .     S
C214   C1047   1.448   .     S
C214   N779    1.386   .     S
C215   C263    1.522   .     S
C215   C1878   1.448   1_554 S
C215   N780    1.382   .     S
C216   N363    1.394   .     A
C216   C267    1.532   .     S
C216   C1045   1.447   .     S
C217   C270    1.495   .     S
C217   C228    1.388   .     A
C217   C236    1.402   .     A
C218   C235    1.421   .     A
C218   C271    1.482   .     S
C218   C229    1.393   .     A
C219   C226    1.389   .     A
C219   C272    1.495   .     S
C219   C235    1.402   .     A
C220   C237    1.448   .     S
C220   O376    1.294   .     A
C220   O387    1.320   .     A
C221   C227    1.394   .     A
C221   C273    1.498   .     S
C221   C236    1.424   .     A
C222   C238    1.401   .     A
C222   C274    1.498   .     S
C222   C233    1.394   .     A
C223   C276    1.495   .     S
C223   C237    1.406   .     A
C223   C234    1.377   .     A
C224   C237    1.413   .     A
C224   C230    1.407   .     A
C224   C277    1.479   .     S
C225   C238    1.420   .     A
C225   C232    1.392   .     A
C225   C278    1.491   .     S
C226   C240    1.414   .     A
C226   C279    1.500   .     S
C227   C239    1.396   .     A
C227   C280    1.500   .     S
C228   C281    1.500   .     S
C228   C239    1.416   .     A
C229   C240    1.389   .     A
C229   C282    1.485   .     S
C230   C243    1.416   .     A
C230   C283    1.496   .     S
C231   O411    1.290   .     A
C231   C236    1.458   .     S
C231   O408    1.329   .     A
C232   C284    1.486   .     S
C232   C241    1.395   .     A
C233   C285    1.504   .     S
C233   C241    1.421   .     A
C234   C287    1.491   .     S
C234   C243    1.405   .     A
C235   C242    1.458   .     S
C239   C286    1.450   .     S
C240   C275    1.449   .     S
C241   C264    1.454   .     S
C242   O409    1.293   .     A
C242   O410    1.325   .     A
C243   C253    1.426   .     S
C244   C245    1.533   .     S
C244   H344    1.096   .     S
C244   C288    1.521   .     S
C244   H355    1.101   .     S
C245   C246    1.523   .     S
C246   H311    1.108   .     S
C246   H300    1.110   .     S
C246   H289    1.106   .     S
C247   C248    1.533   .     S
C247   H293    1.099   .     S
C247   H294    1.103   .     S
C248   C249    1.521   .     S
C249   H360    1.111   .     S
C249   H359    1.106   .     S
C249   H290    1.110   .     S
C250   H301    1.098   .     S
C250   C251    1.533   .     S
C250   H302    1.102   .     S
C251   C252    1.519   .     S
C251   H90     1.102   1_655 S
C251   H91     1.100   1_655 S
C252   H295    1.103   .     S
C252   H296    1.110   .     S
C252   H297    1.110   .     S
C253   O368    1.305   .     A
C253   O412    1.297   .     A
C254   C255    1.524   .     S
C254   H100    1.098   1_655 S
C254   H101    1.096   1_655 S
C255   H306    1.102   .     S
C255   H307    1.096   .     S
C255   C256    1.529   .     S
C256   H303    1.111   .     S
C256   H305    1.111   .     S
C256   H304    1.109   .     S
C257   H316    1.080   .     S
C257   H317    1.100   .     S
C257   C258    1.535   .     S
C258   C259    1.528   .     S
C258   H315    1.104   .     S
C258   H314    1.103   .     S
C259   H310    1.111   .     S
C259   H313    1.110   .     S
C259   H312    1.109   .     S
C260   H324    1.083   .     S
C260   C261    1.539   .     S
C260   H325    1.097   .     S
C261   C262    1.532   .     S
C261   H321    1.105   .     S
C261   H323    1.098   .     S
C262   H318    1.109   .     S
C262   H320    1.107   .     S
C262   H319    1.107   .     S
C263   H331    1.084   .     S
C263   C265    1.540   .     S
C263   H332    1.101   .     S
C264   O367    1.290   .     A
C264   O366    1.327   .     A
C265   H330    1.106   .     S
C265   C266    1.531   .     S
C265   H329    1.105   .     S
C266   H326    1.109   .     S
C266   H327    1.109   .     S
C266   H328    1.104   .     S
C267   H339    1.093   .     S
C267   C268    1.541   .     S
C267   H340    1.096   .     S
C268   H338    1.101   .     S
C268   C269    1.529   .     S
C268   H337    1.094   .     S
C269   H334    1.111   .     S
C269   H335    1.108   .     S
C269   H336    1.110   .     S
C270   O373    1.219   .     D
C270   O374    1.400   .     S
C271   O377    1.398   .     S
C271   O375    1.220   .     D
C272   O379    1.400   .     S
C272   O378    1.220   .     D
C273   O380    1.219   .     D
C273   O381    1.397   .     S
C274   O383    1.399   .     S
C274   O382    1.221   .     D
C275   O369    1.286   .     A
C275   O372    1.328   .     A
C276   O384    1.222   .     D
C276   O385    1.398   .     S
C277   O388    1.399   .     S
C277   O386    1.218   .     D
C278   O390    1.397   .     S
C278   O389    1.219   .     D
C279   O391    1.221   .     D
C279   O392    1.398   .     S
C280   O394    1.399   .     S
C280   O393    1.221   .     D
C281   O395    1.223   .     D
C281   O396    1.395   .     S
C282   O397    1.222   .     D
C282   O399    1.395   .     S
C283   O401    1.398   .     S
C283   O400    1.220   .     D
C284   O403    1.396   .     S
C284   O402    1.222   .     D
C285   O404    1.221   .     D
C285   O405    1.398   .     S
C286   O370    1.324   .     A
C286   O371    1.290   .     A
C287   O406    1.216   .     D
C287   O407    1.398   .     S
C288   C1668   1.443   1_554 S
C288   N362    1.394   .     S
H291   C40     1.104   1_655 S
H292   C40     1.099   1_655 S
H322   C37     1.105   1_655 S
H333   C37     1.097   1_655 S
H341   O374    1.014   .     S
H342   O377    1.010   .     S
H343   O379    1.014   .     S
H345   O381    1.014   .     S
H346   O383    1.014   .     S
H347   O385    1.011   .     S
H348   O388    1.013   .     S
H349   O390    1.013   .     S
H350   O392    1.012   .     S
H351   O394    1.014   .     S
H352   O396    1.010   .     S
H353   O815    1.011   1_545 S
H354   O401    1.014   .     S
H356   O819    1.012   .     S
H357   O405    1.010   .     S
H358   O407    1.013   .     S
N361   Zn413   2.056   .     S
N362   Zn414   2.056   .     S
N363   Zn415   2.056   .     S
N363   C630    1.386   1_545 S
N364   Zn416   2.056   .     S
N364   C631    1.382   1_545 S
O365   Zn413   1.998   .     S
O366   Zn416   1.998   .     S
O367   Zn415   2.007   .     S
O368   Zn832   2.007   .     S
O369   Zn832   1.999   .     S
O370   Zn415   1.999   .     S
O371   Zn416   1.991   .     S
O372   Zn831   1.991   .     S
O376   Zn206   1.998   1_655 S
O387   Zn205   2.007   1_655 S
O398   Zn414   2.007   .     S
O399   H769    1.011   .     S
O403   H772    1.012   1_545 S
O408   Zn206   1.999   1_655 S
O409   Zn413   1.999   .     S
O410   Zn414   1.991   .     S
O411   Zn205   1.991   1_655 S
O412   Zn831   1.998   .     S
Zn415  O788    1.991   1_545 S
Zn415  O828    1.998   1_545 S
Zn416  O785    1.999   1_545 S
Zn416  O784    2.007   1_545 S
C417   O606    1.292   .     A
C417   O573    1.327   .     A
C417   C446    1.461   .     S
C418   C455    1.517   .     S
C418   C1459   1.431   1_455 S
C418   N569    1.381   .     S
C419   C458    1.519   .     S
C419   N778    1.385   .     A
C419   C2290   1.431   1_554 S
C420   C462    1.523   .     S
C420   N777    1.378   .     A
C420   C1536   1.443   .     S
C421   C465    1.534   .     S
C421   N572    1.381   .     A
C421   C2088   1.447   1_554 S
C422   C468    1.526   .     S
C422   C1255   1.448   .     S
C422   N155    1.386   1_565 S
C423   C471    1.522   .     S
C423   C2086   1.448   1_554 S
C423   N156    1.382   1_565 S
C424   N571    1.394   .     A
C424   C475    1.532   .     S
C424   C1253   1.447   .     S
C425   C478    1.495   .     S
C425   C436    1.388   .     A
C425   C444    1.402   .     A
C426   C443    1.421   .     A
C426   C479    1.482   .     S
C426   C437    1.393   .     A
C427   C434    1.389   .     A
C427   C480    1.495   .     S
C427   C443    1.402   .     A
C428   C445    1.448   .     S
C428   O584    1.294   .     A
C428   O595    1.320   .     A
C429   C435    1.394   .     A
C429   C481    1.498   .     S
C429   C444    1.424   .     A
C430   C446    1.401   .     A
C430   C482    1.498   .     S
C430   C441    1.394   .     A
C431   C484    1.495   .     S
C431   C445    1.406   .     A
C431   C442    1.377   .     A
C432   C445    1.413   .     A
C432   C438    1.407   .     A
C432   C485    1.479   .     S
C433   C446    1.420   .     A
C433   C440    1.392   .     A
C433   C486    1.491   .     S
C434   C448    1.414   .     A
C434   C487    1.500   .     S
C435   C447    1.396   .     A
C435   C488    1.500   .     S
C436   C489    1.500   .     S
C436   C447    1.416   .     A
C437   C448    1.389   .     A
C437   C490    1.485   .     S
C438   C451    1.416   .     A
C438   C491    1.496   .     S
C439   O619    1.290   .     A
C439   C444    1.458   .     S
C439   O616    1.329   .     A
C440   C492    1.486   .     S
C440   C449    1.395   .     A
C441   C493    1.504   .     S
C441   C449    1.421   .     A
C442   C495    1.491   .     S
C442   C451    1.405   .     A
C443   C450    1.458   .     S
C447   C494    1.450   .     S
C448   C483    1.449   .     S
C449   C472    1.454   .     S
C450   O617    1.293   .     A
C450   O618    1.325   .     A
C451   C461    1.426   .     S
C452   C453    1.533   .     S
C452   H552    1.096   .     S
C452   C496    1.521   .     S
C452   H563    1.101   .     S
C453   C454    1.523   .     S
C453   H738    1.105   1_455 S
C453   H749    1.097   1_455 S
C454   H519    1.108   .     S
C454   H508    1.110   .     S
C454   H497    1.106   .     S
C455   C456    1.533   .     S
C455   H501    1.099   .     S
C455   H502    1.103   .     S
C456   C457    1.521   .     S
C456   H707    1.104   1_455 S
C456   H708    1.099   1_455 S
C457   H568    1.111   .     S
C457   H567    1.106   .     S
C457   H498    1.110   .     S
C458   H509    1.098   .     S
C458   C459    1.533   .     S
C458   H510    1.102   .     S
C459   C460    1.519   .     S
C459   H714    1.102   .     S
C459   H715    1.100   .     S
C460   H503    1.103   .     S
C460   H504    1.110   .     S
C460   H505    1.110   .     S
C461   O576    1.305   .     A
C461   O620    1.297   .     A
C462   C463    1.524   .     S
C462   H724    1.098   .     S
C462   H725    1.096   .     S
C463   H514    1.102   .     S
C463   H515    1.096   .     S
C463   C464    1.529   .     S
C464   H511    1.111   .     S
C464   H513    1.111   .     S
C464   H512    1.109   .     S
C465   H524    1.080   .     S
C465   H525    1.100   .     S
C465   C466    1.535   .     S
C466   C467    1.528   .     S
C466   H523    1.104   .     S
C466   H522    1.103   .     S
C467   H518    1.111   .     S
C467   H521    1.110   .     S
C467   H520    1.109   .     S
C468   H532    1.083   .     S
C468   C469    1.539   .     S
C468   H533    1.097   .     S
C469   C470    1.532   .     S
C469   H529    1.105   .     S
C469   H531    1.098   .     S
C470   H526    1.109   .     S
C470   H528    1.107   .     S
C470   H527    1.107   .     S
C471   H539    1.084   .     S
C471   C473    1.540   .     S
C471   H540    1.101   .     S
C472   O575    1.290   .     A
C472   O574    1.327   .     A
C473   H538    1.106   .     S
C473   C474    1.531   .     S
C473   H537    1.105   .     S
C474   H534    1.109   .     S
C474   H535    1.109   .     S
C474   H536    1.104   .     S
C475   H547    1.093   .     S
C475   C476    1.541   .     S
C475   H548    1.096   .     S
C476   H546    1.101   .     S
C476   C477    1.529   .     S
C476   H545    1.094   .     S
C477   H542    1.111   .     S
C477   H543    1.108   .     S
C477   H544    1.110   .     S
C478   O581    1.219   .     D
C478   O582    1.400   .     S
C479   O585    1.398   .     S
C479   O583    1.220   .     D
C480   O587    1.400   .     S
C480   O586    1.220   .     D
C481   O588    1.219   .     D
C481   O589    1.397   .     S
C482   O591    1.399   .     S
C482   O590    1.221   .     D
C483   O577    1.286   .     A
C483   O580    1.328   .     A
C484   O592    1.222   .     D
C484   O593    1.398   .     S
C485   O596    1.399   .     S
C485   O594    1.218   .     D
C486   O598    1.397   .     S
C486   O597    1.219   .     D
C487   O599    1.221   .     D
C487   O600    1.398   .     S
C488   O602    1.399   .     S
C488   O601    1.221   .     D
C489   O603    1.223   .     D
C489   O604    1.395   .     S
C490   O605    1.222   .     D
C490   O607    1.395   .     S
C491   O609    1.398   .     S
C491   O608    1.220   .     D
C492   O611    1.396   .     S
C492   O610    1.222   .     D
C493   O612    1.221   .     D
C493   O613    1.398   .     S
C494   O578    1.324   .     A
C494   O579    1.290   .     A
C495   O614    1.216   .     D
C495   O615    1.398   .     S
C496   C2292   1.443   1_454 S
C496   N570    1.394   .     S
H499   C664    1.104   .     S
H500   C664    1.099   .     S
H506   C667    1.102   1_455 S
H507   C667    1.100   1_455 S
H516   C670    1.098   1_455 S
H517   C670    1.096   1_455 S
H530   C661    1.105   .     S
H541   C661    1.097   .     S
H549   O582    1.014   .     S
H550   O585    1.010   .     S
H551   O587    1.014   .     S
H553   O589    1.014   .     S
H554   O591    1.014   .     S
H555   O593    1.011   .     S
H556   O596    1.013   .     S
H557   O598    1.013   .     S
H558   O600    1.012   .     S
H559   O602    1.014   .     S
H560   O604    1.010   .     S
H562   O609    1.014   .     S
H564   O195    1.012   1_565 S
H565   O613    1.010   .     S
H566   O615    1.013   .     S
N569   C628    1.378   1_455 A
N569   Zn621   2.056   .     S
N570   C627    1.385   1_455 A
N570   Zn622   2.056   .     S
N571   Zn623   2.056   .     S
N572   Zn624   2.056   .     S
O573   Zn621   1.998   .     S
O574   Zn624   1.998   .     S
O575   Zn623   2.007   .     S
O576   Zn208   2.007   1_565 S
O577   Zn208   1.999   1_565 S
O578   Zn623   1.999   .     S
O579   Zn624   1.991   .     S
O580   Zn207   1.991   1_565 S
O584   Zn830   1.998   .     S
O595   Zn829   2.007   .     S
O606   Zn622   2.007   .     S
O607   H145    1.011   1_565 S
O616   Zn830   1.999   .     S
O617   Zn621   1.999   .     S
O618   Zn622   1.991   .     S
O619   Zn829   1.991   .     S
O620   Zn207   1.998   1_565 S
Zn621  O803    2.007   1_455 S
Zn621  O827    1.991   1_455 S
Zn622  O824    1.999   1_455 S
Zn622  O792    1.998   1_455 S
C625   O814    1.292   .     A
C625   O781    1.327   .     A
C625   C654    1.461   .     S
C626   C663    1.517   .     S
C626   C1251   1.431   .     S
C626   N777    1.381   .     S
C627   C666    1.519   .     S
C627   N570    1.385   1_655 A
C627   C2082   1.431   1_654 S
C628   C670    1.523   .     S
C628   N569    1.378   1_655 A
C628   C1328   1.443   1_655 S
C629   C673    1.534   .     S
C629   N780    1.381   .     A
C629   C2296   1.447   1_554 S
C630   C676    1.526   .     S
C630   C1463   1.448   .     S
C630   N363    1.386   1_565 S
C631   C679    1.522   .     S
C631   C2294   1.448   1_554 S
C631   N364    1.382   1_565 S
C632   N779    1.394   .     A
C632   C683    1.532   .     S
C632   C1461   1.447   .     S
C633   C686    1.495   .     S
C633   C644    1.388   .     A
C633   C652    1.402   .     A
C634   C651    1.421   .     A
C634   C687    1.482   .     S
C634   C645    1.393   .     A
C635   C642    1.389   .     A
C635   C688    1.495   .     S
C635   C651    1.402   .     A
C636   C653    1.448   .     S
C636   O792    1.294   .     A
C636   O803    1.320   .     A
C637   C643    1.394   .     A
C637   C689    1.498   .     S
C637   C652    1.424   .     A
C638   C654    1.401   .     A
C638   C690    1.498   .     S
C638   C649    1.394   .     A
C639   C692    1.495   .     S
C639   C653    1.406   .     A
C639   C650    1.377   .     A
C640   C653    1.413   .     A
C640   C646    1.407   .     A
C640   C693    1.479   .     S
C641   C654    1.420   .     A
C641   C648    1.392   .     A
C641   C694    1.491   .     S
C642   C656    1.414   .     A
C642   C695    1.500   .     S
C643   C655    1.396   .     A
C643   C696    1.500   .     S
C644   C697    1.500   .     S
C644   C655    1.416   .     A
C645   C656    1.389   .     A
C645   C698    1.485   .     S
C646   C659    1.416   .     A
C646   C699    1.496   .     S
C647   O827    1.290   .     A
C647   C652    1.458   .     S
C647   O824    1.329   .     A
C648   C700    1.486   .     S
C648   C657    1.395   .     A
C649   C701    1.504   .     S
C649   C657    1.421   .     A
C650   C703    1.491   .     S
C650   C659    1.405   .     A
C651   C658    1.458   .     S
C655   C702    1.450   .     S
C656   C691    1.449   .     S
C657   C680    1.454   .     S
C658   O825    1.293   .     A
C658   O826    1.325   .     A
C659   C669    1.426   .     S
C660   C661    1.533   .     S
C660   H760    1.096   .     S
C660   C704    1.521   .     S
C660   H771    1.101   .     S
C661   C662    1.523   .     S
C662   H727    1.108   .     S
C662   H716    1.110   .     S
C662   H705    1.106   .     S
C663   C664    1.533   .     S
C663   H709    1.099   .     S
C663   H710    1.103   .     S
C664   C665    1.521   .     S
C665   H776    1.111   .     S
C665   H775    1.106   .     S
C665   H706    1.110   .     S
C666   H717    1.098   .     S
C666   C667    1.533   .     S
C666   H718    1.102   .     S
C667   C668    1.519   .     S
C667   H506    1.102   1_655 S
C667   H507    1.100   1_655 S
C668   H711    1.103   .     S
C668   H712    1.110   .     S
C668   H713    1.110   .     S
C669   O784    1.305   .     A
C669   O828    1.297   .     A
C670   C671    1.524   .     S
C670   H516    1.098   1_655 S
C670   H517    1.096   1_655 S
C671   H722    1.102   .     S
C671   H723    1.096   .     S
C671   C672    1.529   .     S
C672   H719    1.111   .     S
C672   H721    1.111   .     S
C672   H720    1.109   .     S
C673   H732    1.080   .     S
C673   H733    1.100   .     S
C673   C674    1.535   .     S
C674   C675    1.528   .     S
C674   H731    1.104   .     S
C674   H730    1.103   .     S
C675   H726    1.111   .     S
C675   H729    1.110   .     S
C675   H728    1.109   .     S
C676   H740    1.083   .     S
C676   C677    1.539   .     S
C676   H741    1.097   .     S
C677   C678    1.532   .     S
C677   H737    1.105   .     S
C677   H739    1.098   .     S
C678   H734    1.109   .     S
C678   H736    1.107   .     S
C678   H735    1.107   .     S
C679   H747    1.084   .     S
C679   C681    1.540   .     S
C679   H748    1.101   .     S
C680   O783    1.290   .     A
C680   O782    1.327   .     A
C681   H746    1.106   .     S
C681   C682    1.531   .     S
C681   H745    1.105   .     S
C682   H742    1.109   .     S
C682   H743    1.109   .     S
C682   H744    1.104   .     S
C683   H755    1.093   .     S
C683   C684    1.541   .     S
C683   H756    1.096   .     S
C684   H754    1.101   .     S
C684   C685    1.529   .     S
C684   H753    1.094   .     S
C685   H750    1.111   .     S
C685   H751    1.108   .     S
C685   H752    1.110   .     S
C686   O789    1.219   .     D
C686   O790    1.400   .     S
C687   O793    1.398   .     S
C687   O791    1.220   .     D
C688   O795    1.400   .     S
C688   O794    1.220   .     D
C689   O796    1.219   .     D
C689   O797    1.397   .     S
C690   O799    1.399   .     S
C690   O798    1.221   .     D
C691   O785    1.286   .     A
C691   O788    1.328   .     A
C692   O800    1.222   .     D
C692   O801    1.398   .     S
C693   O804    1.399   .     S
C693   O802    1.218   .     D
C694   O806    1.397   .     S
C694   O805    1.219   .     D
C695   O807    1.221   .     D
C695   O808    1.398   .     S
C696   O810    1.399   .     S
C696   O809    1.221   .     D
C697   O811    1.223   .     D
C697   O812    1.395   .     S
C698   O813    1.222   .     D
C698   O815    1.395   .     S
C699   O817    1.398   .     S
C699   O816    1.220   .     D
C700   O819    1.396   .     S
C700   O818    1.222   .     D
C701   O820    1.221   .     D
C701   O821    1.398   .     S
C702   O786    1.324   .     A
C702   O787    1.290   .     A
C703   O822    1.216   .     D
C703   O823    1.398   .     S
C704   C2084   1.443   1_554 S
C704   N778    1.394   .     S
H707   C456    1.104   1_655 S
H708   C456    1.099   1_655 S
H738   C453    1.105   1_655 S
H749   C453    1.097   1_655 S
H757   O790    1.014   .     S
H758   O793    1.010   .     S
H759   O795    1.014   .     S
H761   O797    1.014   .     S
H762   O799    1.014   .     S
H763   O801    1.011   .     S
H764   O804    1.013   .     S
H765   O806    1.013   .     S
H766   O808    1.012   .     S
H767   O810    1.014   .     S
H768   O812    1.010   .     S
H770   O817    1.014   .     S
H772   O403    1.012   1_565 S
H773   O821    1.010   .     S
H774   O823    1.013   .     S
N777   Zn829   2.056   .     S
N778   Zn830   2.056   .     S
N779   Zn831   2.056   .     S
N780   Zn832   2.056   .     S
O781   Zn829   1.998   .     S
O782   Zn832   1.998   .     S
O783   Zn831   2.007   .     S
O784   Zn416   2.007   1_565 S
O785   Zn416   1.999   1_565 S
O786   Zn831   1.999   .     S
O787   Zn832   1.991   .     S
O788   Zn415   1.991   1_565 S
O792   Zn622   1.998   1_655 S
O803   Zn621   2.007   1_655 S
O814   Zn830   2.007   .     S
O815   H353    1.011   1_565 S
O824   Zn622   1.999   1_655 S
O825   Zn829   1.999   .     S
O826   Zn830   1.991   .     S
O827   Zn621   1.991   1_655 S
O828   Zn415   1.998   1_565 S
C833   O1022   1.292   .     A
C833   O989    1.327   .     A
C833   C862    1.461   .     S
C834   C871    1.517   .     S
C834   C1875   1.431   1_455 S
C834   N985    1.381   .     S
C835   C874    1.519   .     S
C835   N1194   1.385   .     A
C836   C878    1.523   .     S
C836   N1193   1.378   .     A
C836   C1952   1.443   .     S
C837   C881    1.534   .     S
C837   N988    1.381   .     A
C838   C884    1.526   .     S
C838   C1671   1.448   .     S
C838   N1403   1.386   .     S
C839   C887    1.522   .     S
C839   N1404   1.382   .     S
C840   N987    1.394   .     A
C840   C891    1.532   .     S
C840   C1669   1.447   .     S
C841   C894    1.495   .     S
C841   C852    1.388   .     A
C841   C860    1.402   .     A
C842   C859    1.421   .     A
C842   C895    1.482   .     S
C842   C853    1.393   .     A
C843   C850    1.389   .     A
C843   C896    1.495   .     S
C843   C859    1.402   .     A
C844   C861    1.448   .     S
C844   O1000   1.294   .     A
C844   O1011   1.320   .     A
C845   C851    1.394   .     A
C845   C897    1.498   .     S
C845   C860    1.424   .     A
C846   C862    1.401   .     A
C846   C898    1.498   .     S
C846   C857    1.394   .     A
C847   C900    1.495   .     S
C847   C861    1.406   .     A
C847   C858    1.377   .     A
C848   C861    1.413   .     A
C848   C854    1.407   .     A
C848   C901    1.479   .     S
C849   C862    1.420   .     A
C849   C856    1.392   .     A
C849   C902    1.491   .     S
C850   C864    1.414   .     A
C850   C903    1.500   .     S
C851   C863    1.396   .     A
C851   C904    1.500   .     S
C852   C905    1.500   .     S
C852   C863    1.416   .     A
C853   C864    1.389   .     A
C853   C906    1.485   .     S
C854   C867    1.416   .     A
C854   C907    1.496   .     S
C855   O1035   1.290   .     A
C855   C860    1.458   .     S
C855   O1032   1.329   .     A
C856   C908    1.486   .     S
C856   C865    1.395   .     A
C857   C909    1.504   .     S
C857   C865    1.421   .     A
C858   C911    1.491   .     S
C858   C867    1.405   .     A
C859   C866    1.458   .     S
C863   C910    1.450   .     S
C864   C899    1.449   .     S
C865   C888    1.454   .     S
C866   O1033   1.293   .     A
C866   O1034   1.325   .     A
C867   C877    1.426   .     S
C868   C869    1.533   .     S
C868   H968    1.096   .     S
C868   C912    1.521   .     S
C868   H979    1.101   .     S
C869   C870    1.523   .     S
C869   H1154   1.105   1_455 S
C869   H1165   1.097   1_455 S
C870   H935    1.108   .     S
C870   H924    1.110   .     S
C870   H913    1.106   .     S
C871   C872    1.533   .     S
C871   H917    1.099   .     S
C871   H918    1.103   .     S
C872   C873    1.521   .     S
C872   H1123   1.104   1_455 S
C872   H1124   1.099   1_455 S
C873   H984    1.111   .     S
C873   H983    1.106   .     S
C873   H914    1.110   .     S
C874   H925    1.098   .     S
C874   C875    1.533   .     S
C874   H926    1.102   .     S
C875   C876    1.519   .     S
C875   H1130   1.102   .     S
C875   H1131   1.100   .     S
C876   H919    1.103   .     S
C876   H920    1.110   .     S
C876   H921    1.110   .     S
C877   O992    1.305   .     A
C877   O1036   1.297   .     A
C878   C879    1.524   .     S
C878   H1140   1.098   .     S
C878   H1141   1.096   .     S
C879   H930    1.102   .     S
C879   H931    1.096   .     S
C879   C880    1.529   .     S
C880   H927    1.111   .     S
C880   H929    1.111   .     S
C880   H928    1.109   .     S
C881   H940    1.080   .     S
C881   H941    1.100   .     S
C881   C882    1.535   .     S
C882   C883    1.528   .     S
C882   H939    1.104   .     S
C882   H938    1.103   .     S
C883   H934    1.111   .     S
C883   H937    1.110   .     S
C883   H936    1.109   .     S
C884   H948    1.083   .     S
C884   C885    1.539   .     S
C884   H949    1.097   .     S
C885   C886    1.532   .     S
C885   H945    1.105   .     S
C885   H947    1.098   .     S
C886   H942    1.109   .     S
C886   H944    1.107   .     S
C886   H943    1.107   .     S
C887   H955    1.084   .     S
C887   C889    1.540   .     S
C887   H956    1.101   .     S
C888   O991    1.290   .     A
C888   O990    1.327   .     A
C889   H954    1.106   .     S
C889   C890    1.531   .     S
C889   H953    1.105   .     S
C890   H950    1.109   .     S
C890   H951    1.109   .     S
C890   H952    1.104   .     S
C891   H963    1.093   .     S
C891   C892    1.541   .     S
C891   H964    1.096   .     S
C892   H962    1.101   .     S
C892   C893    1.529   .     S
C892   H961    1.094   .     S
C893   H958    1.111   .     S
C893   H959    1.108   .     S
C893   H960    1.110   .     S
C894   O997    1.219   .     D
C894   O998    1.400   .     S
C895   O1001   1.398   .     S
C895   O999    1.220   .     D
C896   O1003   1.400   .     S
C896   O1002   1.220   .     D
C897   O1004   1.219   .     D
C897   O1005   1.397   .     S
C898   O1007   1.399   .     S
C898   O1006   1.221   .     D
C899   O993    1.286   .     A
C899   O996    1.328   .     A
C900   O1008   1.222   .     D
C900   O1009   1.398   .     S
C901   O1012   1.399   .     S
C901   O1010   1.218   .     D
C902   O1014   1.397   .     S
C902   O1013   1.219   .     D
C903   O1015   1.221   .     D
C903   O1016   1.398   .     S
C904   O1018   1.399   .     S
C904   O1017   1.221   .     D
C905   O1019   1.223   .     D
C905   O1020   1.395   .     S
C906   O1021   1.222   .     D
C906   O1023   1.395   .     S
C907   O1025   1.398   .     S
C907   O1024   1.220   .     D
C908   O1027   1.396   .     S
C908   O1026   1.222   .     D
C909   O1028   1.221   .     D
C909   O1029   1.398   .     S
C910   O994    1.324   .     A
C910   O995    1.290   .     A
C911   O1030   1.216   .     D
C911   O1031   1.398   .     S
C912   C212    1.443   1_455 S
C912   N986    1.394   .     S
H915   C1080   1.104   .     S
H916   C1080   1.099   .     S
H922   C1083   1.102   1_455 S
H923   C1083   1.100   1_455 S
H932   C1086   1.098   1_455 S
H933   C1086   1.096   1_455 S
H946   C1077   1.105   .     S
H957   C1077   1.097   .     S
H965   O998    1.014   .     S
H966   O1001   1.010   .     S
H967   O1003   1.014   .     S
H969   O1005   1.014   .     S
H970   O1007   1.014   .     S
H971   O1009   1.011   .     S
H972   O1012   1.013   .     S
H973   O1014   1.013   .     S
H974   O1016   1.012   .     S
H975   O1018   1.014   .     S
H976   O1020   1.010   .     S
H977   O1439   1.011   1_545 S
H978   O1025   1.014   .     S
H980   O1443   1.012   .     S
H981   O1029   1.010   .     S
H982   O1031   1.013   .     S
N985   C1044   1.378   1_455 A
N985   Zn1037  2.056   .     S
N986   C1043   1.385   1_455 A
N986   Zn1038  2.056   .     S
N987   Zn1039  2.056   .     S
N987   C1254   1.386   1_545 S
N988   Zn1040  2.056   .     S
N988   C1255   1.382   1_545 S
O989   Zn1037  1.998   .     S
O990   Zn1040  1.998   .     S
O991   Zn1039  2.007   .     S
O992   Zn1456  2.007   .     S
O993   Zn1456  1.999   .     S
O994   Zn1039  1.999   .     S
O995   Zn1040  1.991   .     S
O996   Zn1455  1.991   .     S
O1000  Zn1246  1.998   .     S
O1011  Zn1245  2.007   .     S
O1022  Zn1038  2.007   .     S
O1023  H1393   1.011   .     S
O1027  H1396   1.012   1_545 S
O1032  Zn1246  1.999   .     S
O1033  Zn1037  1.999   .     S
O1034  Zn1038  1.991   .     S
O1035  Zn1245  1.991   .     S
O1036  Zn1455  1.998   .     S
Zn1037 O1219   2.007   1_455 S
Zn1037 O1243   1.991   1_455 S
Zn1038 O1240   1.999   1_455 S
Zn1038 O1208   1.998   1_455 S
Zn1039 O1412   1.991   1_545 S
Zn1039 O1452   1.998   1_545 S
Zn1040 O1409   1.999   1_545 S
Zn1040 O1408   2.007   1_545 S
C1041  O1230   1.292   .     A
C1041  O1197   1.327   .     A
C1041  C1070   1.461   .     S
C1042  C1079   1.517   .     S
C1042  C1667   1.431   .     S
C1042  N1193   1.381   .     S
C1043  C1082   1.519   .     S
C1043  N986    1.385   1_655 A
C1043  C2      1.431   1_655 S
C1044  C1086   1.523   .     S
C1044  N985    1.378   1_655 A
C1044  C1744   1.443   1_655 S
C1045  C1089   1.534   .     S
C1045  N1196   1.381   .     A
C1046  C1092   1.526   .     S
C1046  C1879   1.448   .     S
C1046  N1611   1.386   .     S
C1047  C1095   1.522   .     S
C1047  N1612   1.382   .     S
C1048  N1195   1.394   .     A
C1048  C1099   1.532   .     S
C1048  C1877   1.447   .     S
C1049  C1102   1.495   .     S
C1049  C1060   1.388   .     A
C1049  C1068   1.402   .     A
C1050  C1067   1.421   .     A
C1050  C1103   1.482   .     S
C1050  C1061   1.393   .     A
C1051  C1058   1.389   .     A
C1051  C1104   1.495   .     S
C1051  C1067   1.402   .     A
C1052  C1069   1.448   .     S
C1052  O1208   1.294   .     A
C1052  O1219   1.320   .     A
C1053  C1059   1.394   .     A
C1053  C1105   1.498   .     S
C1053  C1068   1.424   .     A
C1054  C1070   1.401   .     A
C1054  C1106   1.498   .     S
C1054  C1065   1.394   .     A
C1055  C1108   1.495   .     S
C1055  C1069   1.406   .     A
C1055  C1066   1.377   .     A
C1056  C1069   1.413   .     A
C1056  C1062   1.407   .     A
C1056  C1109   1.479   .     S
C1057  C1070   1.420   .     A
C1057  C1064   1.392   .     A
C1057  C1110   1.491   .     S
C1058  C1072   1.414   .     A
C1058  C1111   1.500   .     S
C1059  C1071   1.396   .     A
C1059  C1112   1.500   .     S
C1060  C1113   1.500   .     S
C1060  C1071   1.416   .     A
C1061  C1072   1.389   .     A
C1061  C1114   1.485   .     S
C1062  C1075   1.416   .     A
C1062  C1115   1.496   .     S
C1063  O1243   1.290   .     A
C1063  C1068   1.458   .     S
C1063  O1240   1.329   .     A
C1064  C1116   1.486   .     S
C1064  C1073   1.395   .     A
C1065  C1117   1.504   .     S
C1065  C1073   1.421   .     A
C1066  C1119   1.491   .     S
C1066  C1075   1.405   .     A
C1067  C1074   1.458   .     S
C1071  C1118   1.450   .     S
C1072  C1107   1.449   .     S
C1073  C1096   1.454   .     S
C1074  O1241   1.293   .     A
C1074  O1242   1.325   .     A
C1075  C1085   1.426   .     S
C1076  C1077   1.533   .     S
C1076  H1176   1.096   .     S
C1076  C1120   1.521   .     S
C1076  H1187   1.101   .     S
C1077  C1078   1.523   .     S
C1078  H1143   1.108   .     S
C1078  H1132   1.110   .     S
C1078  H1121   1.106   .     S
C1079  C1080   1.533   .     S
C1079  H1125   1.099   .     S
C1079  H1126   1.103   .     S
C1080  C1081   1.521   .     S
C1081  H1192   1.111   .     S
C1081  H1191   1.106   .     S
C1081  H1122   1.110   .     S
C1082  H1133   1.098   .     S
C1082  C1083   1.533   .     S
C1082  H1134   1.102   .     S
C1083  C1084   1.519   .     S
C1083  H922    1.102   1_655 S
C1083  H923    1.100   1_655 S
C1084  H1127   1.103   .     S
C1084  H1128   1.110   .     S
C1084  H1129   1.110   .     S
C1085  O1200   1.305   .     A
C1085  O1244   1.297   .     A
C1086  C1087   1.524   .     S
C1086  H932    1.098   1_655 S
C1086  H933    1.096   1_655 S
C1087  H1138   1.102   .     S
C1087  H1139   1.096   .     S
C1087  C1088   1.529   .     S
C1088  H1135   1.111   .     S
C1088  H1137   1.111   .     S
C1088  H1136   1.109   .     S
C1089  H1148   1.080   .     S
C1089  H1149   1.100   .     S
C1089  C1090   1.535   .     S
C1090  C1091   1.528   .     S
C1090  H1147   1.104   .     S
C1090  H1146   1.103   .     S
C1091  H1142   1.111   .     S
C1091  H1145   1.110   .     S
C1091  H1144   1.109   .     S
C1092  H1156   1.083   .     S
C1092  C1093   1.539   .     S
C1092  H1157   1.097   .     S
C1093  C1094   1.532   .     S
C1093  H1153   1.105   .     S
C1093  H1155   1.098   .     S
C1094  H1150   1.109   .     S
C1094  H1152   1.107   .     S
C1094  H1151   1.107   .     S
C1095  H1163   1.084   .     S
C1095  C1097   1.540   .     S
C1095  H1164   1.101   .     S
C1096  O1199   1.290   .     A
C1096  O1198   1.327   .     A
C1097  H1162   1.106   .     S
C1097  C1098   1.531   .     S
C1097  H1161   1.105   .     S
C1098  H1158   1.109   .     S
C1098  H1159   1.109   .     S
C1098  H1160   1.104   .     S
C1099  H1171   1.093   .     S
C1099  C1100   1.541   .     S
C1099  H1172   1.096   .     S
C1100  H1170   1.101   .     S
C1100  C1101   1.529   .     S
C1100  H1169   1.094   .     S
C1101  H1166   1.111   .     S
C1101  H1167   1.108   .     S
C1101  H1168   1.110   .     S
C1102  O1205   1.219   .     D
C1102  O1206   1.400   .     S
C1103  O1209   1.398   .     S
C1103  O1207   1.220   .     D
C1104  O1211   1.400   .     S
C1104  O1210   1.220   .     D
C1105  O1212   1.219   .     D
C1105  O1213   1.397   .     S
C1106  O1215   1.399   .     S
C1106  O1214   1.221   .     D
C1107  O1201   1.286   .     A
C1107  O1204   1.328   .     A
C1108  O1216   1.222   .     D
C1108  O1217   1.398   .     S
C1109  O1220   1.399   .     S
C1109  O1218   1.218   .     D
C1110  O1222   1.397   .     S
C1110  O1221   1.219   .     D
C1111  O1223   1.221   .     D
C1111  O1224   1.398   .     S
C1112  O1226   1.399   .     S
C1112  O1225   1.221   .     D
C1113  O1227   1.223   .     D
C1113  O1228   1.395   .     S
C1114  O1229   1.222   .     D
C1114  O1231   1.395   .     S
C1115  O1233   1.398   .     S
C1115  O1232   1.220   .     D
C1116  O1235   1.396   .     S
C1116  O1234   1.222   .     D
C1117  O1236   1.221   .     D
C1117  O1237   1.398   .     S
C1118  O1202   1.324   .     A
C1118  O1203   1.290   .     A
C1119  O1238   1.216   .     D
C1119  O1239   1.398   .     S
C1120  N1194   1.394   .     S
H1123  C872    1.104   1_655 S
H1124  C872    1.099   1_655 S
H1154  C869    1.105   1_655 S
H1165  C869    1.097   1_655 S
H1173  O1206   1.014   .     S
H1174  O1209   1.010   .     S
H1175  O1211   1.014   .     S
H1177  O1213   1.014   .     S
H1178  O1215   1.014   .     S
H1179  O1217   1.011   .     S
H1180  O1220   1.013   .     S
H1181  O1222   1.013   .     S
H1182  O1224   1.012   .     S
H1183  O1226   1.014   .     S
H1184  O1228   1.010   .     S
H1185  O1647   1.011   1_545 S
H1186  O1233   1.014   .     S
H1188  O1651   1.012   .     S
H1189  O1237   1.010   .     S
H1190  O1239   1.013   .     S
N1193  Zn1245  2.056   .     S
N1194  Zn1246  2.056   .     S
N1195  Zn1247  2.056   .     S
N1195  C1462   1.386   1_545 S
N1196  Zn1248  2.056   .     S
N1196  C1463   1.382   1_545 S
O1197  Zn1245  1.998   .     S
O1198  Zn1248  1.998   .     S
O1199  Zn1247  2.007   .     S
O1200  Zn1664  2.007   .     S
O1201  Zn1664  1.999   .     S
O1202  Zn1247  1.999   .     S
O1203  Zn1248  1.991   .     S
O1204  Zn1663  1.991   .     S
O1208  Zn1038  1.998   1_655 S
O1219  Zn1037  2.007   1_655 S
O1230  Zn1246  2.007   .     S
O1231  H1601   1.011   .     S
O1235  H1604   1.012   1_545 S
O1240  Zn1038  1.999   1_655 S
O1241  Zn1245  1.999   .     S
O1242  Zn1246  1.991   .     S
O1243  Zn1037  1.991   1_655 S
O1244  Zn1663  1.998   .     S
Zn1247 O1620   1.991   1_545 S
Zn1247 O1660   1.998   1_545 S
Zn1248 O1617   1.999   1_545 S
Zn1248 O1616   2.007   1_545 S
C1249  O1438   1.292   .     A
C1249  O1405   1.327   .     A
C1249  C1278   1.461   .     S
C1250  C1287   1.517   .     S
C1250  C2291   1.431   1_455 S
C1250  N1401   1.381   .     S
C1251  C1290   1.519   .     S
C1251  N1610   1.385   .     A
C1252  C1294   1.523   .     S
C1252  N1609   1.378   .     A
C1252  C2368   1.443   .     S
C1253  C1297   1.534   .     S
C1253  N1404   1.381   .     A
C1254  C1300   1.526   .     S
C1254  C2087   1.448   .     S
C1254  N987    1.386   1_565 S
C1255  C1303   1.522   .     S
C1255  N988    1.382   1_565 S
C1256  N1403   1.394   .     A
C1256  C1307   1.532   .     S
C1256  C2085   1.447   .     S
C1257  C1310   1.495   .     S
C1257  C1268   1.388   .     A
C1257  C1276   1.402   .     A
C1258  C1275   1.421   .     A
C1258  C1311   1.482   .     S
C1258  C1269   1.393   .     A
C1259  C1266   1.389   .     A
C1259  C1312   1.495   .     S
C1259  C1275   1.402   .     A
C1260  C1277   1.448   .     S
C1260  O1416   1.294   .     A
C1260  O1427   1.320   .     A
C1261  C1267   1.394   .     A
C1261  C1313   1.498   .     S
C1261  C1276   1.424   .     A
C1262  C1278   1.401   .     A
C1262  C1314   1.498   .     S
C1262  C1273   1.394   .     A
C1263  C1316   1.495   .     S
C1263  C1277   1.406   .     A
C1263  C1274   1.377   .     A
C1264  C1277   1.413   .     A
C1264  C1270   1.407   .     A
C1264  C1317   1.479   .     S
C1265  C1278   1.420   .     A
C1265  C1272   1.392   .     A
C1265  C1318   1.491   .     S
C1266  C1280   1.414   .     A
C1266  C1319   1.500   .     S
C1267  C1279   1.396   .     A
C1267  C1320   1.500   .     S
C1268  C1321   1.500   .     S
C1268  C1279   1.416   .     A
C1269  C1280   1.389   .     A
C1269  C1322   1.485   .     S
C1270  C1283   1.416   .     A
C1270  C1323   1.496   .     S
C1271  O1451   1.290   .     A
C1271  C1276   1.458   .     S
C1271  O1448   1.329   .     A
C1272  C1324   1.486   .     S
C1272  C1281   1.395   .     A
C1273  C1325   1.504   .     S
C1273  C1281   1.421   .     A
C1274  C1327   1.491   .     S
C1274  C1283   1.405   .     A
C1275  C1282   1.458   .     S
C1279  C1326   1.450   .     S
C1280  C1315   1.449   .     S
C1281  C1304   1.454   .     S
C1282  O1449   1.293   .     A
C1282  O1450   1.325   .     A
C1283  C1293   1.426   .     S
C1284  C1285   1.533   .     S
C1284  H1384   1.096   .     S
C1284  C1328   1.521   .     S
C1284  H1395   1.101   .     S
C1285  C1286   1.523   .     S
C1285  H1570   1.105   1_455 S
C1285  H1581   1.097   1_455 S
C1286  H1351   1.108   .     S
C1286  H1340   1.110   .     S
C1286  H1329   1.106   .     S
C1287  C1288   1.533   .     S
C1287  H1333   1.099   .     S
C1287  H1334   1.103   .     S
C1288  C1289   1.521   .     S
C1288  H1539   1.104   1_455 S
C1288  H1540   1.099   1_455 S
C1289  H1400   1.111   .     S
C1289  H1399   1.106   .     S
C1289  H1330   1.110   .     S
C1290  H1341   1.098   .     S
C1290  C1291   1.533   .     S
C1290  H1342   1.102   .     S
C1291  C1292   1.519   .     S
C1291  H1546   1.102   .     S
C1291  H1547   1.100   .     S
C1292  H1335   1.103   .     S
C1292  H1336   1.110   .     S
C1292  H1337   1.110   .     S
C1293  O1408   1.305   .     A
C1293  O1452   1.297   .     A
C1294  C1295   1.524   .     S
C1294  H1556   1.098   .     S
C1294  H1557   1.096   .     S
C1295  H1346   1.102   .     S
C1295  H1347   1.096   .     S
C1295  C1296   1.529   .     S
C1296  H1343   1.111   .     S
C1296  H1345   1.111   .     S
C1296  H1344   1.109   .     S
C1297  H1356   1.080   .     S
C1297  H1357   1.100   .     S
C1297  C1298   1.535   .     S
C1298  C1299   1.528   .     S
C1298  H1355   1.104   .     S
C1298  H1354   1.103   .     S
C1299  H1350   1.111   .     S
C1299  H1353   1.110   .     S
C1299  H1352   1.109   .     S
C1300  H1364   1.083   .     S
C1300  C1301   1.539   .     S
C1300  H1365   1.097   .     S
C1301  C1302   1.532   .     S
C1301  H1361   1.105   .     S
C1301  H1363   1.098   .     S
C1302  H1358   1.109   .     S
C1302  H1360   1.107   .     S
C1302  H1359   1.107   .     S
C1303  H1371   1.084   .     S
C1303  C1305   1.540   .     S
C1303  H1372   1.101   .     S
C1304  O1407   1.290   .     A
C1304  O1406   1.327   .     A
C1305  H1370   1.106   .     S
C1305  C1306   1.531   .     S
C1305  H1369   1.105   .     S
C1306  H1366   1.109   .     S
C1306  H1367   1.109   .     S
C1306  H1368   1.104   .     S
C1307  H1379   1.093   .     S
C1307  C1308   1.541   .     S
C1307  H1380   1.096   .     S
C1308  H1378   1.101   .     S
C1308  C1309   1.529   .     S
C1308  H1377   1.094   .     S
C1309  H1374   1.111   .     S
C1309  H1375   1.108   .     S
C1309  H1376   1.110   .     S
C1310  O1413   1.219   .     D
C1310  O1414   1.400   .     S
C1311  O1417   1.398   .     S
C1311  O1415   1.220   .     D
C1312  O1419   1.400   .     S
C1312  O1418   1.220   .     D
C1313  O1420   1.219   .     D
C1313  O1421   1.397   .     S
C1314  O1423   1.399   .     S
C1314  O1422   1.221   .     D
C1315  O1409   1.286   .     A
C1315  O1412   1.328   .     A
C1316  O1424   1.222   .     D
C1316  O1425   1.398   .     S
C1317  O1428   1.399   .     S
C1317  O1426   1.218   .     D
C1318  O1430   1.397   .     S
C1318  O1429   1.219   .     D
C1319  O1431   1.221   .     D
C1319  O1432   1.398   .     S
C1320  O1434   1.399   .     S
C1320  O1433   1.221   .     D
C1321  O1435   1.223   .     D
C1321  O1436   1.395   .     S
C1322  O1437   1.222   .     D
C1322  O1439   1.395   .     S
C1323  O1441   1.398   .     S
C1323  O1440   1.220   .     D
C1324  O1443   1.396   .     S
C1324  O1442   1.222   .     D
C1325  O1444   1.221   .     D
C1325  O1445   1.398   .     S
C1326  O1410   1.324   .     A
C1326  O1411   1.290   .     A
C1327  O1446   1.216   .     D
C1327  O1447   1.398   .     S
C1328  C628    1.443   1_455 S
C1328  N1402   1.394   .     S
H1331  C1496   1.104   .     S
H1332  C1496   1.099   .     S
H1338  C1499   1.102   1_455 S
H1339  C1499   1.100   1_455 S
H1348  C1502   1.098   1_455 S
H1349  C1502   1.096   1_455 S
H1362  C1493   1.105   .     S
H1373  C1493   1.097   .     S
H1381  O1414   1.014   .     S
H1382  O1417   1.010   .     S
H1383  O1419   1.014   .     S
H1385  O1421   1.014   .     S
H1386  O1423   1.014   .     S
H1387  O1425   1.011   .     S
H1388  O1428   1.013   .     S
H1389  O1430   1.013   .     S
H1390  O1432   1.012   .     S
H1391  O1434   1.014   .     S
H1392  O1436   1.010   .     S
H1394  O1441   1.014   .     S
H1396  O1027   1.012   1_565 S
H1397  O1445   1.010   .     S
H1398  O1447   1.013   .     S
N1401  C1460   1.378   1_455 A
N1401  Zn1453  2.056   .     S
N1402  C1459   1.385   1_455 A
N1402  Zn1454  2.056   .     S
N1403  Zn1455  2.056   .     S
N1404  Zn1456  2.056   .     S
O1405  Zn1453  1.998   .     S
O1406  Zn1456  1.998   .     S
O1407  Zn1455  2.007   .     S
O1408  Zn1040  2.007   1_565 S
O1409  Zn1040  1.999   1_565 S
O1410  Zn1455  1.999   .     S
O1411  Zn1456  1.991   .     S
O1412  Zn1039  1.991   1_565 S
O1416  Zn1662  1.998   .     S
O1427  Zn1661  2.007   .     S
O1438  Zn1454  2.007   .     S
O1439  H977    1.011   1_565 S
O1448  Zn1662  1.999   .     S
O1449  Zn1453  1.999   .     S
O1450  Zn1454  1.991   .     S
O1451  Zn1661  1.991   .     S
O1452  Zn1039  1.998   1_565 S
Zn1453 O1635   2.007   1_455 S
Zn1453 O1659   1.991   1_455 S
Zn1454 O1656   1.999   1_455 S
Zn1454 O1624   1.998   1_455 S
C1457  O1646   1.292   .     A
C1457  O1613   1.327   .     A
C1457  C1486   1.461   .     S
C1458  C1495   1.517   .     S
C1458  C2083   1.431   .     S
C1458  N1609   1.381   .     S
C1459  C1498   1.519   .     S
C1459  N1402   1.385   1_655 A
C1459  C418    1.431   1_655 S
C1460  C1502   1.523   .     S
C1460  N1401   1.378   1_655 A
C1460  C2160   1.443   1_655 S
C1461  C1505   1.534   .     S
C1461  N1612   1.381   .     A
C1462  C1508   1.526   .     S
C1462  C2295   1.448   .     S
C1462  N1195   1.386   1_565 S
C1463  C1511   1.522   .     S
C1463  N1196   1.382   1_565 S
C1464  N1611   1.394   .     A
C1464  C1515   1.532   .     S
C1464  C2293   1.447   .     S
C1465  C1518   1.495   .     S
C1465  C1476   1.388   .     A
C1465  C1484   1.402   .     A
C1466  C1483   1.421   .     A
C1466  C1519   1.482   .     S
C1466  C1477   1.393   .     A
C1467  C1474   1.389   .     A
C1467  C1520   1.495   .     S
C1467  C1483   1.402   .     A
C1468  C1485   1.448   .     S
C1468  O1624   1.294   .     A
C1468  O1635   1.320   .     A
C1469  C1475   1.394   .     A
C1469  C1521   1.498   .     S
C1469  C1484   1.424   .     A
C1470  C1486   1.401   .     A
C1470  C1522   1.498   .     S
C1470  C1481   1.394   .     A
C1471  C1524   1.495   .     S
C1471  C1485   1.406   .     A
C1471  C1482   1.377   .     A
C1472  C1485   1.413   .     A
C1472  C1478   1.407   .     A
C1472  C1525   1.479   .     S
C1473  C1486   1.420   .     A
C1473  C1480   1.392   .     A
C1473  C1526   1.491   .     S
C1474  C1488   1.414   .     A
C1474  C1527   1.500   .     S
C1475  C1487   1.396   .     A
C1475  C1528   1.500   .     S
C1476  C1529   1.500   .     S
C1476  C1487   1.416   .     A
C1477  C1488   1.389   .     A
C1477  C1530   1.485   .     S
C1478  C1491   1.416   .     A
C1478  C1531   1.496   .     S
C1479  O1659   1.290   .     A
C1479  C1484   1.458   .     S
C1479  O1656   1.329   .     A
C1480  C1532   1.486   .     S
C1480  C1489   1.395   .     A
C1481  C1533   1.504   .     S
C1481  C1489   1.421   .     A
C1482  C1535   1.491   .     S
C1482  C1491   1.405   .     A
C1483  C1490   1.458   .     S
C1487  C1534   1.450   .     S
C1488  C1523   1.449   .     S
C1489  C1512   1.454   .     S
C1490  O1657   1.293   .     A
C1490  O1658   1.325   .     A
C1491  C1501   1.426   .     S
C1492  C1493   1.533   .     S
C1492  H1592   1.096   .     S
C1492  C1536   1.521   .     S
C1492  H1603   1.101   .     S
C1493  C1494   1.523   .     S
C1494  H1559   1.108   .     S
C1494  H1548   1.110   .     S
C1494  H1537   1.106   .     S
C1495  C1496   1.533   .     S
C1495  H1541   1.099   .     S
C1495  H1542   1.103   .     S
C1496  C1497   1.521   .     S
C1497  H1608   1.111   .     S
C1497  H1607   1.106   .     S
C1497  H1538   1.110   .     S
C1498  H1549   1.098   .     S
C1498  C1499   1.533   .     S
C1498  H1550   1.102   .     S
C1499  C1500   1.519   .     S
C1499  H1338   1.102   1_655 S
C1499  H1339   1.100   1_655 S
C1500  H1543   1.103   .     S
C1500  H1544   1.110   .     S
C1500  H1545   1.110   .     S
C1501  O1616   1.305   .     A
C1501  O1660   1.297   .     A
C1502  C1503   1.524   .     S
C1502  H1348   1.098   1_655 S
C1502  H1349   1.096   1_655 S
C1503  H1554   1.102   .     S
C1503  H1555   1.096   .     S
C1503  C1504   1.529   .     S
C1504  H1551   1.111   .     S
C1504  H1553   1.111   .     S
C1504  H1552   1.109   .     S
C1505  H1564   1.080   .     S
C1505  H1565   1.100   .     S
C1505  C1506   1.535   .     S
C1506  C1507   1.528   .     S
C1506  H1563   1.104   .     S
C1506  H1562   1.103   .     S
C1507  H1558   1.111   .     S
C1507  H1561   1.110   .     S
C1507  H1560   1.109   .     S
C1508  H1572   1.083   .     S
C1508  C1509   1.539   .     S
C1508  H1573   1.097   .     S
C1509  C1510   1.532   .     S
C1509  H1569   1.105   .     S
C1509  H1571   1.098   .     S
C1510  H1566   1.109   .     S
C1510  H1568   1.107   .     S
C1510  H1567   1.107   .     S
C1511  H1579   1.084   .     S
C1511  C1513   1.540   .     S
C1511  H1580   1.101   .     S
C1512  O1615   1.290   .     A
C1512  O1614   1.327   .     A
C1513  H1578   1.106   .     S
C1513  C1514   1.531   .     S
C1513  H1577   1.105   .     S
C1514  H1574   1.109   .     S
C1514  H1575   1.109   .     S
C1514  H1576   1.104   .     S
C1515  H1587   1.093   .     S
C1515  C1516   1.541   .     S
C1515  H1588   1.096   .     S
C1516  H1586   1.101   .     S
C1516  C1517   1.529   .     S
C1516  H1585   1.094   .     S
C1517  H1582   1.111   .     S
C1517  H1583   1.108   .     S
C1517  H1584   1.110   .     S
C1518  O1621   1.219   .     D
C1518  O1622   1.400   .     S
C1519  O1625   1.398   .     S
C1519  O1623   1.220   .     D
C1520  O1627   1.400   .     S
C1520  O1626   1.220   .     D
C1521  O1628   1.219   .     D
C1521  O1629   1.397   .     S
C1522  O1631   1.399   .     S
C1522  O1630   1.221   .     D
C1523  O1617   1.286   .     A
C1523  O1620   1.328   .     A
C1524  O1632   1.222   .     D
C1524  O1633   1.398   .     S
C1525  O1636   1.399   .     S
C1525  O1634   1.218   .     D
C1526  O1638   1.397   .     S
C1526  O1637   1.219   .     D
C1527  O1639   1.221   .     D
C1527  O1640   1.398   .     S
C1528  O1642   1.399   .     S
C1528  O1641   1.221   .     D
C1529  O1643   1.223   .     D
C1529  O1644   1.395   .     S
C1530  O1645   1.222   .     D
C1530  O1647   1.395   .     S
C1531  O1649   1.398   .     S
C1531  O1648   1.220   .     D
C1532  O1651   1.396   .     S
C1532  O1650   1.222   .     D
C1533  O1652   1.221   .     D
C1533  O1653   1.398   .     S
C1534  O1618   1.324   .     A
C1534  O1619   1.290   .     A
C1535  O1654   1.216   .     D
C1535  O1655   1.398   .     S
C1536  N1610   1.394   .     S
H1539  C1288   1.104   1_655 S
H1540  C1288   1.099   1_655 S
H1570  C1285   1.105   1_655 S
H1581  C1285   1.097   1_655 S
H1589  O1622   1.014   .     S
H1590  O1625   1.010   .     S
H1591  O1627   1.014   .     S
H1593  O1629   1.014   .     S
H1594  O1631   1.014   .     S
H1595  O1633   1.011   .     S
H1596  O1636   1.013   .     S
H1597  O1638   1.013   .     S
H1598  O1640   1.012   .     S
H1599  O1642   1.014   .     S
H1600  O1644   1.010   .     S
H1602  O1649   1.014   .     S
H1604  O1235   1.012   1_565 S
H1605  O1653   1.010   .     S
H1606  O1655   1.013   .     S
N1609  Zn1661  2.056   .     S
N1610  Zn1662  2.056   .     S
N1611  Zn1663  2.056   .     S
N1612  Zn1664  2.056   .     S
O1613  Zn1661  1.998   .     S
O1614  Zn1664  1.998   .     S
O1615  Zn1663  2.007   .     S
O1616  Zn1248  2.007   1_565 S
O1617  Zn1248  1.999   1_565 S
O1618  Zn1663  1.999   .     S
O1619  Zn1664  1.991   .     S
O1620  Zn1247  1.991   1_565 S
O1624  Zn1454  1.998   1_655 S
O1635  Zn1453  2.007   1_655 S
O1646  Zn1662  2.007   .     S
O1647  H1185   1.011   1_565 S
O1656  Zn1454  1.999   1_655 S
O1657  Zn1661  1.999   .     S
O1658  Zn1662  1.991   .     S
O1659  Zn1453  1.991   1_655 S
O1660  Zn1247  1.998   1_565 S
C1665  O1854   1.292   .     A
C1665  O1821   1.327   .     A
C1665  C1694   1.461   .     S
C1666  C1703   1.517   .     S
C1666  C211    1.431   1_456 S
C1666  N1817   1.381   .     S
C1667  C1706   1.519   .     S
C1667  N2026   1.385   .     A
C1668  C1710   1.523   .     S
C1668  N2025   1.378   .     A
C1668  C288    1.443   1_556 S
C1669  C1713   1.534   .     S
C1669  N1820   1.381   .     A
C1670  C1716   1.526   .     S
C1670  C7      1.448   1_556 S
C1670  N2235   1.386   .     S
C1671  C1719   1.522   .     S
C1671  N2236   1.382   .     S
C1672  N1819   1.394   .     A
C1672  C1723   1.532   .     S
C1672  C5      1.447   1_556 S
C1673  C1726   1.495   .     S
C1673  C1684   1.388   .     A
C1673  C1692   1.402   .     A
C1674  C1691   1.421   .     A
C1674  C1727   1.482   .     S
C1674  C1685   1.393   .     A
C1675  C1682   1.389   .     A
C1675  C1728   1.495   .     S
C1675  C1691   1.402   .     A
C1676  C1693   1.448   .     S
C1676  O1832   1.294   .     A
C1676  O1843   1.320   .     A
C1677  C1683   1.394   .     A
C1677  C1729   1.498   .     S
C1677  C1692   1.424   .     A
C1678  C1694   1.401   .     A
C1678  C1730   1.498   .     S
C1678  C1689   1.394   .     A
C1679  C1732   1.495   .     S
C1679  C1693   1.406   .     A
C1679  C1690   1.377   .     A
C1680  C1693   1.413   .     A
C1680  C1686   1.407   .     A
C1680  C1733   1.479   .     S
C1681  C1694   1.420   .     A
C1681  C1688   1.392   .     A
C1681  C1734   1.491   .     S
C1682  C1696   1.414   .     A
C1682  C1735   1.500   .     S
C1683  C1695   1.396   .     A
C1683  C1736   1.500   .     S
C1684  C1737   1.500   .     S
C1684  C1695   1.416   .     A
C1685  C1696   1.389   .     A
C1685  C1738   1.485   .     S
C1686  C1699   1.416   .     A
C1686  C1739   1.496   .     S
C1687  O1867   1.290   .     A
C1687  C1692   1.458   .     S
C1687  O1864   1.329   .     A
C1688  C1740   1.486   .     S
C1688  C1697   1.395   .     A
C1689  C1741   1.504   .     S
C1689  C1697   1.421   .     A
C1690  C1743   1.491   .     S
C1690  C1699   1.405   .     A
C1691  C1698   1.458   .     S
C1695  C1742   1.450   .     S
C1696  C1731   1.449   .     S
C1697  C1720   1.454   .     S
C1698  O1865   1.293   .     A
C1698  O1866   1.325   .     A
C1699  C1709   1.426   .     S
C1700  C1701   1.533   .     S
C1700  H1800   1.096   .     S
C1700  C1744   1.521   .     S
C1700  H1811   1.101   .     S
C1701  C1702   1.523   .     S
C1701  H1986   1.105   1_455 S
C1701  H1997   1.097   1_455 S
C1702  H1767   1.108   .     S
C1702  H1756   1.110   .     S
C1702  H1745   1.106   .     S
C1703  C1704   1.533   .     S
C1703  H1749   1.099   .     S
C1703  H1750   1.103   .     S
C1704  C1705   1.521   .     S
C1704  H1955   1.104   1_455 S
C1704  H1956   1.099   1_455 S
C1705  H1816   1.111   .     S
C1705  H1815   1.106   .     S
C1705  H1746   1.110   .     S
C1706  H1757   1.098   .     S
C1706  C1707   1.533   .     S
C1706  H1758   1.102   .     S
C1707  C1708   1.519   .     S
C1707  H1962   1.102   .     S
C1707  H1963   1.100   .     S
C1708  H1751   1.103   .     S
C1708  H1752   1.110   .     S
C1708  H1753   1.110   .     S
C1709  O1824   1.305   .     A
C1709  O1868   1.297   .     A
C1710  C1711   1.524   .     S
C1710  H1972   1.098   .     S
C1710  H1973   1.096   .     S
C1711  H1762   1.102   .     S
C1711  H1763   1.096   .     S
C1711  C1712   1.529   .     S
C1712  H1759   1.111   .     S
C1712  H1761   1.111   .     S
C1712  H1760   1.109   .     S
C1713  H1772   1.080   .     S
C1713  H1773   1.100   .     S
C1713  C1714   1.535   .     S
C1714  C1715   1.528   .     S
C1714  H1771   1.104   .     S
C1714  H1770   1.103   .     S
C1715  H1766   1.111   .     S
C1715  H1769   1.110   .     S
C1715  H1768   1.109   .     S
C1716  H1780   1.083   .     S
C1716  C1717   1.539   .     S
C1716  H1781   1.097   .     S
C1717  C1718   1.532   .     S
C1717  H1777   1.105   .     S
C1717  H1779   1.098   .     S
C1718  H1774   1.109   .     S
C1718  H1776   1.107   .     S
C1718  H1775   1.107   .     S
C1719  H1787   1.084   .     S
C1719  C1721   1.540   .     S
C1719  H1788   1.101   .     S
C1720  O1823   1.290   .     A
C1720  O1822   1.327   .     A
C1721  H1786   1.106   .     S
C1721  C1722   1.531   .     S
C1721  H1785   1.105   .     S
C1722  H1782   1.109   .     S
C1722  H1783   1.109   .     S
C1722  H1784   1.104   .     S
C1723  H1795   1.093   .     S
C1723  C1724   1.541   .     S
C1723  H1796   1.096   .     S
C1724  H1794   1.101   .     S
C1724  C1725   1.529   .     S
C1724  H1793   1.094   .     S
C1725  H1790   1.111   .     S
C1725  H1791   1.108   .     S
C1725  H1792   1.110   .     S
C1726  O1829   1.219   .     D
C1726  O1830   1.400   .     S
C1727  O1833   1.398   .     S
C1727  O1831   1.220   .     D
C1728  O1835   1.400   .     S
C1728  O1834   1.220   .     D
C1729  O1836   1.219   .     D
C1729  O1837   1.397   .     S
C1730  O1839   1.399   .     S
C1730  O1838   1.221   .     D
C1731  O1825   1.286   .     A
C1731  O1828   1.328   .     A
C1732  O1840   1.222   .     D
C1732  O1841   1.398   .     S
C1733  O1844   1.399   .     S
C1733  O1842   1.218   .     D
C1734  O1846   1.397   .     S
C1734  O1845   1.219   .     D
C1735  O1847   1.221   .     D
C1735  O1848   1.398   .     S
C1736  O1850   1.399   .     S
C1736  O1849   1.221   .     D
C1737  O1851   1.223   .     D
C1737  O1852   1.395   .     S
C1738  O1853   1.222   .     D
C1738  O1855   1.395   .     S
C1739  O1857   1.398   .     S
C1739  O1856   1.220   .     D
C1740  O1859   1.396   .     S
C1740  O1858   1.222   .     D
C1741  O1860   1.221   .     D
C1741  O1861   1.398   .     S
C1742  O1826   1.324   .     A
C1742  O1827   1.290   .     A
C1743  O1862   1.216   .     D
C1743  O1863   1.398   .     S
C1744  C1044   1.443   1_455 S
C1744  N1818   1.394   .     S
H1747  C1912   1.104   .     S
H1748  C1912   1.099   .     S
H1754  C1915   1.102   1_455 S
H1755  C1915   1.100   1_455 S
H1764  C1918   1.098   1_455 S
H1765  C1918   1.096   1_455 S
H1778  C1909   1.105   .     S
H1789  C1909   1.097   .     S
H1797  O1830   1.014   .     S
H1798  O1833   1.010   .     S
H1799  O1835   1.014   .     S
H1801  O1837   1.014   .     S
H1802  O1839   1.014   .     S
H1803  O1841   1.011   .     S
H1804  O1844   1.013   .     S
H1805  O1846   1.013   .     S
H1806  O1848   1.012   .     S
H1807  O1850   1.014   .     S
H1808  O1852   1.010   .     S
H1809  O2271   1.011   1_545 S
H1810  O1857   1.014   .     S
H1812  O2275   1.012   .     S
H1813  O1861   1.010   .     S
H1814  O1863   1.013   .     S
N1817  C1876   1.378   1_455 A
N1817  Zn1869  2.056   .     S
N1818  C1875   1.385   1_455 A
N1818  Zn1870  2.056   .     S
N1819  Zn1871  2.056   .     S
N1819  C2086   1.386   1_545 S
N1820  Zn1872  2.056   .     S
N1820  C2087   1.382   1_545 S
O1821  Zn1869  1.998   .     S
O1822  Zn1872  1.998   .     S
O1823  Zn1871  2.007   .     S
O1824  Zn2288  2.007   .     S
O1825  Zn2288  1.999   .     S
O1826  Zn1871  1.999   .     S
O1827  Zn1872  1.991   .     S
O1828  Zn2287  1.991   .     S
O1832  Zn2078  1.998   .     S
O1843  Zn2077  2.007   .     S
O1854  Zn1870  2.007   .     S
O1855  H2225   1.011   .     S
O1859  H2228   1.012   1_545 S
O1864  Zn2078  1.999   .     S
O1865  Zn1869  1.999   .     S
O1866  Zn1870  1.991   .     S
O1867  Zn2077  1.991   .     S
O1868  Zn2287  1.998   .     S
Zn1869 O2051   2.007   1_455 S
Zn1869 O2075   1.991   1_455 S
Zn1870 O2072   1.999   1_455 S
Zn1870 O2040   1.998   1_455 S
Zn1871 O2244   1.991   1_545 S
Zn1871 O2284   1.998   1_545 S
Zn1872 O2241   1.999   1_545 S
Zn1872 O2240   2.007   1_545 S
C1873  O2062   1.292   .     A
C1873  O2029   1.327   .     A
C1873  C1902   1.461   .     S
C1874  C1911   1.517   .     S
C1874  C3      1.431   1_556 S
C1874  N2025   1.381   .     S
C1875  C1914   1.519   .     S
C1875  N1818   1.385   1_655 A
C1875  C834    1.431   1_655 S
C1876  C1918   1.523   .     S
C1876  N1817   1.378   1_655 A
C1876  C80     1.443   1_656 S
C1877  C1921   1.534   .     S
C1877  N2028   1.381   .     A
C1878  C1924   1.526   .     S
C1878  C215    1.448   1_556 S
C1878  N2443   1.386   .     S
C1879  C1927   1.522   .     S
C1879  N2444   1.382   .     S
C1880  N2027   1.394   .     A
C1880  C1931   1.532   .     S
C1880  C213    1.447   1_556 S
C1881  C1934   1.495   .     S
C1881  C1892   1.388   .     A
C1881  C1900   1.402   .     A
C1882  C1899   1.421   .     A
C1882  C1935   1.482   .     S
C1882  C1893   1.393   .     A
C1883  C1890   1.389   .     A
C1883  C1936   1.495   .     S
C1883  C1899   1.402   .     A
C1884  C1901   1.448   .     S
C1884  O2040   1.294   .     A
C1884  O2051   1.320   .     A
C1885  C1891   1.394   .     A
C1885  C1937   1.498   .     S
C1885  C1900   1.424   .     A
C1886  C1902   1.401   .     A
C1886  C1938   1.498   .     S
C1886  C1897   1.394   .     A
C1887  C1940   1.495   .     S
C1887  C1901   1.406   .     A
C1887  C1898   1.377   .     A
C1888  C1901   1.413   .     A
C1888  C1894   1.407   .     A
C1888  C1941   1.479   .     S
C1889  C1902   1.420   .     A
C1889  C1896   1.392   .     A
C1889  C1942   1.491   .     S
C1890  C1904   1.414   .     A
C1890  C1943   1.500   .     S
C1891  C1903   1.396   .     A
C1891  C1944   1.500   .     S
C1892  C1945   1.500   .     S
C1892  C1903   1.416   .     A
C1893  C1904   1.389   .     A
C1893  C1946   1.485   .     S
C1894  C1907   1.416   .     A
C1894  C1947   1.496   .     S
C1895  O2075   1.290   .     A
C1895  C1900   1.458   .     S
C1895  O2072   1.329   .     A
C1896  C1948   1.486   .     S
C1896  C1905   1.395   .     A
C1897  C1949   1.504   .     S
C1897  C1905   1.421   .     A
C1898  C1951   1.491   .     S
C1898  C1907   1.405   .     A
C1899  C1906   1.458   .     S
C1903  C1950   1.450   .     S
C1904  C1939   1.449   .     S
C1905  C1928   1.454   .     S
C1906  O2073   1.293   .     A
C1906  O2074   1.325   .     A
C1907  C1917   1.426   .     S
C1908  C1909   1.533   .     S
C1908  H2008   1.096   .     S
C1908  C1952   1.521   .     S
C1908  H2019   1.101   .     S
C1909  C1910   1.523   .     S
C1910  H1975   1.108   .     S
C1910  H1964   1.110   .     S
C1910  H1953   1.106   .     S
C1911  C1912   1.533   .     S
C1911  H1957   1.099   .     S
C1911  H1958   1.103   .     S
C1912  C1913   1.521   .     S
C1913  H2024   1.111   .     S
C1913  H2023   1.106   .     S
C1913  H1954   1.110   .     S
C1914  H1965   1.098   .     S
C1914  C1915   1.533   .     S
C1914  H1966   1.102   .     S
C1915  C1916   1.519   .     S
C1915  H1754   1.102   1_655 S
C1915  H1755   1.100   1_655 S
C1916  H1959   1.103   .     S
C1916  H1960   1.110   .     S
C1916  H1961   1.110   .     S
C1917  O2032   1.305   .     A
C1917  O2076   1.297   .     A
C1918  C1919   1.524   .     S
C1918  H1764   1.098   1_655 S
C1918  H1765   1.096   1_655 S
C1919  H1970   1.102   .     S
C1919  H1971   1.096   .     S
C1919  C1920   1.529   .     S
C1920  H1967   1.111   .     S
C1920  H1969   1.111   .     S
C1920  H1968   1.109   .     S
C1921  H1980   1.080   .     S
C1921  H1981   1.100   .     S
C1921  C1922   1.535   .     S
C1922  C1923   1.528   .     S
C1922  H1979   1.104   .     S
C1922  H1978   1.103   .     S
C1923  H1974   1.111   .     S
C1923  H1977   1.110   .     S
C1923  H1976   1.109   .     S
C1924  H1988   1.083   .     S
C1924  C1925   1.539   .     S
C1924  H1989   1.097   .     S
C1925  C1926   1.532   .     S
C1925  H1985   1.105   .     S
C1925  H1987   1.098   .     S
C1926  H1982   1.109   .     S
C1926  H1984   1.107   .     S
C1926  H1983   1.107   .     S
C1927  H1995   1.084   .     S
C1927  C1929   1.540   .     S
C1927  H1996   1.101   .     S
C1928  O2031   1.290   .     A
C1928  O2030   1.327   .     A
C1929  H1994   1.106   .     S
C1929  C1930   1.531   .     S
C1929  H1993   1.105   .     S
C1930  H1990   1.109   .     S
C1930  H1991   1.109   .     S
C1930  H1992   1.104   .     S
C1931  H2003   1.093   .     S
C1931  C1932   1.541   .     S
C1931  H2004   1.096   .     S
C1932  H2002   1.101   .     S
C1932  C1933   1.529   .     S
C1932  H2001   1.094   .     S
C1933  H1998   1.111   .     S
C1933  H1999   1.108   .     S
C1933  H2000   1.110   .     S
C1934  O2037   1.219   .     D
C1934  O2038   1.400   .     S
C1935  O2041   1.398   .     S
C1935  O2039   1.220   .     D
C1936  O2043   1.400   .     S
C1936  O2042   1.220   .     D
C1937  O2044   1.219   .     D
C1937  O2045   1.397   .     S
C1938  O2047   1.399   .     S
C1938  O2046   1.221   .     D
C1939  O2033   1.286   .     A
C1939  O2036   1.328   .     A
C1940  O2048   1.222   .     D
C1940  O2049   1.398   .     S
C1941  O2052   1.399   .     S
C1941  O2050   1.218   .     D
C1942  O2054   1.397   .     S
C1942  O2053   1.219   .     D
C1943  O2055   1.221   .     D
C1943  O2056   1.398   .     S
C1944  O2058   1.399   .     S
C1944  O2057   1.221   .     D
C1945  O2059   1.223   .     D
C1945  O2060   1.395   .     S
C1946  O2061   1.222   .     D
C1946  O2063   1.395   .     S
C1947  O2065   1.398   .     S
C1947  O2064   1.220   .     D
C1948  O2067   1.396   .     S
C1948  O2066   1.222   .     D
C1949  O2068   1.221   .     D
C1949  O2069   1.398   .     S
C1950  O2034   1.324   .     A
C1950  O2035   1.290   .     A
C1951  O2070   1.216   .     D
C1951  O2071   1.398   .     S
C1952  N2026   1.394   .     S
H1955  C1704   1.104   1_655 S
H1956  C1704   1.099   1_655 S
H1986  C1701   1.105   1_655 S
H1997  C1701   1.097   1_655 S
H2005  O2038   1.014   .     S
H2006  O2041   1.010   .     S
H2007  O2043   1.014   .     S
H2009  O2045   1.014   .     S
H2010  O2047   1.014   .     S
H2011  O2049   1.011   .     S
H2012  O2052   1.013   .     S
H2013  O2054   1.013   .     S
H2014  O2056   1.012   .     S
H2015  O2058   1.014   .     S
H2016  O2060   1.010   .     S
H2017  O2479   1.011   1_545 S
H2018  O2065   1.014   .     S
H2020  O2483   1.012   .     S
H2021  O2069   1.010   .     S
H2022  O2071   1.013   .     S
N2025  Zn2077  2.056   .     S
N2026  Zn2078  2.056   .     S
N2027  Zn2079  2.056   .     S
N2027  C2294   1.386   1_545 S
N2028  Zn2080  2.056   .     S
N2028  C2295   1.382   1_545 S
O2029  Zn2077  1.998   .     S
O2030  Zn2080  1.998   .     S
O2031  Zn2079  2.007   .     S
O2032  Zn2496  2.007   .     S
O2033  Zn2496  1.999   .     S
O2034  Zn2079  1.999   .     S
O2035  Zn2080  1.991   .     S
O2036  Zn2495  1.991   .     S
O2040  Zn1870  1.998   1_655 S
O2051  Zn1869  2.007   1_655 S
O2062  Zn2078  2.007   .     S
O2063  H2433   1.011   .     S
O2067  H2436   1.012   1_545 S
O2072  Zn1870  1.999   1_655 S
O2073  Zn2077  1.999   .     S
O2074  Zn2078  1.991   .     S
O2075  Zn1869  1.991   1_655 S
O2076  Zn2495  1.998   .     S
Zn2079 O2452   1.991   1_545 S
Zn2079 O2492   1.998   1_545 S
Zn2080 O2449   1.999   1_545 S
Zn2080 O2448   2.007   1_545 S
C2081  O2270   1.292   .     A
C2081  O2237   1.327   .     A
C2081  C2110   1.461   .     S
C2082  C2119   1.517   .     S
C2082  C627    1.431   1_456 S
C2082  N2233   1.381   .     S
C2083  C2122   1.519   .     S
C2083  N2442   1.385   .     A
C2084  C2126   1.523   .     S
C2084  N2441   1.378   .     A
C2084  C704    1.443   1_556 S
C2085  C2129   1.534   .     S
C2085  N2236   1.381   .     A
C2086  C2132   1.526   .     S
C2086  C423    1.448   1_556 S
C2086  N1819   1.386   1_565 S
C2087  C2135   1.522   .     S
C2087  N1820   1.382   1_565 S
C2088  N2235   1.394   .     A
C2088  C2139   1.532   .     S
C2088  C421    1.447   1_556 S
C2089  C2142   1.495   .     S
C2089  C2100   1.388   .     A
C2089  C2108   1.402   .     A
C2090  C2107   1.421   .     A
C2090  C2143   1.482   .     S
C2090  C2101   1.393   .     A
C2091  C2098   1.389   .     A
C2091  C2144   1.495   .     S
C2091  C2107   1.402   .     A
C2092  C2109   1.448   .     S
C2092  O2248   1.294   .     A
C2092  O2259   1.320   .     A
C2093  C2099   1.394   .     A
C2093  C2145   1.498   .     S
C2093  C2108   1.424   .     A
C2094  C2110   1.401   .     A
C2094  C2146   1.498   .     S
C2094  C2105   1.394   .     A
C2095  C2148   1.495   .     S
C2095  C2109   1.406   .     A
C2095  C2106   1.377   .     A
C2096  C2109   1.413   .     A
C2096  C2102   1.407   .     A
C2096  C2149   1.479   .     S
C2097  C2110   1.420   .     A
C2097  C2104   1.392   .     A
C2097  C2150   1.491   .     S
C2098  C2112   1.414   .     A
C2098  C2151   1.500   .     S
C2099  C2111   1.396   .     A
C2099  C2152   1.500   .     S
C2100  C2153   1.500   .     S
C2100  C2111   1.416   .     A
C2101  C2112   1.389   .     A
C2101  C2154   1.485   .     S
C2102  C2115   1.416   .     A
C2102  C2155   1.496   .     S
C2103  O2283   1.290   .     A
C2103  C2108   1.458   .     S
C2103  O2280   1.329   .     A
C2104  C2156   1.486   .     S
C2104  C2113   1.395   .     A
C2105  C2157   1.504   .     S
C2105  C2113   1.421   .     A
C2106  C2159   1.491   .     S
C2106  C2115   1.405   .     A
C2107  C2114   1.458   .     S
C2111  C2158   1.450   .     S
C2112  C2147   1.449   .     S
C2113  C2136   1.454   .     S
C2114  O2281   1.293   .     A
C2114  O2282   1.325   .     A
C2115  C2125   1.426   .     S
C2116  C2117   1.533   .     S
C2116  H2216   1.096   .     S
C2116  C2160   1.521   .     S
C2116  H2227   1.101   .     S
C2117  C2118   1.523   .     S
C2117  H2402   1.105   1_455 S
C2117  H2413   1.097   1_455 S
C2118  H2183   1.108   .     S
C2118  H2172   1.110   .     S
C2118  H2161   1.106   .     S
C2119  C2120   1.533   .     S
C2119  H2165   1.099   .     S
C2119  H2166   1.103   .     S
C2120  C2121   1.521   .     S
C2120  H2371   1.104   1_455 S
C2120  H2372   1.099   1_455 S
C2121  H2232   1.111   .     S
C2121  H2231   1.106   .     S
C2121  H2162   1.110   .     S
C2122  H2173   1.098   .     S
C2122  C2123   1.533   .     S
C2122  H2174   1.102   .     S
C2123  C2124   1.519   .     S
C2123  H2378   1.102   .     S
C2123  H2379   1.100   .     S
C2124  H2167   1.103   .     S
C2124  H2168   1.110   .     S
C2124  H2169   1.110   .     S
C2125  O2240   1.305   .     A
C2125  O2284   1.297   .     A
C2126  C2127   1.524   .     S
C2126  H2388   1.098   .     S
C2126  H2389   1.096   .     S
C2127  H2178   1.102   .     S
C2127  H2179   1.096   .     S
C2127  C2128   1.529   .     S
C2128  H2175   1.111   .     S
C2128  H2177   1.111   .     S
C2128  H2176   1.109   .     S
C2129  H2188   1.080   .     S
C2129  H2189   1.100   .     S
C2129  C2130   1.535   .     S
C2130  C2131   1.528   .     S
C2130  H2187   1.104   .     S
C2130  H2186   1.103   .     S
C2131  H2182   1.111   .     S
C2131  H2185   1.110   .     S
C2131  H2184   1.109   .     S
C2132  H2196   1.083   .     S
C2132  C2133   1.539   .     S
C2132  H2197   1.097   .     S
C2133  C2134   1.532   .     S
C2133  H2193   1.105   .     S
C2133  H2195   1.098   .     S
C2134  H2190   1.109   .     S
C2134  H2192   1.107   .     S
C2134  H2191   1.107   .     S
C2135  H2203   1.084   .     S
C2135  C2137   1.540   .     S
C2135  H2204   1.101   .     S
C2136  O2239   1.290   .     A
C2136  O2238   1.327   .     A
C2137  H2202   1.106   .     S
C2137  C2138   1.531   .     S
C2137  H2201   1.105   .     S
C2138  H2198   1.109   .     S
C2138  H2199   1.109   .     S
C2138  H2200   1.104   .     S
C2139  H2211   1.093   .     S
C2139  C2140   1.541   .     S
C2139  H2212   1.096   .     S
C2140  H2210   1.101   .     S
C2140  C2141   1.529   .     S
C2140  H2209   1.094   .     S
C2141  H2206   1.111   .     S
C2141  H2207   1.108   .     S
C2141  H2208   1.110   .     S
C2142  O2245   1.219   .     D
C2142  O2246   1.400   .     S
C2143  O2249   1.398   .     S
C2143  O2247   1.220   .     D
C2144  O2251   1.400   .     S
C2144  O2250   1.220   .     D
C2145  O2252   1.219   .     D
C2145  O2253   1.397   .     S
C2146  O2255   1.399   .     S
C2146  O2254   1.221   .     D
C2147  O2241   1.286   .     A
C2147  O2244   1.328   .     A
C2148  O2256   1.222   .     D
C2148  O2257   1.398   .     S
C2149  O2260   1.399   .     S
C2149  O2258   1.218   .     D
C2150  O2262   1.397   .     S
C2150  O2261   1.219   .     D
C2151  O2263   1.221   .     D
C2151  O2264   1.398   .     S
C2152  O2266   1.399   .     S
C2152  O2265   1.221   .     D
C2153  O2267   1.223   .     D
C2153  O2268   1.395   .     S
C2154  O2269   1.222   .     D
C2154  O2271   1.395   .     S
C2155  O2273   1.398   .     S
C2155  O2272   1.220   .     D
C2156  O2275   1.396   .     S
C2156  O2274   1.222   .     D
C2157  O2276   1.221   .     D
C2157  O2277   1.398   .     S
C2158  O2242   1.324   .     A
C2158  O2243   1.290   .     A
C2159  O2278   1.216   .     D
C2159  O2279   1.398   .     S
C2160  C1460   1.443   1_455 S
C2160  N2234   1.394   .     S
H2163  C2328   1.104   .     S
H2164  C2328   1.099   .     S
H2170  C2331   1.102   1_455 S
H2171  C2331   1.100   1_455 S
H2180  C2334   1.098   1_455 S
H2181  C2334   1.096   1_455 S
H2194  C2325   1.105   .     S
H2205  C2325   1.097   .     S
H2213  O2246   1.014   .     S
H2214  O2249   1.010   .     S
H2215  O2251   1.014   .     S
H2217  O2253   1.014   .     S
H2218  O2255   1.014   .     S
H2219  O2257   1.011   .     S
H2220  O2260   1.013   .     S
H2221  O2262   1.013   .     S
H2222  O2264   1.012   .     S
H2223  O2266   1.014   .     S
H2224  O2268   1.010   .     S
H2226  O2273   1.014   .     S
H2228  O1859   1.012   1_565 S
H2229  O2277   1.010   .     S
H2230  O2279   1.013   .     S
N2233  C2292   1.378   1_455 A
N2233  Zn2285  2.056   .     S
N2234  C2291   1.385   1_455 A
N2234  Zn2286  2.056   .     S
N2235  Zn2287  2.056   .     S
N2236  Zn2288  2.056   .     S
O2237  Zn2285  1.998   .     S
O2238  Zn2288  1.998   .     S
O2239  Zn2287  2.007   .     S
O2240  Zn1872  2.007   1_565 S
O2241  Zn1872  1.999   1_565 S
O2242  Zn2287  1.999   .     S
O2243  Zn2288  1.991   .     S
O2244  Zn1871  1.991   1_565 S
O2248  Zn2494  1.998   .     S
O2259  Zn2493  2.007   .     S
O2270  Zn2286  2.007   .     S
O2271  H1809   1.011   1_565 S
O2280  Zn2494  1.999   .     S
O2281  Zn2285  1.999   .     S
O2282  Zn2286  1.991   .     S
O2283  Zn2493  1.991   .     S
O2284  Zn1871  1.998   1_565 S
Zn2285 O2467   2.007   1_455 S
Zn2285 O2491   1.991   1_455 S
Zn2286 O2488   1.999   1_455 S
Zn2286 O2456   1.998   1_455 S
C2289  O2478   1.292   .     A
C2289  O2445   1.327   .     A
C2289  C2318   1.461   .     S
C2290  C2327   1.517   .     S
C2290  C419    1.431   1_556 S
C2290  N2441   1.381   .     S
C2291  C2330   1.519   .     S
C2291  N2234   1.385   1_655 A
C2291  C1250   1.431   1_655 S
C2292  C2334   1.523   .     S
C2292  N2233   1.378   1_655 A
C2292  C496    1.443   1_656 S
C2293  C2337   1.534   .     S
C2293  N2444   1.381   .     A
C2294  C2340   1.526   .     S
C2294  C631    1.448   1_556 S
C2294  N2027   1.386   1_565 S
C2295  C2343   1.522   .     S
C2295  N2028   1.382   1_565 S
C2296  N2443   1.394   .     A
C2296  C2347   1.532   .     S
C2296  C629    1.447   1_556 S
C2297  C2350   1.495   .     S
C2297  C2308   1.388   .     A
C2297  C2316   1.402   .     A
C2298  C2315   1.421   .     A
C2298  C2351   1.482   .     S
C2298  C2309   1.393   .     A
C2299  C2306   1.389   .     A
C2299  C2352   1.495   .     S
C2299  C2315   1.402   .     A
C2300  C2317   1.448   .     S
C2300  O2456   1.294   .     A
C2300  O2467   1.320   .     A
C2301  C2307   1.394   .     A
C2301  C2353   1.498   .     S
C2301  C2316   1.424   .     A
C2302  C2318   1.401   .     A
C2302  C2354   1.498   .     S
C2302  C2313   1.394   .     A
C2303  C2356   1.495   .     S
C2303  C2317   1.406   .     A
C2303  C2314   1.377   .     A
C2304  C2317   1.413   .     A
C2304  C2310   1.407   .     A
C2304  C2357   1.479   .     S
C2305  C2318   1.420   .     A
C2305  C2312   1.392   .     A
C2305  C2358   1.491   .     S
C2306  C2320   1.414   .     A
C2306  C2359   1.500   .     S
C2307  C2319   1.396   .     A
C2307  C2360   1.500   .     S
C2308  C2361   1.500   .     S
C2308  C2319   1.416   .     A
C2309  C2320   1.389   .     A
C2309  C2362   1.485   .     S
C2310  C2323   1.416   .     A
C2310  C2363   1.496   .     S
C2311  O2491   1.290   .     A
C2311  C2316   1.458   .     S
C2311  O2488   1.329   .     A
C2312  C2364   1.486   .     S
C2312  C2321   1.395   .     A
C2313  C2365   1.504   .     S
C2313  C2321   1.421   .     A
C2314  C2367   1.491   .     S
C2314  C2323   1.405   .     A
C2315  C2322   1.458   .     S
C2319  C2366   1.450   .     S
C2320  C2355   1.449   .     S
C2321  C2344   1.454   .     S
C2322  O2489   1.293   .     A
C2322  O2490   1.325   .     A
C2323  C2333   1.426   .     S
C2324  C2325   1.533   .     S
C2324  H2424   1.096   .     S
C2324  C2368   1.521   .     S
C2324  H2435   1.101   .     S
C2325  C2326   1.523   .     S
C2326  H2391   1.108   .     S
C2326  H2380   1.110   .     S
C2326  H2369   1.106   .     S
C2327  C2328   1.533   .     S
C2327  H2373   1.099   .     S
C2327  H2374   1.103   .     S
C2328  C2329   1.521   .     S
C2329  H2440   1.111   .     S
C2329  H2439   1.106   .     S
C2329  H2370   1.110   .     S
C2330  H2381   1.098   .     S
C2330  C2331   1.533   .     S
C2330  H2382   1.102   .     S
C2331  C2332   1.519   .     S
C2331  H2170   1.102   1_655 S
C2331  H2171   1.100   1_655 S
C2332  H2375   1.103   .     S
C2332  H2376   1.110   .     S
C2332  H2377   1.110   .     S
C2333  O2448   1.305   .     A
C2333  O2492   1.297   .     A
C2334  C2335   1.524   .     S
C2334  H2180   1.098   1_655 S
C2334  H2181   1.096   1_655 S
C2335  H2386   1.102   .     S
C2335  H2387   1.096   .     S
C2335  C2336   1.529   .     S
C2336  H2383   1.111   .     S
C2336  H2385   1.111   .     S
C2336  H2384   1.109   .     S
C2337  H2396   1.080   .     S
C2337  H2397   1.100   .     S
C2337  C2338   1.535   .     S
C2338  C2339   1.528   .     S
C2338  H2395   1.104   .     S
C2338  H2394   1.103   .     S
C2339  H2390   1.111   .     S
C2339  H2393   1.110   .     S
C2339  H2392   1.109   .     S
C2340  H2404   1.083   .     S
C2340  C2341   1.539   .     S
C2340  H2405   1.097   .     S
C2341  C2342   1.532   .     S
C2341  H2401   1.105   .     S
C2341  H2403   1.098   .     S
C2342  H2398   1.109   .     S
C2342  H2400   1.107   .     S
C2342  H2399   1.107   .     S
C2343  H2411   1.084   .     S
C2343  C2345   1.540   .     S
C2343  H2412   1.101   .     S
C2344  O2447   1.290   .     A
C2344  O2446   1.327   .     A
C2345  H2410   1.106   .     S
C2345  C2346   1.531   .     S
C2345  H2409   1.105   .     S
C2346  H2406   1.109   .     S
C2346  H2407   1.109   .     S
C2346  H2408   1.104   .     S
C2347  H2419   1.093   .     S
C2347  C2348   1.541   .     S
C2347  H2420   1.096   .     S
C2348  H2418   1.101   .     S
C2348  C2349   1.529   .     S
C2348  H2417   1.094   .     S
C2349  H2414   1.111   .     S
C2349  H2415   1.108   .     S
C2349  H2416   1.110   .     S
C2350  O2453   1.219   .     D
C2350  O2454   1.400   .     S
C2351  O2457   1.398   .     S
C2351  O2455   1.220   .     D
C2352  O2459   1.400   .     S
C2352  O2458   1.220   .     D
C2353  O2460   1.219   .     D
C2353  O2461   1.397   .     S
C2354  O2463   1.399   .     S
C2354  O2462   1.221   .     D
C2355  O2449   1.286   .     A
C2355  O2452   1.328   .     A
C2356  O2464   1.222   .     D
C2356  O2465   1.398   .     S
C2357  O2468   1.399   .     S
C2357  O2466   1.218   .     D
C2358  O2470   1.397   .     S
C2358  O2469   1.219   .     D
C2359  O2471   1.221   .     D
C2359  O2472   1.398   .     S
C2360  O2474   1.399   .     S
C2360  O2473   1.221   .     D
C2361  O2475   1.223   .     D
C2361  O2476   1.395   .     S
C2362  O2477   1.222   .     D
C2362  O2479   1.395   .     S
C2363  O2481   1.398   .     S
C2363  O2480   1.220   .     D
C2364  O2483   1.396   .     S
C2364  O2482   1.222   .     D
C2365  O2484   1.221   .     D
C2365  O2485   1.398   .     S
C2366  O2450   1.324   .     A
C2366  O2451   1.290   .     A
C2367  O2486   1.216   .     D
C2367  O2487   1.398   .     S
C2368  N2442   1.394   .     S
H2371  C2120   1.104   1_655 S
H2372  C2120   1.099   1_655 S
H2402  C2117   1.105   1_655 S
H2413  C2117   1.097   1_655 S
H2421  O2454   1.014   .     S
H2422  O2457   1.010   .     S
H2423  O2459   1.014   .     S
H2425  O2461   1.014   .     S
H2426  O2463   1.014   .     S
H2427  O2465   1.011   .     S
H2428  O2468   1.013   .     S
H2429  O2470   1.013   .     S
H2430  O2472   1.012   .     S
H2431  O2474   1.014   .     S
H2432  O2476   1.010   .     S
H2434  O2481   1.014   .     S
H2436  O2067   1.012   1_565 S
H2437  O2485   1.010   .     S
H2438  O2487   1.013   .     S
N2441  Zn2493  2.056   .     S
N2442  Zn2494  2.056   .     S
N2443  Zn2495  2.056   .     S
N2444  Zn2496  2.056   .     S
O2445  Zn2493  1.998   .     S
O2446  Zn2496  1.998   .     S
O2447  Zn2495  2.007   .     S
O2448  Zn2080  2.007   1_565 S
O2449  Zn2080  1.999   1_565 S
O2450  Zn2495  1.999   .     S
O2451  Zn2496  1.991   .     S
O2452  Zn2079  1.991   1_565 S
O2456  Zn2286  1.998   1_655 S
O2467  Zn2285  2.007   1_655 S
O2478  Zn2494  2.007   .     S
O2479  H2017   1.011   1_565 S
O2488  Zn2286  1.999   1_655 S
O2489  Zn2493  1.999   .     S
O2490  Zn2494  1.991   .     S
O2491  Zn2285  1.991   1_655 S
O2492  Zn2079  1.998   1_565 S
