data_str_m3_o1_o18_pcu_sym.88
_audit_creation_date              2020-01-03
_audit_creation_method            'Materials Studio'
_symmetry_space_group_name_H-M    'P1'
_symmetry_Int_Tables_number       1
_symmetry_cell_setting            triclinic
loop_
_symmetry_equiv_pos_as_xyz
  x,y,z
_cell_length_a                    29.6736
_cell_length_b                    32.3120
_cell_length_c                    30.6657
_cell_angle_alpha                 91.6599
_cell_angle_beta                  69.1881
_cell_angle_gamma                 90.3490
loop_
_atom_site_label
_atom_site_type_symbol
_atom_site_fract_x
_atom_site_fract_y
_atom_site_fract_z
_atom_site_U_iso_or_equiv
_atom_site_adp_type
_atom_site_occupancy
C1     C     0.16714   0.24665   0.24964   0.00000  Uiso   1.00
C2     C     0.12306   0.31132   0.26596   0.00000  Uiso   1.00
C3     C     0.16461   0.04267   0.25459   0.00000  Uiso   1.00
C4     C     0.16761   0.29091   0.25084   0.00000  Uiso   1.00
C5     C     0.31910   0.13953   0.22200   0.00000  Uiso   1.00
C6     C     0.01353   0.19319   0.27903   0.00000  Uiso   1.00
C7     C     0.03343   0.13910   0.22204   0.00000  Uiso   1.00
C8     C     0.29877   0.19334   0.27887   0.00000  Uiso   1.00
C9     C     0.13648   0.16590   0.33811   0.00000  Uiso   1.00
C10    C     0.19655   0.16960   0.16210   0.00000  Uiso   1.00
C11    C     0.11658   0.16662   0.38935   0.00000  Uiso   1.00
C12    C     0.16572   0.08680   0.25197   0.00000  Uiso   1.00
C13    C     0.21319   0.18348   0.11346   0.00000  Uiso   1.00
C14    C     0.05223   0.15485   0.46363   0.00000  Uiso   1.00
C15    C     0.26045   0.22868   0.05109   0.00000  Uiso   1.00
C16    C     0.06961   0.15263   0.41475   0.00000  Uiso   1.00
C17    C     0.25142   0.21178   0.09534   0.00000  Uiso   1.00
C18    C     0.14506   0.18287   0.41311   0.00000  Uiso   1.00
C19    C     0.18298   0.17526   0.08861   0.00000  Uiso   1.00
C20    C     0.12787   0.18745   0.46178   0.00000  Uiso   1.00
C21    C     0.18547   0.19807   0.04976   0.00000  Uiso   1.00
C22    C     0.08224   0.17022   0.48787   0.00000  Uiso   1.00
C23    C     0.10030   0.18349   0.05871   0.00000  Uiso   1.00
C24    C     0.22692   0.22232   0.02769   0.00000  Uiso   1.00
C25    C     0.15792   0.20477   0.48480   0.00000  Uiso   1.00
C26    C     0.14796   0.19493   0.03146   0.00000  Uiso   1.00
C27    C     0.02465   0.14903   0.06550   0.00000  Uiso   1.00
C28    C     0.27105   0.26794   0.46082   0.00000  Uiso   1.00
C29    C     0.08093   0.19453   0.10815   0.00000  Uiso   1.00
C30    C     0.19592   0.25814   0.42594   0.00000  Uiso   1.00
C31    C     0.25869   0.29460   0.22342   0.00000  Uiso   1.00
C32    C     0.07392   0.03980   0.28815   0.00000  Uiso   1.00
C33    C     0.30547   0.11017   0.19277   0.00000  Uiso   1.00
C34    C     0.19664   0.23235   0.46378   0.00000  Uiso   1.00
C35    C     0.02591   0.21990   0.31147   0.00000  Uiso   1.00
C36    C     0.06856   0.16904   0.03705   0.00000  Uiso   1.00
C37    C     0.23138   0.24068   0.48467   0.00000  Uiso   1.00
C38    C     0.21112   0.31324   0.23912   0.00000  Uiso   1.00
C39    C     0.12102   0.02050   0.26882   0.00000  Uiso   1.00
C40    C     0.20893   0.02224   0.24153   0.00000  Uiso   1.00
H41    H     0.15531   0.15207   0.10145   0.00000  Uiso   1.00
H42    H     0.33307   0.11122   0.47946   0.00000  Uiso   1.00
H43    H     0.30010   0.27928   0.05433   0.00000  Uiso   1.00
H44    H     0.33281   0.23643   0.02906   0.00000  Uiso   1.00
H45    H     0.07550   0.08752   0.21231   0.00000  Uiso   1.00
H46    H     0.09565   0.12281   0.16857   0.00000  Uiso   1.00
H47    H     0.27530   0.25109   0.30285   0.00000  Uiso   1.00
H48    H     0.26011   0.21445   0.34375   0.00000  Uiso   1.00
H49    H     0.18196   0.19042   0.39307   0.00000  Uiso   1.00
H50    H     0.24238   0.03920   0.23246   0.00000  Uiso   1.00
H51    H     0.08960   0.29419   0.27619   0.00000  Uiso   1.00
H52    H     0.29652   0.20263   0.13137   0.00000  Uiso   1.00
H53    H     0.25492   0.24084   0.15316   0.00000  Uiso   1.00
H54    H     0.02816   0.15653   0.37441   0.00000  Uiso   1.00
H55    H     0.05832   0.11041   0.36908   0.00000  Uiso   1.00
H56    H     0.31367   0.16023   0.47729   0.00000  Uiso   1.00
N57    N     0.04759   0.16668   0.25001   0.00000  Uiso   1.00
N58    N     0.19521   0.27889   0.39604   0.00000  Uiso   1.00
N59    N     0.29688   0.28002   0.21085   0.00000  Uiso   1.00
N60    N     0.03615   0.05507   0.30369   0.00000  Uiso   1.00
N61    N     0.29498   0.08624   0.16927   0.00000  Uiso   1.00
N62    N     0.03536   0.24121   0.33795   0.00000  Uiso   1.00
N63    N     0.06584   0.10878   0.19239   0.00000  Uiso   1.00
N64    N     0.26310   0.22071   0.30960   0.00000  Uiso   1.00
N65    N     0.28574   0.16666   0.24999   0.00000  Uiso   1.00
N66    N     0.32293   0.13254   0.08746   0.00000  Uiso   1.00
N67    N     0.30256   0.28968   0.44155   0.00000  Uiso   1.00
N68    N     0.27885   0.22701   0.12260   0.00000  Uiso   1.00
N69    N     0.03927   0.13401   0.39220   0.00000  Uiso   1.00
N70    N     0.00344   0.14228   0.48810   0.00000  Uiso   1.00
N71    N     0.30239   0.25392   0.03166   0.00000  Uiso   1.00
N72    N     0.06546   0.20413   0.14731   0.00000  Uiso   1.00
O73    O     0.12846   0.22775   0.25000   0.00000  Uiso   1.00
O74    O     0.20488   0.10558   0.24999   0.00000  Uiso   1.00
O75    O     0.20490   0.22774   0.25000   0.00000  Uiso   1.00
O76    O     0.12843   0.10559   0.25000   0.00000  Uiso   1.00
O77    O     0.10661   0.16667   0.31612   0.00000  Uiso   1.00
O78    O     0.22672   0.16666   0.18387   0.00000  Uiso   1.00
O79    O     0.18305   0.16666   0.31612   0.00000  Uiso   1.00
O80    O     0.15028   0.16667   0.18388   0.00000  Uiso   1.00
Zn81   Zn    0.11562   0.16667   0.25000   0.00000  Uiso   1.00
Zn82   Zn    0.21771   0.16666   0.25000   0.00000  Uiso   1.00
C83    C     0.50047   0.24665   0.24964   0.00000  Uiso   1.00
C84    C     0.45640   0.31132   0.26596   0.00000  Uiso   1.00
C85    C     0.49794   0.04267   0.25459   0.00000  Uiso   1.00
C86    C     0.50094   0.29091   0.25084   0.00000  Uiso   1.00
C87    C     0.65244   0.13953   0.22200   0.00000  Uiso   1.00
C88    C     0.34687   0.19319   0.27903   0.00000  Uiso   1.00
C89    C     0.36677   0.13910   0.22204   0.00000  Uiso   1.00
C90    C     0.63210   0.19334   0.27887   0.00000  Uiso   1.00
C91    C     0.46981   0.16590   0.33811   0.00000  Uiso   1.00
C92    C     0.52988   0.16960   0.16210   0.00000  Uiso   1.00
C93    C     0.44992   0.16662   0.38935   0.00000  Uiso   1.00
C94    C     0.49905   0.08680   0.25197   0.00000  Uiso   1.00
C95    C     0.54652   0.18348   0.11346   0.00000  Uiso   1.00
C96    C     0.38556   0.15485   0.46363   0.00000  Uiso   1.00
C97    C     0.59378   0.22868   0.05109   0.00000  Uiso   1.00
C98    C     0.40295   0.15263   0.41475   0.00000  Uiso   1.00
C99    C     0.58476   0.21178   0.09534   0.00000  Uiso   1.00
C100   C     0.47839   0.18287   0.41311   0.00000  Uiso   1.00
C101   C     0.51632   0.17526   0.08861   0.00000  Uiso   1.00
C102   C     0.46120   0.18745   0.46178   0.00000  Uiso   1.00
C103   C     0.51880   0.19807   0.04976   0.00000  Uiso   1.00
C104   C     0.41557   0.17022   0.48787   0.00000  Uiso   1.00
C105   C     0.43363   0.18349   0.05871   0.00000  Uiso   1.00
C106   C     0.56026   0.22232   0.02769   0.00000  Uiso   1.00
C107   C     0.49125   0.20477   0.48480   0.00000  Uiso   1.00
C108   C     0.48129   0.19493   0.03146   0.00000  Uiso   1.00
C109   C     0.35798   0.14903   0.06550   0.00000  Uiso   1.00
C110   C     0.60438   0.26794   0.46082   0.00000  Uiso   1.00
C111   C     0.41426   0.19453   0.10815   0.00000  Uiso   1.00
C112   C     0.52926   0.25814   0.42594   0.00000  Uiso   1.00
C113   C     0.59203   0.29460   0.22342   0.00000  Uiso   1.00
C114   C     0.40725   0.03980   0.28815   0.00000  Uiso   1.00
C115   C     0.63880   0.11017   0.19277   0.00000  Uiso   1.00
C116   C     0.52997   0.23235   0.46378   0.00000  Uiso   1.00
C117   C     0.35924   0.21990   0.31147   0.00000  Uiso   1.00
C118   C     0.40189   0.16904   0.03705   0.00000  Uiso   1.00
C119   C     0.56472   0.24068   0.48467   0.00000  Uiso   1.00
C120   C     0.54445   0.31324   0.23912   0.00000  Uiso   1.00
C121   C     0.45435   0.02050   0.26882   0.00000  Uiso   1.00
C122   C     0.54226   0.02224   0.24153   0.00000  Uiso   1.00
H123   H     0.48865   0.15207   0.10145   0.00000  Uiso   1.00
H124   H     0.66640   0.11122   0.47946   0.00000  Uiso   1.00
H125   H     0.63343   0.27928   0.05433   0.00000  Uiso   1.00
H126   H     0.66615   0.23643   0.02906   0.00000  Uiso   1.00
H127   H     0.40883   0.08752   0.21231   0.00000  Uiso   1.00
H128   H     0.42898   0.12281   0.16857   0.00000  Uiso   1.00
H129   H     0.60863   0.25109   0.30285   0.00000  Uiso   1.00
H130   H     0.59345   0.21445   0.34375   0.00000  Uiso   1.00
H131   H     0.51529   0.19042   0.39307   0.00000  Uiso   1.00
H132   H     0.57571   0.03920   0.23246   0.00000  Uiso   1.00
H133   H     0.42293   0.29419   0.27619   0.00000  Uiso   1.00
H134   H     0.62985   0.20263   0.13137   0.00000  Uiso   1.00
H135   H     0.58825   0.24084   0.15316   0.00000  Uiso   1.00
H136   H     0.36149   0.15653   0.37441   0.00000  Uiso   1.00
H137   H     0.39165   0.11041   0.36908   0.00000  Uiso   1.00
H138   H     0.64700   0.16023   0.47729   0.00000  Uiso   1.00
N139   N     0.38093   0.16668   0.25001   0.00000  Uiso   1.00
N140   N     0.52854   0.27889   0.39604   0.00000  Uiso   1.00
N141   N     0.63021   0.28002   0.21085   0.00000  Uiso   1.00
N142   N     0.36949   0.05507   0.30369   0.00000  Uiso   1.00
N143   N     0.62831   0.08624   0.16927   0.00000  Uiso   1.00
N144   N     0.36869   0.24121   0.33795   0.00000  Uiso   1.00
N145   N     0.39917   0.10878   0.19239   0.00000  Uiso   1.00
N146   N     0.59643   0.22071   0.30960   0.00000  Uiso   1.00
N147   N     0.61907   0.16666   0.24999   0.00000  Uiso   1.00
N148   N     0.65626   0.13254   0.08746   0.00000  Uiso   1.00
N149   N     0.63589   0.28968   0.44155   0.00000  Uiso   1.00
N150   N     0.61219   0.22701   0.12260   0.00000  Uiso   1.00
N151   N     0.37260   0.13401   0.39220   0.00000  Uiso   1.00
N152   N     0.33678   0.14228   0.48810   0.00000  Uiso   1.00
N153   N     0.63572   0.25392   0.03166   0.00000  Uiso   1.00
N154   N     0.39879   0.20413   0.14731   0.00000  Uiso   1.00
O155   O     0.46179   0.22775   0.25000   0.00000  Uiso   1.00
O156   O     0.53821   0.10558   0.24999   0.00000  Uiso   1.00
O157   O     0.53823   0.22774   0.25000   0.00000  Uiso   1.00
O158   O     0.46177   0.10559   0.25000   0.00000  Uiso   1.00
O159   O     0.43994   0.16667   0.31612   0.00000  Uiso   1.00
O160   O     0.56006   0.16666   0.18387   0.00000  Uiso   1.00
O161   O     0.51639   0.16666   0.31612   0.00000  Uiso   1.00
O162   O     0.48361   0.16667   0.18388   0.00000  Uiso   1.00
Zn163  Zn    0.44896   0.16667   0.25000   0.00000  Uiso   1.00
Zn164  Zn    0.55104   0.16666   0.25000   0.00000  Uiso   1.00
C165   C     0.83380   0.24665   0.24964   0.00000  Uiso   1.00
C166   C     0.78973   0.31132   0.26596   0.00000  Uiso   1.00
C167   C     0.83128   0.04267   0.25459   0.00000  Uiso   1.00
C168   C     0.83428   0.29091   0.25084   0.00000  Uiso   1.00
C169   C     0.98577   0.13953   0.22200   0.00000  Uiso   1.00
C170   C     0.68020   0.19319   0.27903   0.00000  Uiso   1.00
C171   C     0.70010   0.13910   0.22204   0.00000  Uiso   1.00
C172   C     0.96543   0.19334   0.27887   0.00000  Uiso   1.00
C173   C     0.80314   0.16590   0.33811   0.00000  Uiso   1.00
C174   C     0.86322   0.16960   0.16210   0.00000  Uiso   1.00
C175   C     0.78325   0.16662   0.38935   0.00000  Uiso   1.00
C176   C     0.83238   0.08680   0.25197   0.00000  Uiso   1.00
C177   C     0.87986   0.18348   0.11346   0.00000  Uiso   1.00
C178   C     0.71890   0.15485   0.46363   0.00000  Uiso   1.00
C179   C     0.92711   0.22868   0.05109   0.00000  Uiso   1.00
C180   C     0.73628   0.15263   0.41475   0.00000  Uiso   1.00
C181   C     0.91809   0.21178   0.09534   0.00000  Uiso   1.00
C182   C     0.81173   0.18287   0.41311   0.00000  Uiso   1.00
C183   C     0.84965   0.17526   0.08861   0.00000  Uiso   1.00
C184   C     0.79454   0.18745   0.46178   0.00000  Uiso   1.00
C185   C     0.85214   0.19807   0.04976   0.00000  Uiso   1.00
C186   C     0.74890   0.17022   0.48787   0.00000  Uiso   1.00
C187   C     0.76696   0.18349   0.05871   0.00000  Uiso   1.00
C188   C     0.89359   0.22232   0.02769   0.00000  Uiso   1.00
C189   C     0.82458   0.20477   0.48480   0.00000  Uiso   1.00
C190   C     0.81463   0.19493   0.03146   0.00000  Uiso   1.00
C191   C     0.69131   0.14903   0.06550   0.00000  Uiso   1.00
C192   C     0.93772   0.26794   0.46082   0.00000  Uiso   1.00
C193   C     0.74759   0.19453   0.10815   0.00000  Uiso   1.00
C194   C     0.86259   0.25814   0.42594   0.00000  Uiso   1.00
C195   C     0.92536   0.29460   0.22342   0.00000  Uiso   1.00
C196   C     0.74058   0.03980   0.28815   0.00000  Uiso   1.00
C197   C     0.97213   0.11017   0.19277   0.00000  Uiso   1.00
C198   C     0.86330   0.23235   0.46378   0.00000  Uiso   1.00
C199   C     0.69257   0.21990   0.31147   0.00000  Uiso   1.00
C200   C     0.73523   0.16904   0.03705   0.00000  Uiso   1.00
C201   C     0.89805   0.24068   0.48467   0.00000  Uiso   1.00
C202   C     0.87778   0.31324   0.23912   0.00000  Uiso   1.00
C203   C     0.78769   0.02050   0.26882   0.00000  Uiso   1.00
C204   C     0.87560   0.02224   0.24153   0.00000  Uiso   1.00
H205   H     0.82198   0.15207   0.10145   0.00000  Uiso   1.00
H206   H     0.99974   0.11122   0.47946   0.00000  Uiso   1.00
H207   H     0.96676   0.27928   0.05433   0.00000  Uiso   1.00
H208   H     0.99948   0.23643   0.02906   0.00000  Uiso   1.00
H209   H     0.74217   0.08752   0.21231   0.00000  Uiso   1.00
H210   H     0.76231   0.12281   0.16857   0.00000  Uiso   1.00
H211   H     0.94196   0.25109   0.30285   0.00000  Uiso   1.00
H212   H     0.92678   0.21445   0.34375   0.00000  Uiso   1.00
H213   H     0.84862   0.19042   0.39307   0.00000  Uiso   1.00
H214   H     0.90904   0.03920   0.23246   0.00000  Uiso   1.00
H215   H     0.75626   0.29419   0.27619   0.00000  Uiso   1.00
H216   H     0.96318   0.20263   0.13137   0.00000  Uiso   1.00
H217   H     0.92159   0.24084   0.15316   0.00000  Uiso   1.00
H218   H     0.69483   0.15653   0.37441   0.00000  Uiso   1.00
H219   H     0.72499   0.11041   0.36908   0.00000  Uiso   1.00
H220   H     0.98034   0.16023   0.47729   0.00000  Uiso   1.00
N221   N     0.71426   0.16668   0.25001   0.00000  Uiso   1.00
N222   N     0.86187   0.27889   0.39604   0.00000  Uiso   1.00
N223   N     0.96355   0.28002   0.21085   0.00000  Uiso   1.00
N224   N     0.70282   0.05507   0.30369   0.00000  Uiso   1.00
N225   N     0.96165   0.08624   0.16927   0.00000  Uiso   1.00
N226   N     0.70202   0.24121   0.33795   0.00000  Uiso   1.00
N227   N     0.73251   0.10878   0.19239   0.00000  Uiso   1.00
N228   N     0.92976   0.22071   0.30960   0.00000  Uiso   1.00
N229   N     0.95241   0.16666   0.24999   0.00000  Uiso   1.00
N230   N     0.98959   0.13254   0.08746   0.00000  Uiso   1.00
N231   N     0.96922   0.28968   0.44155   0.00000  Uiso   1.00
N232   N     0.94552   0.22701   0.12260   0.00000  Uiso   1.00
N233   N     0.70593   0.13401   0.39220   0.00000  Uiso   1.00
N234   N     0.67011   0.14228   0.48810   0.00000  Uiso   1.00
N235   N     0.96905   0.25392   0.03166   0.00000  Uiso   1.00
N236   N     0.73213   0.20413   0.14731   0.00000  Uiso   1.00
O237   O     0.79512   0.22775   0.25000   0.00000  Uiso   1.00
O238   O     0.87154   0.10558   0.24999   0.00000  Uiso   1.00
O239   O     0.87157   0.22774   0.25000   0.00000  Uiso   1.00
O240   O     0.79510   0.10559   0.25000   0.00000  Uiso   1.00
O241   O     0.77328   0.16667   0.31612   0.00000  Uiso   1.00
O242   O     0.89339   0.16666   0.18387   0.00000  Uiso   1.00
O243   O     0.84972   0.16666   0.31612   0.00000  Uiso   1.00
O244   O     0.81695   0.16667   0.18388   0.00000  Uiso   1.00
Zn245  Zn    0.78229   0.16667   0.25000   0.00000  Uiso   1.00
Zn246  Zn    0.88438   0.16666   0.25000   0.00000  Uiso   1.00
C247   C     0.16714   0.57999   0.24964   0.00000  Uiso   1.00
C248   C     0.12306   0.64466   0.26596   0.00000  Uiso   1.00
C249   C     0.16461   0.37601   0.25459   0.00000  Uiso   1.00
C250   C     0.16761   0.62424   0.25084   0.00000  Uiso   1.00
C251   C     0.31910   0.47286   0.22200   0.00000  Uiso   1.00
C252   C     0.01353   0.52653   0.27903   0.00000  Uiso   1.00
C253   C     0.03343   0.47243   0.22204   0.00000  Uiso   1.00
C254   C     0.29877   0.52667   0.27887   0.00000  Uiso   1.00
C255   C     0.13648   0.49923   0.33811   0.00000  Uiso   1.00
C256   C     0.19655   0.50294   0.16210   0.00000  Uiso   1.00
C257   C     0.11658   0.49995   0.38935   0.00000  Uiso   1.00
C258   C     0.16572   0.42013   0.25197   0.00000  Uiso   1.00
C259   C     0.21319   0.51681   0.11346   0.00000  Uiso   1.00
C260   C     0.05223   0.48818   0.46363   0.00000  Uiso   1.00
C261   C     0.26045   0.56202   0.05109   0.00000  Uiso   1.00
C262   C     0.06961   0.48597   0.41475   0.00000  Uiso   1.00
C263   C     0.25142   0.54511   0.09534   0.00000  Uiso   1.00
C264   C     0.14506   0.51620   0.41311   0.00000  Uiso   1.00
C265   C     0.18298   0.50859   0.08861   0.00000  Uiso   1.00
C266   C     0.12787   0.52079   0.46178   0.00000  Uiso   1.00
C267   C     0.18547   0.53140   0.04976   0.00000  Uiso   1.00
C268   C     0.08224   0.50356   0.48787   0.00000  Uiso   1.00
C269   C     0.10030   0.51682   0.05871   0.00000  Uiso   1.00
C270   C     0.22692   0.55566   0.02769   0.00000  Uiso   1.00
C271   C     0.15792   0.53810   0.48480   0.00000  Uiso   1.00
C272   C     0.14796   0.52826   0.03146   0.00000  Uiso   1.00
C273   C     0.02465   0.48237   0.06550   0.00000  Uiso   1.00
C274   C     0.27105   0.60127   0.46082   0.00000  Uiso   1.00
C275   C     0.08093   0.52786   0.10815   0.00000  Uiso   1.00
C276   C     0.19592   0.59148   0.42594   0.00000  Uiso   1.00
C277   C     0.25869   0.62794   0.22342   0.00000  Uiso   1.00
C278   C     0.07392   0.37314   0.28815   0.00000  Uiso   1.00
C279   C     0.30547   0.44351   0.19277   0.00000  Uiso   1.00
C280   C     0.19664   0.56568   0.46378   0.00000  Uiso   1.00
C281   C     0.02591   0.55324   0.31147   0.00000  Uiso   1.00
C282   C     0.06856   0.50237   0.03705   0.00000  Uiso   1.00
C283   C     0.23138   0.57402   0.48467   0.00000  Uiso   1.00
C284   C     0.21112   0.64657   0.23912   0.00000  Uiso   1.00
C285   C     0.12102   0.35383   0.26882   0.00000  Uiso   1.00
C286   C     0.20893   0.35557   0.24153   0.00000  Uiso   1.00
H287   H     0.15531   0.48540   0.10145   0.00000  Uiso   1.00
H288   H     0.33307   0.44455   0.47946   0.00000  Uiso   1.00
H289   H     0.30010   0.61262   0.05433   0.00000  Uiso   1.00
H290   H     0.33281   0.56977   0.02906   0.00000  Uiso   1.00
H291   H     0.07550   0.42085   0.21231   0.00000  Uiso   1.00
H292   H     0.09565   0.45614   0.16857   0.00000  Uiso   1.00
H293   H     0.27530   0.58442   0.30285   0.00000  Uiso   1.00
H294   H     0.26011   0.54778   0.34375   0.00000  Uiso   1.00
H295   H     0.18196   0.52375   0.39307   0.00000  Uiso   1.00
H296   H     0.24238   0.37254   0.23246   0.00000  Uiso   1.00
H297   H     0.08960   0.62753   0.27619   0.00000  Uiso   1.00
H298   H     0.29652   0.53596   0.13137   0.00000  Uiso   1.00
H299   H     0.25492   0.57417   0.15316   0.00000  Uiso   1.00
H300   H     0.02816   0.48986   0.37441   0.00000  Uiso   1.00
H301   H     0.05832   0.44375   0.36908   0.00000  Uiso   1.00
H302   H     0.31367   0.49356   0.47729   0.00000  Uiso   1.00
N303   N     0.04759   0.50001   0.25001   0.00000  Uiso   1.00
N304   N     0.19521   0.61222   0.39604   0.00000  Uiso   1.00
N305   N     0.29688   0.61335   0.21085   0.00000  Uiso   1.00
N306   N     0.03615   0.38841   0.30369   0.00000  Uiso   1.00
N307   N     0.29498   0.41958   0.16927   0.00000  Uiso   1.00
N308   N     0.03536   0.57454   0.33795   0.00000  Uiso   1.00
N309   N     0.06584   0.44212   0.19239   0.00000  Uiso   1.00
N310   N     0.26310   0.55404   0.30960   0.00000  Uiso   1.00
N311   N     0.28574   0.49999   0.24999   0.00000  Uiso   1.00
N312   N     0.32293   0.46587   0.08746   0.00000  Uiso   1.00
N313   N     0.30256   0.62301   0.44155   0.00000  Uiso   1.00
N314   N     0.27885   0.56035   0.12260   0.00000  Uiso   1.00
N315   N     0.03927   0.46734   0.39220   0.00000  Uiso   1.00
N316   N     0.00344   0.47561   0.48810   0.00000  Uiso   1.00
N317   N     0.30239   0.58726   0.03166   0.00000  Uiso   1.00
N318   N     0.06546   0.53747   0.14731   0.00000  Uiso   1.00
O319   O     0.12846   0.56108   0.25000   0.00000  Uiso   1.00
O320   O     0.20488   0.43892   0.24999   0.00000  Uiso   1.00
O321   O     0.20490   0.56107   0.25000   0.00000  Uiso   1.00
O322   O     0.12843   0.43893   0.25000   0.00000  Uiso   1.00
O323   O     0.10661   0.50001   0.31612   0.00000  Uiso   1.00
O324   O     0.22672   0.49999   0.18387   0.00000  Uiso   1.00
O325   O     0.18305   0.50000   0.31612   0.00000  Uiso   1.00
O326   O     0.15028   0.50000   0.18388   0.00000  Uiso   1.00
Zn327  Zn    0.11562   0.50001   0.25000   0.00000  Uiso   1.00
Zn328  Zn    0.21771   0.49999   0.25000   0.00000  Uiso   1.00
C329   C     0.50047   0.57999   0.24964   0.00000  Uiso   1.00
C330   C     0.45640   0.64466   0.26596   0.00000  Uiso   1.00
C331   C     0.49794   0.37601   0.25459   0.00000  Uiso   1.00
C332   C     0.50094   0.62424   0.25084   0.00000  Uiso   1.00
C333   C     0.65244   0.47286   0.22200   0.00000  Uiso   1.00
C334   C     0.34687   0.52653   0.27903   0.00000  Uiso   1.00
C335   C     0.36677   0.47243   0.22204   0.00000  Uiso   1.00
C336   C     0.63210   0.52667   0.27887   0.00000  Uiso   1.00
C337   C     0.46981   0.49923   0.33811   0.00000  Uiso   1.00
C338   C     0.52988   0.50294   0.16210   0.00000  Uiso   1.00
C339   C     0.44992   0.49995   0.38935   0.00000  Uiso   1.00
C340   C     0.49905   0.42013   0.25197   0.00000  Uiso   1.00
C341   C     0.54652   0.51681   0.11346   0.00000  Uiso   1.00
C342   C     0.38556   0.48818   0.46363   0.00000  Uiso   1.00
C343   C     0.59378   0.56202   0.05109   0.00000  Uiso   1.00
C344   C     0.40295   0.48597   0.41475   0.00000  Uiso   1.00
C345   C     0.58476   0.54511   0.09534   0.00000  Uiso   1.00
C346   C     0.47839   0.51620   0.41311   0.00000  Uiso   1.00
C347   C     0.51632   0.50859   0.08861   0.00000  Uiso   1.00
C348   C     0.46120   0.52079   0.46178   0.00000  Uiso   1.00
C349   C     0.51880   0.53140   0.04976   0.00000  Uiso   1.00
C350   C     0.41557   0.50356   0.48787   0.00000  Uiso   1.00
C351   C     0.43363   0.51682   0.05871   0.00000  Uiso   1.00
C352   C     0.56026   0.55566   0.02769   0.00000  Uiso   1.00
C353   C     0.49125   0.53810   0.48480   0.00000  Uiso   1.00
C354   C     0.48129   0.52826   0.03146   0.00000  Uiso   1.00
C355   C     0.35798   0.48237   0.06550   0.00000  Uiso   1.00
C356   C     0.60438   0.60127   0.46082   0.00000  Uiso   1.00
C357   C     0.41426   0.52786   0.10815   0.00000  Uiso   1.00
C358   C     0.52926   0.59148   0.42594   0.00000  Uiso   1.00
C359   C     0.59203   0.62794   0.22342   0.00000  Uiso   1.00
C360   C     0.40725   0.37314   0.28815   0.00000  Uiso   1.00
C361   C     0.63880   0.44351   0.19277   0.00000  Uiso   1.00
C362   C     0.52997   0.56568   0.46378   0.00000  Uiso   1.00
C363   C     0.35924   0.55324   0.31147   0.00000  Uiso   1.00
C364   C     0.40189   0.50237   0.03705   0.00000  Uiso   1.00
C365   C     0.56472   0.57402   0.48467   0.00000  Uiso   1.00
C366   C     0.54445   0.64657   0.23912   0.00000  Uiso   1.00
C367   C     0.45435   0.35383   0.26882   0.00000  Uiso   1.00
C368   C     0.54226   0.35557   0.24153   0.00000  Uiso   1.00
H369   H     0.48865   0.48540   0.10145   0.00000  Uiso   1.00
H370   H     0.66640   0.44455   0.47946   0.00000  Uiso   1.00
H371   H     0.63343   0.61262   0.05433   0.00000  Uiso   1.00
H372   H     0.66615   0.56977   0.02906   0.00000  Uiso   1.00
H373   H     0.40883   0.42085   0.21231   0.00000  Uiso   1.00
H374   H     0.42898   0.45614   0.16857   0.00000  Uiso   1.00
H375   H     0.60863   0.58442   0.30285   0.00000  Uiso   1.00
H376   H     0.59345   0.54778   0.34375   0.00000  Uiso   1.00
H377   H     0.51529   0.52375   0.39307   0.00000  Uiso   1.00
H378   H     0.57571   0.37254   0.23246   0.00000  Uiso   1.00
H379   H     0.42293   0.62753   0.27619   0.00000  Uiso   1.00
H380   H     0.62985   0.53596   0.13137   0.00000  Uiso   1.00
H381   H     0.58825   0.57417   0.15316   0.00000  Uiso   1.00
H382   H     0.36149   0.48986   0.37441   0.00000  Uiso   1.00
H383   H     0.39165   0.44375   0.36908   0.00000  Uiso   1.00
H384   H     0.64700   0.49356   0.47729   0.00000  Uiso   1.00
N385   N     0.38093   0.50001   0.25001   0.00000  Uiso   1.00
N386   N     0.52854   0.61222   0.39604   0.00000  Uiso   1.00
N387   N     0.63021   0.61335   0.21085   0.00000  Uiso   1.00
N388   N     0.36949   0.38841   0.30369   0.00000  Uiso   1.00
N389   N     0.62831   0.41958   0.16927   0.00000  Uiso   1.00
N390   N     0.36869   0.57454   0.33795   0.00000  Uiso   1.00
N391   N     0.39917   0.44212   0.19239   0.00000  Uiso   1.00
N392   N     0.59643   0.55404   0.30960   0.00000  Uiso   1.00
N393   N     0.61907   0.49999   0.24999   0.00000  Uiso   1.00
N394   N     0.65626   0.46587   0.08746   0.00000  Uiso   1.00
N395   N     0.63589   0.62301   0.44155   0.00000  Uiso   1.00
N396   N     0.61219   0.56035   0.12260   0.00000  Uiso   1.00
N397   N     0.37260   0.46734   0.39220   0.00000  Uiso   1.00
N398   N     0.33678   0.47561   0.48810   0.00000  Uiso   1.00
N399   N     0.63572   0.58726   0.03166   0.00000  Uiso   1.00
N400   N     0.39879   0.53747   0.14731   0.00000  Uiso   1.00
O401   O     0.46179   0.56108   0.25000   0.00000  Uiso   1.00
O402   O     0.53821   0.43892   0.24999   0.00000  Uiso   1.00
O403   O     0.53823   0.56107   0.25000   0.00000  Uiso   1.00
O404   O     0.46177   0.43893   0.25000   0.00000  Uiso   1.00
O405   O     0.43994   0.50001   0.31612   0.00000  Uiso   1.00
O406   O     0.56006   0.49999   0.18387   0.00000  Uiso   1.00
O407   O     0.51639   0.50000   0.31612   0.00000  Uiso   1.00
O408   O     0.48361   0.50000   0.18388   0.00000  Uiso   1.00
Zn409  Zn    0.44896   0.50001   0.25000   0.00000  Uiso   1.00
Zn410  Zn    0.55104   0.49999   0.25000   0.00000  Uiso   1.00
C411   C     0.83380   0.57999   0.24964   0.00000  Uiso   1.00
C412   C     0.78973   0.64466   0.26596   0.00000  Uiso   1.00
C413   C     0.83128   0.37601   0.25459   0.00000  Uiso   1.00
C414   C     0.83428   0.62424   0.25084   0.00000  Uiso   1.00
C415   C     0.98577   0.47286   0.22200   0.00000  Uiso   1.00
C416   C     0.68020   0.52653   0.27903   0.00000  Uiso   1.00
C417   C     0.70010   0.47243   0.22204   0.00000  Uiso   1.00
C418   C     0.96543   0.52667   0.27887   0.00000  Uiso   1.00
C419   C     0.80314   0.49923   0.33811   0.00000  Uiso   1.00
C420   C     0.86322   0.50294   0.16210   0.00000  Uiso   1.00
C421   C     0.78325   0.49995   0.38935   0.00000  Uiso   1.00
C422   C     0.83238   0.42013   0.25197   0.00000  Uiso   1.00
C423   C     0.87986   0.51681   0.11346   0.00000  Uiso   1.00
C424   C     0.71890   0.48818   0.46363   0.00000  Uiso   1.00
C425   C     0.92711   0.56202   0.05109   0.00000  Uiso   1.00
C426   C     0.73628   0.48597   0.41475   0.00000  Uiso   1.00
C427   C     0.91809   0.54511   0.09534   0.00000  Uiso   1.00
C428   C     0.81173   0.51620   0.41311   0.00000  Uiso   1.00
C429   C     0.84965   0.50859   0.08861   0.00000  Uiso   1.00
C430   C     0.79454   0.52079   0.46178   0.00000  Uiso   1.00
C431   C     0.85214   0.53140   0.04976   0.00000  Uiso   1.00
C432   C     0.74890   0.50356   0.48787   0.00000  Uiso   1.00
C433   C     0.76696   0.51682   0.05871   0.00000  Uiso   1.00
C434   C     0.89359   0.55566   0.02769   0.00000  Uiso   1.00
C435   C     0.82458   0.53810   0.48480   0.00000  Uiso   1.00
C436   C     0.81463   0.52826   0.03146   0.00000  Uiso   1.00
C437   C     0.69131   0.48237   0.06550   0.00000  Uiso   1.00
C438   C     0.93772   0.60127   0.46082   0.00000  Uiso   1.00
C439   C     0.74759   0.52786   0.10815   0.00000  Uiso   1.00
C440   C     0.86259   0.59148   0.42594   0.00000  Uiso   1.00
C441   C     0.92536   0.62794   0.22342   0.00000  Uiso   1.00
C442   C     0.74058   0.37314   0.28815   0.00000  Uiso   1.00
C443   C     0.97213   0.44351   0.19277   0.00000  Uiso   1.00
C444   C     0.86330   0.56568   0.46378   0.00000  Uiso   1.00
C445   C     0.69257   0.55324   0.31147   0.00000  Uiso   1.00
C446   C     0.73523   0.50237   0.03705   0.00000  Uiso   1.00
C447   C     0.89805   0.57402   0.48467   0.00000  Uiso   1.00
C448   C     0.87778   0.64657   0.23912   0.00000  Uiso   1.00
C449   C     0.78769   0.35383   0.26882   0.00000  Uiso   1.00
C450   C     0.87560   0.35557   0.24153   0.00000  Uiso   1.00
H451   H     0.82198   0.48540   0.10145   0.00000  Uiso   1.00
H452   H     0.99974   0.44455   0.47946   0.00000  Uiso   1.00
H453   H     0.96676   0.61262   0.05433   0.00000  Uiso   1.00
H454   H     0.99948   0.56977   0.02906   0.00000  Uiso   1.00
H455   H     0.74217   0.42085   0.21231   0.00000  Uiso   1.00
H456   H     0.76231   0.45614   0.16857   0.00000  Uiso   1.00
H457   H     0.94196   0.58442   0.30285   0.00000  Uiso   1.00
H458   H     0.92678   0.54778   0.34375   0.00000  Uiso   1.00
H459   H     0.84862   0.52375   0.39307   0.00000  Uiso   1.00
H460   H     0.90904   0.37254   0.23246   0.00000  Uiso   1.00
H461   H     0.75626   0.62753   0.27619   0.00000  Uiso   1.00
H462   H     0.96318   0.53596   0.13137   0.00000  Uiso   1.00
H463   H     0.92159   0.57417   0.15316   0.00000  Uiso   1.00
H464   H     0.69483   0.48986   0.37441   0.00000  Uiso   1.00
H465   H     0.72499   0.44375   0.36908   0.00000  Uiso   1.00
H466   H     0.98034   0.49356   0.47729   0.00000  Uiso   1.00
N467   N     0.71426   0.50001   0.25001   0.00000  Uiso   1.00
N468   N     0.86187   0.61222   0.39604   0.00000  Uiso   1.00
N469   N     0.96355   0.61335   0.21085   0.00000  Uiso   1.00
N470   N     0.70282   0.38841   0.30369   0.00000  Uiso   1.00
N471   N     0.96165   0.41958   0.16927   0.00000  Uiso   1.00
N472   N     0.70202   0.57454   0.33795   0.00000  Uiso   1.00
N473   N     0.73251   0.44212   0.19239   0.00000  Uiso   1.00
N474   N     0.92976   0.55404   0.30960   0.00000  Uiso   1.00
N475   N     0.95241   0.49999   0.24999   0.00000  Uiso   1.00
N476   N     0.98959   0.46587   0.08746   0.00000  Uiso   1.00
N477   N     0.96922   0.62301   0.44155   0.00000  Uiso   1.00
N478   N     0.94552   0.56035   0.12260   0.00000  Uiso   1.00
N479   N     0.70593   0.46734   0.39220   0.00000  Uiso   1.00
N480   N     0.67011   0.47561   0.48810   0.00000  Uiso   1.00
N481   N     0.96905   0.58726   0.03166   0.00000  Uiso   1.00
N482   N     0.73213   0.53747   0.14731   0.00000  Uiso   1.00
O483   O     0.79512   0.56108   0.25000   0.00000  Uiso   1.00
O484   O     0.87154   0.43892   0.24999   0.00000  Uiso   1.00
O485   O     0.87157   0.56107   0.25000   0.00000  Uiso   1.00
O486   O     0.79510   0.43893   0.25000   0.00000  Uiso   1.00
O487   O     0.77328   0.50001   0.31612   0.00000  Uiso   1.00
O488   O     0.89339   0.49999   0.18387   0.00000  Uiso   1.00
O489   O     0.84972   0.50000   0.31612   0.00000  Uiso   1.00
O490   O     0.81695   0.50000   0.18388   0.00000  Uiso   1.00
Zn491  Zn    0.78229   0.50001   0.25000   0.00000  Uiso   1.00
Zn492  Zn    0.88438   0.49999   0.25000   0.00000  Uiso   1.00
C493   C     0.16714   0.91332   0.24964   0.00000  Uiso   1.00
C494   C     0.12306   0.97799   0.26596   0.00000  Uiso   1.00
C495   C     0.16461   0.70934   0.25459   0.00000  Uiso   1.00
C496   C     0.16761   0.95757   0.25084   0.00000  Uiso   1.00
C497   C     0.31910   0.80619   0.22200   0.00000  Uiso   1.00
C498   C     0.01353   0.85986   0.27903   0.00000  Uiso   1.00
C499   C     0.03343   0.80576   0.22204   0.00000  Uiso   1.00
C500   C     0.29877   0.86000   0.27887   0.00000  Uiso   1.00
C501   C     0.13648   0.83257   0.33811   0.00000  Uiso   1.00
C502   C     0.19655   0.83627   0.16210   0.00000  Uiso   1.00
C503   C     0.11658   0.83329   0.38935   0.00000  Uiso   1.00
C504   C     0.16572   0.75346   0.25197   0.00000  Uiso   1.00
C505   C     0.21319   0.85015   0.11346   0.00000  Uiso   1.00
C506   C     0.05223   0.82152   0.46363   0.00000  Uiso   1.00
C507   C     0.26045   0.89535   0.05109   0.00000  Uiso   1.00
C508   C     0.06961   0.81930   0.41475   0.00000  Uiso   1.00
C509   C     0.25142   0.87844   0.09534   0.00000  Uiso   1.00
C510   C     0.14506   0.84953   0.41311   0.00000  Uiso   1.00
C511   C     0.18298   0.84192   0.08861   0.00000  Uiso   1.00
C512   C     0.12787   0.85412   0.46178   0.00000  Uiso   1.00
C513   C     0.18547   0.86474   0.04976   0.00000  Uiso   1.00
C514   C     0.08224   0.83689   0.48787   0.00000  Uiso   1.00
C515   C     0.10030   0.85016   0.05871   0.00000  Uiso   1.00
C516   C     0.22692   0.88899   0.02769   0.00000  Uiso   1.00
C517   C     0.15792   0.87144   0.48480   0.00000  Uiso   1.00
C518   C     0.14796   0.86160   0.03146   0.00000  Uiso   1.00
C519   C     0.02465   0.81570   0.06550   0.00000  Uiso   1.00
C520   C     0.27105   0.93460   0.46082   0.00000  Uiso   1.00
C521   C     0.08093   0.86120   0.10815   0.00000  Uiso   1.00
C522   C     0.19592   0.92481   0.42594   0.00000  Uiso   1.00
C523   C     0.25869   0.96127   0.22342   0.00000  Uiso   1.00
C524   C     0.07392   0.70647   0.28815   0.00000  Uiso   1.00
C525   C     0.30547   0.77684   0.19277   0.00000  Uiso   1.00
C526   C     0.19664   0.89901   0.46378   0.00000  Uiso   1.00
C527   C     0.02591   0.88657   0.31147   0.00000  Uiso   1.00
C528   C     0.06856   0.83571   0.03705   0.00000  Uiso   1.00
C529   C     0.23138   0.90735   0.48467   0.00000  Uiso   1.00
C530   C     0.21112   0.97990   0.23912   0.00000  Uiso   1.00
C531   C     0.12102   0.68716   0.26882   0.00000  Uiso   1.00
C532   C     0.20893   0.68890   0.24153   0.00000  Uiso   1.00
H533   H     0.15531   0.81873   0.10145   0.00000  Uiso   1.00
H534   H     0.33307   0.77789   0.47946   0.00000  Uiso   1.00
H535   H     0.30010   0.94595   0.05433   0.00000  Uiso   1.00
H536   H     0.33281   0.90310   0.02906   0.00000  Uiso   1.00
H537   H     0.07550   0.75419   0.21231   0.00000  Uiso   1.00
H538   H     0.09565   0.78947   0.16857   0.00000  Uiso   1.00
H539   H     0.27530   0.91776   0.30285   0.00000  Uiso   1.00
H540   H     0.26011   0.88111   0.34375   0.00000  Uiso   1.00
H541   H     0.18196   0.85709   0.39307   0.00000  Uiso   1.00
H542   H     0.24238   0.70587   0.23246   0.00000  Uiso   1.00
H543   H     0.08960   0.96086   0.27619   0.00000  Uiso   1.00
H544   H     0.29652   0.86929   0.13137   0.00000  Uiso   1.00
H545   H     0.25492   0.90750   0.15316   0.00000  Uiso   1.00
H546   H     0.02816   0.82319   0.37441   0.00000  Uiso   1.00
H547   H     0.05832   0.77708   0.36908   0.00000  Uiso   1.00
H548   H     0.31367   0.82689   0.47729   0.00000  Uiso   1.00
N549   N     0.04759   0.83334   0.25001   0.00000  Uiso   1.00
N550   N     0.19521   0.94555   0.39604   0.00000  Uiso   1.00
N551   N     0.29688   0.94669   0.21085   0.00000  Uiso   1.00
N552   N     0.03615   0.72174   0.30369   0.00000  Uiso   1.00
N553   N     0.29498   0.75291   0.16927   0.00000  Uiso   1.00
N554   N     0.03536   0.90787   0.33795   0.00000  Uiso   1.00
N555   N     0.06584   0.77545   0.19239   0.00000  Uiso   1.00
N556   N     0.26310   0.88737   0.30960   0.00000  Uiso   1.00
N557   N     0.28574   0.83332   0.24999   0.00000  Uiso   1.00
N558   N     0.32293   0.79921   0.08746   0.00000  Uiso   1.00
N559   N     0.30256   0.95635   0.44155   0.00000  Uiso   1.00
N560   N     0.27885   0.89368   0.12260   0.00000  Uiso   1.00
N561   N     0.03927   0.80067   0.39220   0.00000  Uiso   1.00
N562   N     0.00344   0.80895   0.48810   0.00000  Uiso   1.00
N563   N     0.30239   0.92059   0.03166   0.00000  Uiso   1.00
N564   N     0.06546   0.87080   0.14731   0.00000  Uiso   1.00
O565   O     0.12846   0.89442   0.25000   0.00000  Uiso   1.00
O566   O     0.20488   0.77225   0.24999   0.00000  Uiso   1.00
O567   O     0.20490   0.89441   0.25000   0.00000  Uiso   1.00
O568   O     0.12843   0.77226   0.25000   0.00000  Uiso   1.00
O569   O     0.10661   0.83334   0.31612   0.00000  Uiso   1.00
O570   O     0.22672   0.83333   0.18387   0.00000  Uiso   1.00
O571   O     0.18305   0.83333   0.31612   0.00000  Uiso   1.00
O572   O     0.15028   0.83334   0.18388   0.00000  Uiso   1.00
Zn573  Zn    0.11562   0.83334   0.25000   0.00000  Uiso   1.00
Zn574  Zn    0.21771   0.83333   0.25000   0.00000  Uiso   1.00
C575   C     0.50047   0.91332   0.24964   0.00000  Uiso   1.00
C576   C     0.45640   0.97799   0.26596   0.00000  Uiso   1.00
C577   C     0.49794   0.70934   0.25459   0.00000  Uiso   1.00
C578   C     0.50094   0.95757   0.25084   0.00000  Uiso   1.00
C579   C     0.65244   0.80619   0.22200   0.00000  Uiso   1.00
C580   C     0.34687   0.85986   0.27903   0.00000  Uiso   1.00
C581   C     0.36677   0.80576   0.22204   0.00000  Uiso   1.00
C582   C     0.63210   0.86000   0.27887   0.00000  Uiso   1.00
C583   C     0.46981   0.83257   0.33811   0.00000  Uiso   1.00
C584   C     0.52988   0.83627   0.16210   0.00000  Uiso   1.00
C585   C     0.44992   0.83329   0.38935   0.00000  Uiso   1.00
C586   C     0.49905   0.75346   0.25197   0.00000  Uiso   1.00
C587   C     0.54652   0.85015   0.11346   0.00000  Uiso   1.00
C588   C     0.38556   0.82152   0.46363   0.00000  Uiso   1.00
C589   C     0.59378   0.89535   0.05109   0.00000  Uiso   1.00
C590   C     0.40295   0.81930   0.41475   0.00000  Uiso   1.00
C591   C     0.58476   0.87844   0.09534   0.00000  Uiso   1.00
C592   C     0.47839   0.84953   0.41311   0.00000  Uiso   1.00
C593   C     0.51632   0.84192   0.08861   0.00000  Uiso   1.00
C594   C     0.46120   0.85412   0.46178   0.00000  Uiso   1.00
C595   C     0.51880   0.86474   0.04976   0.00000  Uiso   1.00
C596   C     0.41557   0.83689   0.48787   0.00000  Uiso   1.00
C597   C     0.43363   0.85016   0.05871   0.00000  Uiso   1.00
C598   C     0.56026   0.88899   0.02769   0.00000  Uiso   1.00
C599   C     0.49125   0.87144   0.48480   0.00000  Uiso   1.00
C600   C     0.48129   0.86160   0.03146   0.00000  Uiso   1.00
C601   C     0.35798   0.81570   0.06550   0.00000  Uiso   1.00
C602   C     0.60438   0.93460   0.46082   0.00000  Uiso   1.00
C603   C     0.41426   0.86120   0.10815   0.00000  Uiso   1.00
C604   C     0.52926   0.92481   0.42594   0.00000  Uiso   1.00
C605   C     0.59203   0.96127   0.22342   0.00000  Uiso   1.00
C606   C     0.40725   0.70647   0.28815   0.00000  Uiso   1.00
C607   C     0.63880   0.77684   0.19277   0.00000  Uiso   1.00
C608   C     0.52997   0.89901   0.46378   0.00000  Uiso   1.00
C609   C     0.35924   0.88657   0.31147   0.00000  Uiso   1.00
C610   C     0.40189   0.83571   0.03705   0.00000  Uiso   1.00
C611   C     0.56472   0.90735   0.48467   0.00000  Uiso   1.00
C612   C     0.54445   0.97990   0.23912   0.00000  Uiso   1.00
C613   C     0.45435   0.68716   0.26882   0.00000  Uiso   1.00
C614   C     0.54226   0.68890   0.24153   0.00000  Uiso   1.00
H615   H     0.48865   0.81873   0.10145   0.00000  Uiso   1.00
H616   H     0.66640   0.77789   0.47946   0.00000  Uiso   1.00
H617   H     0.63343   0.94595   0.05433   0.00000  Uiso   1.00
H618   H     0.66615   0.90310   0.02906   0.00000  Uiso   1.00
H619   H     0.40883   0.75419   0.21231   0.00000  Uiso   1.00
H620   H     0.42898   0.78947   0.16857   0.00000  Uiso   1.00
H621   H     0.60863   0.91776   0.30285   0.00000  Uiso   1.00
H622   H     0.59345   0.88111   0.34375   0.00000  Uiso   1.00
H623   H     0.51529   0.85709   0.39307   0.00000  Uiso   1.00
H624   H     0.57571   0.70587   0.23246   0.00000  Uiso   1.00
H625   H     0.42293   0.96086   0.27619   0.00000  Uiso   1.00
H626   H     0.62985   0.86929   0.13137   0.00000  Uiso   1.00
H627   H     0.58825   0.90750   0.15316   0.00000  Uiso   1.00
H628   H     0.36149   0.82319   0.37441   0.00000  Uiso   1.00
H629   H     0.39165   0.77708   0.36908   0.00000  Uiso   1.00
H630   H     0.64700   0.82689   0.47729   0.00000  Uiso   1.00
N631   N     0.38093   0.83334   0.25001   0.00000  Uiso   1.00
N632   N     0.52854   0.94555   0.39604   0.00000  Uiso   1.00
N633   N     0.63021   0.94669   0.21085   0.00000  Uiso   1.00
N634   N     0.36949   0.72174   0.30369   0.00000  Uiso   1.00
N635   N     0.62831   0.75291   0.16927   0.00000  Uiso   1.00
N636   N     0.36869   0.90787   0.33795   0.00000  Uiso   1.00
N637   N     0.39917   0.77545   0.19239   0.00000  Uiso   1.00
N638   N     0.59643   0.88737   0.30960   0.00000  Uiso   1.00
N639   N     0.61907   0.83332   0.24999   0.00000  Uiso   1.00
N640   N     0.65626   0.79921   0.08746   0.00000  Uiso   1.00
N641   N     0.63589   0.95635   0.44155   0.00000  Uiso   1.00
N642   N     0.61219   0.89368   0.12260   0.00000  Uiso   1.00
N643   N     0.37260   0.80067   0.39220   0.00000  Uiso   1.00
N644   N     0.33678   0.80895   0.48810   0.00000  Uiso   1.00
N645   N     0.63572   0.92059   0.03166   0.00000  Uiso   1.00
N646   N     0.39879   0.87080   0.14731   0.00000  Uiso   1.00
O647   O     0.46179   0.89442   0.25000   0.00000  Uiso   1.00
O648   O     0.53821   0.77225   0.24999   0.00000  Uiso   1.00
O649   O     0.53823   0.89441   0.25000   0.00000  Uiso   1.00
O650   O     0.46177   0.77226   0.25000   0.00000  Uiso   1.00
O651   O     0.43994   0.83334   0.31612   0.00000  Uiso   1.00
O652   O     0.56006   0.83333   0.18387   0.00000  Uiso   1.00
O653   O     0.51639   0.83333   0.31612   0.00000  Uiso   1.00
O654   O     0.48361   0.83334   0.18388   0.00000  Uiso   1.00
Zn655  Zn    0.44896   0.83334   0.25000   0.00000  Uiso   1.00
Zn656  Zn    0.55104   0.83333   0.25000   0.00000  Uiso   1.00
C657   C     0.83380   0.91332   0.24964   0.00000  Uiso   1.00
C658   C     0.78973   0.97799   0.26596   0.00000  Uiso   1.00
C659   C     0.83128   0.70934   0.25459   0.00000  Uiso   1.00
C660   C     0.83428   0.95757   0.25084   0.00000  Uiso   1.00
C661   C     0.98577   0.80619   0.22200   0.00000  Uiso   1.00
C662   C     0.68020   0.85986   0.27903   0.00000  Uiso   1.00
C663   C     0.70010   0.80576   0.22204   0.00000  Uiso   1.00
C664   C     0.96543   0.86000   0.27887   0.00000  Uiso   1.00
C665   C     0.80314   0.83257   0.33811   0.00000  Uiso   1.00
C666   C     0.86322   0.83627   0.16210   0.00000  Uiso   1.00
C667   C     0.78325   0.83329   0.38935   0.00000  Uiso   1.00
C668   C     0.83238   0.75346   0.25197   0.00000  Uiso   1.00
C669   C     0.87986   0.85015   0.11346   0.00000  Uiso   1.00
C670   C     0.71890   0.82152   0.46363   0.00000  Uiso   1.00
C671   C     0.92711   0.89535   0.05109   0.00000  Uiso   1.00
C672   C     0.73628   0.81930   0.41475   0.00000  Uiso   1.00
C673   C     0.91809   0.87844   0.09534   0.00000  Uiso   1.00
C674   C     0.81173   0.84953   0.41311   0.00000  Uiso   1.00
C675   C     0.84965   0.84192   0.08861   0.00000  Uiso   1.00
C676   C     0.79454   0.85412   0.46178   0.00000  Uiso   1.00
C677   C     0.85214   0.86474   0.04976   0.00000  Uiso   1.00
C678   C     0.74890   0.83689   0.48787   0.00000  Uiso   1.00
C679   C     0.76696   0.85016   0.05871   0.00000  Uiso   1.00
C680   C     0.89359   0.88899   0.02769   0.00000  Uiso   1.00
C681   C     0.82458   0.87144   0.48480   0.00000  Uiso   1.00
C682   C     0.81463   0.86160   0.03146   0.00000  Uiso   1.00
C683   C     0.69131   0.81570   0.06550   0.00000  Uiso   1.00
C684   C     0.93772   0.93460   0.46082   0.00000  Uiso   1.00
C685   C     0.74759   0.86120   0.10815   0.00000  Uiso   1.00
C686   C     0.86259   0.92481   0.42594   0.00000  Uiso   1.00
C687   C     0.92536   0.96127   0.22342   0.00000  Uiso   1.00
C688   C     0.74058   0.70647   0.28815   0.00000  Uiso   1.00
C689   C     0.97213   0.77684   0.19277   0.00000  Uiso   1.00
C690   C     0.86330   0.89901   0.46378   0.00000  Uiso   1.00
C691   C     0.69257   0.88657   0.31147   0.00000  Uiso   1.00
C692   C     0.73523   0.83571   0.03705   0.00000  Uiso   1.00
C693   C     0.89805   0.90735   0.48467   0.00000  Uiso   1.00
C694   C     0.87778   0.97990   0.23912   0.00000  Uiso   1.00
C695   C     0.78769   0.68716   0.26882   0.00000  Uiso   1.00
C696   C     0.87560   0.68890   0.24153   0.00000  Uiso   1.00
H697   H     0.82198   0.81873   0.10145   0.00000  Uiso   1.00
H698   H     0.99974   0.77789   0.47946   0.00000  Uiso   1.00
H699   H     0.96676   0.94595   0.05433   0.00000  Uiso   1.00
H700   H     0.99948   0.90310   0.02906   0.00000  Uiso   1.00
H701   H     0.74217   0.75419   0.21231   0.00000  Uiso   1.00
H702   H     0.76231   0.78947   0.16857   0.00000  Uiso   1.00
H703   H     0.94196   0.91776   0.30285   0.00000  Uiso   1.00
H704   H     0.92678   0.88111   0.34375   0.00000  Uiso   1.00
H705   H     0.84862   0.85709   0.39307   0.00000  Uiso   1.00
H706   H     0.90904   0.70587   0.23246   0.00000  Uiso   1.00
H707   H     0.75626   0.96086   0.27619   0.00000  Uiso   1.00
H708   H     0.96318   0.86929   0.13137   0.00000  Uiso   1.00
H709   H     0.92159   0.90750   0.15316   0.00000  Uiso   1.00
H710   H     0.69483   0.82319   0.37441   0.00000  Uiso   1.00
H711   H     0.72499   0.77708   0.36908   0.00000  Uiso   1.00
H712   H     0.98034   0.82689   0.47729   0.00000  Uiso   1.00
N713   N     0.71426   0.83334   0.25001   0.00000  Uiso   1.00
N714   N     0.86187   0.94555   0.39604   0.00000  Uiso   1.00
N715   N     0.96355   0.94669   0.21085   0.00000  Uiso   1.00
N716   N     0.70282   0.72174   0.30369   0.00000  Uiso   1.00
N717   N     0.96165   0.75291   0.16927   0.00000  Uiso   1.00
N718   N     0.70202   0.90787   0.33795   0.00000  Uiso   1.00
N719   N     0.73251   0.77545   0.19239   0.00000  Uiso   1.00
N720   N     0.92976   0.88737   0.30960   0.00000  Uiso   1.00
N721   N     0.95241   0.83332   0.24999   0.00000  Uiso   1.00
N722   N     0.98959   0.79921   0.08746   0.00000  Uiso   1.00
N723   N     0.96922   0.95635   0.44155   0.00000  Uiso   1.00
N724   N     0.94552   0.89368   0.12260   0.00000  Uiso   1.00
N725   N     0.70593   0.80067   0.39220   0.00000  Uiso   1.00
N726   N     0.67011   0.80895   0.48810   0.00000  Uiso   1.00
N727   N     0.96905   0.92059   0.03166   0.00000  Uiso   1.00
N728   N     0.73213   0.87080   0.14731   0.00000  Uiso   1.00
O729   O     0.79512   0.89442   0.25000   0.00000  Uiso   1.00
O730   O     0.87154   0.77225   0.24999   0.00000  Uiso   1.00
O731   O     0.87157   0.89441   0.25000   0.00000  Uiso   1.00
O732   O     0.79510   0.77226   0.25000   0.00000  Uiso   1.00
O733   O     0.77328   0.83334   0.31612   0.00000  Uiso   1.00
O734   O     0.89339   0.83333   0.18387   0.00000  Uiso   1.00
O735   O     0.84972   0.83333   0.31612   0.00000  Uiso   1.00
O736   O     0.81695   0.83334   0.18388   0.00000  Uiso   1.00
Zn737  Zn    0.78229   0.83334   0.25000   0.00000  Uiso   1.00
Zn738  Zn    0.88438   0.83333   0.25000   0.00000  Uiso   1.00
C739   C     0.16714   0.24665   0.74964   0.00000  Uiso   1.00
C740   C     0.12306   0.31132   0.76596   0.00000  Uiso   1.00
C741   C     0.16461   0.04267   0.75459   0.00000  Uiso   1.00
C742   C     0.16761   0.29091   0.75084   0.00000  Uiso   1.00
C743   C     0.31910   0.13953   0.72200   0.00000  Uiso   1.00
C744   C     0.01353   0.19319   0.77903   0.00000  Uiso   1.00
C745   C     0.03343   0.13910   0.72204   0.00000  Uiso   1.00
C746   C     0.29877   0.19334   0.77887   0.00000  Uiso   1.00
C747   C     0.13648   0.16590   0.83811   0.00000  Uiso   1.00
C748   C     0.19655   0.16960   0.66210   0.00000  Uiso   1.00
C749   C     0.11658   0.16662   0.88935   0.00000  Uiso   1.00
C750   C     0.16572   0.08680   0.75197   0.00000  Uiso   1.00
C751   C     0.21319   0.18348   0.61346   0.00000  Uiso   1.00
C752   C     0.05223   0.15485   0.96363   0.00000  Uiso   1.00
C753   C     0.26045   0.22868   0.55109   0.00000  Uiso   1.00
C754   C     0.06961   0.15263   0.91475   0.00000  Uiso   1.00
C755   C     0.25142   0.21178   0.59534   0.00000  Uiso   1.00
C756   C     0.14506   0.18287   0.91311   0.00000  Uiso   1.00
C757   C     0.18298   0.17526   0.58861   0.00000  Uiso   1.00
C758   C     0.12787   0.18745   0.96178   0.00000  Uiso   1.00
C759   C     0.18547   0.19807   0.54976   0.00000  Uiso   1.00
C760   C     0.08224   0.17022   0.98787   0.00000  Uiso   1.00
C761   C     0.10030   0.18349   0.55871   0.00000  Uiso   1.00
C762   C     0.22692   0.22232   0.52769   0.00000  Uiso   1.00
C763   C     0.15792   0.20477   0.98480   0.00000  Uiso   1.00
C764   C     0.14796   0.19493   0.53146   0.00000  Uiso   1.00
C765   C     0.02465   0.14903   0.56550   0.00000  Uiso   1.00
C766   C     0.27105   0.26794   0.96082   0.00000  Uiso   1.00
C767   C     0.08093   0.19453   0.60815   0.00000  Uiso   1.00
C768   C     0.19592   0.25814   0.92594   0.00000  Uiso   1.00
C769   C     0.25869   0.29460   0.72342   0.00000  Uiso   1.00
C770   C     0.07392   0.03980   0.78815   0.00000  Uiso   1.00
C771   C     0.30547   0.11017   0.69277   0.00000  Uiso   1.00
C772   C     0.19664   0.23235   0.96378   0.00000  Uiso   1.00
C773   C     0.02591   0.21990   0.81147   0.00000  Uiso   1.00
C774   C     0.06856   0.16904   0.53705   0.00000  Uiso   1.00
C775   C     0.23138   0.24068   0.98467   0.00000  Uiso   1.00
C776   C     0.21112   0.31324   0.73912   0.00000  Uiso   1.00
C777   C     0.12102   0.02050   0.76882   0.00000  Uiso   1.00
C778   C     0.20893   0.02224   0.74153   0.00000  Uiso   1.00
H779   H     0.15531   0.15207   0.60145   0.00000  Uiso   1.00
H780   H     0.33307   0.11122   0.97946   0.00000  Uiso   1.00
H781   H     0.30010   0.27928   0.55433   0.00000  Uiso   1.00
H782   H     0.33281   0.23643   0.52906   0.00000  Uiso   1.00
H783   H     0.07550   0.08752   0.71231   0.00000  Uiso   1.00
H784   H     0.09565   0.12281   0.66857   0.00000  Uiso   1.00
H785   H     0.27530   0.25109   0.80285   0.00000  Uiso   1.00
H786   H     0.26011   0.21445   0.84375   0.00000  Uiso   1.00
H787   H     0.18196   0.19042   0.89307   0.00000  Uiso   1.00
H788   H     0.24238   0.03920   0.73246   0.00000  Uiso   1.00
H789   H     0.08960   0.29419   0.77619   0.00000  Uiso   1.00
H790   H     0.29652   0.20263   0.63137   0.00000  Uiso   1.00
H791   H     0.25492   0.24084   0.65316   0.00000  Uiso   1.00
H792   H     0.02816   0.15653   0.87441   0.00000  Uiso   1.00
H793   H     0.05832   0.11041   0.86908   0.00000  Uiso   1.00
H794   H     0.31367   0.16023   0.97729   0.00000  Uiso   1.00
N795   N     0.04759   0.16668   0.75001   0.00000  Uiso   1.00
N796   N     0.19521   0.27889   0.89604   0.00000  Uiso   1.00
N797   N     0.29688   0.28002   0.71085   0.00000  Uiso   1.00
N798   N     0.03615   0.05507   0.80369   0.00000  Uiso   1.00
N799   N     0.29498   0.08624   0.66927   0.00000  Uiso   1.00
N800   N     0.03536   0.24121   0.83795   0.00000  Uiso   1.00
N801   N     0.06584   0.10878   0.69239   0.00000  Uiso   1.00
N802   N     0.26310   0.22071   0.80960   0.00000  Uiso   1.00
N803   N     0.28574   0.16666   0.74999   0.00000  Uiso   1.00
N804   N     0.32293   0.13254   0.58746   0.00000  Uiso   1.00
N805   N     0.30256   0.28968   0.94155   0.00000  Uiso   1.00
N806   N     0.27885   0.22701   0.62260   0.00000  Uiso   1.00
N807   N     0.03927   0.13401   0.89220   0.00000  Uiso   1.00
N808   N     0.00344   0.14228   0.98810   0.00000  Uiso   1.00
N809   N     0.30239   0.25392   0.53166   0.00000  Uiso   1.00
N810   N     0.06546   0.20413   0.64731   0.00000  Uiso   1.00
O811   O     0.12846   0.22775   0.75000   0.00000  Uiso   1.00
O812   O     0.20488   0.10558   0.74999   0.00000  Uiso   1.00
O813   O     0.20490   0.22774   0.75000   0.00000  Uiso   1.00
O814   O     0.12843   0.10559   0.75000   0.00000  Uiso   1.00
O815   O     0.10661   0.16667   0.81612   0.00000  Uiso   1.00
O816   O     0.22672   0.16666   0.68387   0.00000  Uiso   1.00
O817   O     0.18305   0.16666   0.81612   0.00000  Uiso   1.00
O818   O     0.15028   0.16667   0.68388   0.00000  Uiso   1.00
Zn819  Zn    0.11562   0.16667   0.75000   0.00000  Uiso   1.00
Zn820  Zn    0.21771   0.16666   0.75000   0.00000  Uiso   1.00
C821   C     0.50047   0.24665   0.74964   0.00000  Uiso   1.00
C822   C     0.45640   0.31132   0.76596   0.00000  Uiso   1.00
C823   C     0.49794   0.04267   0.75459   0.00000  Uiso   1.00
C824   C     0.50094   0.29091   0.75084   0.00000  Uiso   1.00
C825   C     0.65244   0.13953   0.72200   0.00000  Uiso   1.00
C826   C     0.34687   0.19319   0.77903   0.00000  Uiso   1.00
C827   C     0.36677   0.13910   0.72204   0.00000  Uiso   1.00
C828   C     0.63210   0.19334   0.77887   0.00000  Uiso   1.00
C829   C     0.46981   0.16590   0.83811   0.00000  Uiso   1.00
C830   C     0.52988   0.16960   0.66210   0.00000  Uiso   1.00
C831   C     0.44992   0.16662   0.88935   0.00000  Uiso   1.00
C832   C     0.49905   0.08680   0.75197   0.00000  Uiso   1.00
C833   C     0.54652   0.18348   0.61346   0.00000  Uiso   1.00
C834   C     0.38556   0.15485   0.96363   0.00000  Uiso   1.00
C835   C     0.59378   0.22868   0.55109   0.00000  Uiso   1.00
C836   C     0.40295   0.15263   0.91475   0.00000  Uiso   1.00
C837   C     0.58476   0.21178   0.59534   0.00000  Uiso   1.00
C838   C     0.47839   0.18287   0.91311   0.00000  Uiso   1.00
C839   C     0.51632   0.17526   0.58861   0.00000  Uiso   1.00
C840   C     0.46120   0.18745   0.96178   0.00000  Uiso   1.00
C841   C     0.51880   0.19807   0.54976   0.00000  Uiso   1.00
C842   C     0.41557   0.17022   0.98787   0.00000  Uiso   1.00
C843   C     0.43363   0.18349   0.55871   0.00000  Uiso   1.00
C844   C     0.56026   0.22232   0.52769   0.00000  Uiso   1.00
C845   C     0.49125   0.20477   0.98480   0.00000  Uiso   1.00
C846   C     0.48129   0.19493   0.53146   0.00000  Uiso   1.00
C847   C     0.35798   0.14903   0.56550   0.00000  Uiso   1.00
C848   C     0.60438   0.26794   0.96082   0.00000  Uiso   1.00
C849   C     0.41426   0.19453   0.60815   0.00000  Uiso   1.00
C850   C     0.52926   0.25814   0.92594   0.00000  Uiso   1.00
C851   C     0.59203   0.29460   0.72342   0.00000  Uiso   1.00
C852   C     0.40725   0.03980   0.78815   0.00000  Uiso   1.00
C853   C     0.63880   0.11017   0.69277   0.00000  Uiso   1.00
C854   C     0.52997   0.23235   0.96378   0.00000  Uiso   1.00
C855   C     0.35924   0.21990   0.81147   0.00000  Uiso   1.00
C856   C     0.40189   0.16904   0.53705   0.00000  Uiso   1.00
C857   C     0.56472   0.24068   0.98467   0.00000  Uiso   1.00
C858   C     0.54445   0.31324   0.73912   0.00000  Uiso   1.00
C859   C     0.45435   0.02050   0.76882   0.00000  Uiso   1.00
C860   C     0.54226   0.02224   0.74153   0.00000  Uiso   1.00
H861   H     0.48865   0.15207   0.60145   0.00000  Uiso   1.00
H862   H     0.66640   0.11122   0.97946   0.00000  Uiso   1.00
H863   H     0.63343   0.27928   0.55433   0.00000  Uiso   1.00
H864   H     0.66615   0.23643   0.52906   0.00000  Uiso   1.00
H865   H     0.40883   0.08752   0.71231   0.00000  Uiso   1.00
H866   H     0.42898   0.12281   0.66857   0.00000  Uiso   1.00
H867   H     0.60863   0.25109   0.80285   0.00000  Uiso   1.00
H868   H     0.59345   0.21445   0.84375   0.00000  Uiso   1.00
H869   H     0.51529   0.19042   0.89307   0.00000  Uiso   1.00
H870   H     0.57571   0.03920   0.73246   0.00000  Uiso   1.00
H871   H     0.42293   0.29419   0.77619   0.00000  Uiso   1.00
H872   H     0.62985   0.20263   0.63137   0.00000  Uiso   1.00
H873   H     0.58825   0.24084   0.65316   0.00000  Uiso   1.00
H874   H     0.36149   0.15653   0.87441   0.00000  Uiso   1.00
H875   H     0.39165   0.11041   0.86908   0.00000  Uiso   1.00
H876   H     0.64700   0.16023   0.97729   0.00000  Uiso   1.00
N877   N     0.38093   0.16668   0.75001   0.00000  Uiso   1.00
N878   N     0.52854   0.27889   0.89604   0.00000  Uiso   1.00
N879   N     0.63021   0.28002   0.71085   0.00000  Uiso   1.00
N880   N     0.36949   0.05507   0.80369   0.00000  Uiso   1.00
N881   N     0.62831   0.08624   0.66927   0.00000  Uiso   1.00
N882   N     0.36869   0.24121   0.83795   0.00000  Uiso   1.00
N883   N     0.39917   0.10878   0.69239   0.00000  Uiso   1.00
N884   N     0.59643   0.22071   0.80960   0.00000  Uiso   1.00
N885   N     0.61907   0.16666   0.74999   0.00000  Uiso   1.00
N886   N     0.65626   0.13254   0.58746   0.00000  Uiso   1.00
N887   N     0.63589   0.28968   0.94155   0.00000  Uiso   1.00
N888   N     0.61219   0.22701   0.62260   0.00000  Uiso   1.00
N889   N     0.37260   0.13401   0.89220   0.00000  Uiso   1.00
N890   N     0.33678   0.14228   0.98810   0.00000  Uiso   1.00
N891   N     0.63572   0.25392   0.53166   0.00000  Uiso   1.00
N892   N     0.39879   0.20413   0.64731   0.00000  Uiso   1.00
O893   O     0.46179   0.22775   0.75000   0.00000  Uiso   1.00
O894   O     0.53821   0.10558   0.74999   0.00000  Uiso   1.00
O895   O     0.53823   0.22774   0.75000   0.00000  Uiso   1.00
O896   O     0.46177   0.10559   0.75000   0.00000  Uiso   1.00
O897   O     0.43994   0.16667   0.81612   0.00000  Uiso   1.00
O898   O     0.56006   0.16666   0.68387   0.00000  Uiso   1.00
O899   O     0.51639   0.16666   0.81612   0.00000  Uiso   1.00
O900   O     0.48361   0.16667   0.68388   0.00000  Uiso   1.00
Zn901  Zn    0.44896   0.16667   0.75000   0.00000  Uiso   1.00
Zn902  Zn    0.55104   0.16666   0.75000   0.00000  Uiso   1.00
C903   C     0.83380   0.24665   0.74964   0.00000  Uiso   1.00
C904   C     0.78973   0.31132   0.76596   0.00000  Uiso   1.00
C905   C     0.83128   0.04267   0.75459   0.00000  Uiso   1.00
C906   C     0.83428   0.29091   0.75084   0.00000  Uiso   1.00
C907   C     0.98577   0.13953   0.72200   0.00000  Uiso   1.00
C908   C     0.68020   0.19319   0.77903   0.00000  Uiso   1.00
C909   C     0.70010   0.13910   0.72204   0.00000  Uiso   1.00
C910   C     0.96543   0.19334   0.77887   0.00000  Uiso   1.00
C911   C     0.80314   0.16590   0.83811   0.00000  Uiso   1.00
C912   C     0.86322   0.16960   0.66210   0.00000  Uiso   1.00
C913   C     0.78325   0.16662   0.88935   0.00000  Uiso   1.00
C914   C     0.83238   0.08680   0.75197   0.00000  Uiso   1.00
C915   C     0.87986   0.18348   0.61346   0.00000  Uiso   1.00
C916   C     0.71890   0.15485   0.96363   0.00000  Uiso   1.00
C917   C     0.92711   0.22868   0.55109   0.00000  Uiso   1.00
C918   C     0.73628   0.15263   0.91475   0.00000  Uiso   1.00
C919   C     0.91809   0.21178   0.59534   0.00000  Uiso   1.00
C920   C     0.81173   0.18287   0.91311   0.00000  Uiso   1.00
C921   C     0.84965   0.17526   0.58861   0.00000  Uiso   1.00
C922   C     0.79454   0.18745   0.96178   0.00000  Uiso   1.00
C923   C     0.85214   0.19807   0.54976   0.00000  Uiso   1.00
C924   C     0.74890   0.17022   0.98787   0.00000  Uiso   1.00
C925   C     0.76696   0.18349   0.55871   0.00000  Uiso   1.00
C926   C     0.89359   0.22232   0.52769   0.00000  Uiso   1.00
C927   C     0.82458   0.20477   0.98480   0.00000  Uiso   1.00
C928   C     0.81463   0.19493   0.53146   0.00000  Uiso   1.00
C929   C     0.69131   0.14903   0.56550   0.00000  Uiso   1.00
C930   C     0.93772   0.26794   0.96082   0.00000  Uiso   1.00
C931   C     0.74759   0.19453   0.60815   0.00000  Uiso   1.00
C932   C     0.86259   0.25814   0.92594   0.00000  Uiso   1.00
C933   C     0.92536   0.29460   0.72342   0.00000  Uiso   1.00
C934   C     0.74058   0.03980   0.78815   0.00000  Uiso   1.00
C935   C     0.97213   0.11017   0.69277   0.00000  Uiso   1.00
C936   C     0.86330   0.23235   0.96378   0.00000  Uiso   1.00
C937   C     0.69257   0.21990   0.81147   0.00000  Uiso   1.00
C938   C     0.73523   0.16904   0.53705   0.00000  Uiso   1.00
C939   C     0.89805   0.24068   0.98467   0.00000  Uiso   1.00
C940   C     0.87778   0.31324   0.73912   0.00000  Uiso   1.00
C941   C     0.78769   0.02050   0.76882   0.00000  Uiso   1.00
C942   C     0.87560   0.02224   0.74153   0.00000  Uiso   1.00
H943   H     0.82198   0.15207   0.60145   0.00000  Uiso   1.00
H944   H     0.99974   0.11122   0.97946   0.00000  Uiso   1.00
H945   H     0.96676   0.27928   0.55433   0.00000  Uiso   1.00
H946   H     0.99948   0.23643   0.52906   0.00000  Uiso   1.00
H947   H     0.74217   0.08752   0.71231   0.00000  Uiso   1.00
H948   H     0.76231   0.12281   0.66857   0.00000  Uiso   1.00
H949   H     0.94196   0.25109   0.80285   0.00000  Uiso   1.00
H950   H     0.92678   0.21445   0.84375   0.00000  Uiso   1.00
H951   H     0.84862   0.19042   0.89307   0.00000  Uiso   1.00
H952   H     0.90904   0.03920   0.73246   0.00000  Uiso   1.00
H953   H     0.75626   0.29419   0.77619   0.00000  Uiso   1.00
H954   H     0.96318   0.20263   0.63137   0.00000  Uiso   1.00
H955   H     0.92159   0.24084   0.65316   0.00000  Uiso   1.00
H956   H     0.69483   0.15653   0.87441   0.00000  Uiso   1.00
H957   H     0.72499   0.11041   0.86908   0.00000  Uiso   1.00
H958   H     0.98034   0.16023   0.97729   0.00000  Uiso   1.00
N959   N     0.71426   0.16668   0.75001   0.00000  Uiso   1.00
N960   N     0.86187   0.27889   0.89604   0.00000  Uiso   1.00
N961   N     0.96355   0.28002   0.71085   0.00000  Uiso   1.00
N962   N     0.70282   0.05507   0.80369   0.00000  Uiso   1.00
N963   N     0.96165   0.08624   0.66927   0.00000  Uiso   1.00
N964   N     0.70202   0.24121   0.83795   0.00000  Uiso   1.00
N965   N     0.73251   0.10878   0.69239   0.00000  Uiso   1.00
N966   N     0.92976   0.22071   0.80960   0.00000  Uiso   1.00
N967   N     0.95241   0.16666   0.74999   0.00000  Uiso   1.00
N968   N     0.98959   0.13254   0.58746   0.00000  Uiso   1.00
N969   N     0.96922   0.28968   0.94155   0.00000  Uiso   1.00
N970   N     0.94552   0.22701   0.62260   0.00000  Uiso   1.00
N971   N     0.70593   0.13401   0.89220   0.00000  Uiso   1.00
N972   N     0.67011   0.14228   0.98810   0.00000  Uiso   1.00
N973   N     0.96905   0.25392   0.53166   0.00000  Uiso   1.00
N974   N     0.73213   0.20413   0.64731   0.00000  Uiso   1.00
O975   O     0.79512   0.22775   0.75000   0.00000  Uiso   1.00
O976   O     0.87154   0.10558   0.74999   0.00000  Uiso   1.00
O977   O     0.87157   0.22774   0.75000   0.00000  Uiso   1.00
O978   O     0.79510   0.10559   0.75000   0.00000  Uiso   1.00
O979   O     0.77328   0.16667   0.81612   0.00000  Uiso   1.00
O980   O     0.89339   0.16666   0.68387   0.00000  Uiso   1.00
O981   O     0.84972   0.16666   0.81612   0.00000  Uiso   1.00
O982   O     0.81695   0.16667   0.68388   0.00000  Uiso   1.00
Zn983  Zn    0.78229   0.16667   0.75000   0.00000  Uiso   1.00
Zn984  Zn    0.88438   0.16666   0.75000   0.00000  Uiso   1.00
C985   C     0.16714   0.57999   0.74964   0.00000  Uiso   1.00
C986   C     0.12306   0.64466   0.76596   0.00000  Uiso   1.00
C987   C     0.16461   0.37601   0.75459   0.00000  Uiso   1.00
C988   C     0.16761   0.62424   0.75084   0.00000  Uiso   1.00
C989   C     0.31910   0.47286   0.72200   0.00000  Uiso   1.00
C990   C     0.01353   0.52653   0.77903   0.00000  Uiso   1.00
C991   C     0.03343   0.47243   0.72204   0.00000  Uiso   1.00
C992   C     0.29877   0.52667   0.77887   0.00000  Uiso   1.00
C993   C     0.13648   0.49923   0.83811   0.00000  Uiso   1.00
C994   C     0.19655   0.50294   0.66210   0.00000  Uiso   1.00
C995   C     0.11658   0.49995   0.88935   0.00000  Uiso   1.00
C996   C     0.16572   0.42013   0.75197   0.00000  Uiso   1.00
C997   C     0.21319   0.51681   0.61346   0.00000  Uiso   1.00
C998   C     0.05223   0.48818   0.96363   0.00000  Uiso   1.00
C999   C     0.26045   0.56202   0.55109   0.00000  Uiso   1.00
C1000  C     0.06961   0.48597   0.91475   0.00000  Uiso   1.00
C1001  C     0.25142   0.54511   0.59534   0.00000  Uiso   1.00
C1002  C     0.14506   0.51620   0.91311   0.00000  Uiso   1.00
C1003  C     0.18298   0.50859   0.58861   0.00000  Uiso   1.00
C1004  C     0.12787   0.52079   0.96178   0.00000  Uiso   1.00
C1005  C     0.18547   0.53140   0.54976   0.00000  Uiso   1.00
C1006  C     0.08224   0.50356   0.98787   0.00000  Uiso   1.00
C1007  C     0.10030   0.51682   0.55871   0.00000  Uiso   1.00
C1008  C     0.22692   0.55566   0.52769   0.00000  Uiso   1.00
C1009  C     0.15792   0.53810   0.98480   0.00000  Uiso   1.00
C1010  C     0.14796   0.52826   0.53146   0.00000  Uiso   1.00
C1011  C     0.02465   0.48237   0.56550   0.00000  Uiso   1.00
C1012  C     0.27105   0.60127   0.96082   0.00000  Uiso   1.00
C1013  C     0.08093   0.52786   0.60815   0.00000  Uiso   1.00
C1014  C     0.19592   0.59148   0.92594   0.00000  Uiso   1.00
C1015  C     0.25869   0.62794   0.72342   0.00000  Uiso   1.00
C1016  C     0.07392   0.37314   0.78815   0.00000  Uiso   1.00
C1017  C     0.30547   0.44351   0.69277   0.00000  Uiso   1.00
C1018  C     0.19664   0.56568   0.96378   0.00000  Uiso   1.00
C1019  C     0.02591   0.55324   0.81147   0.00000  Uiso   1.00
C1020  C     0.06856   0.50237   0.53705   0.00000  Uiso   1.00
C1021  C     0.23138   0.57402   0.98467   0.00000  Uiso   1.00
C1022  C     0.21112   0.64657   0.73912   0.00000  Uiso   1.00
C1023  C     0.12102   0.35383   0.76882   0.00000  Uiso   1.00
C1024  C     0.20893   0.35557   0.74153   0.00000  Uiso   1.00
H1025  H     0.15531   0.48540   0.60145   0.00000  Uiso   1.00
H1026  H     0.33307   0.44455   0.97946   0.00000  Uiso   1.00
H1027  H     0.30010   0.61262   0.55433   0.00000  Uiso   1.00
H1028  H     0.33281   0.56977   0.52906   0.00000  Uiso   1.00
H1029  H     0.07550   0.42085   0.71231   0.00000  Uiso   1.00
H1030  H     0.09565   0.45614   0.66857   0.00000  Uiso   1.00
H1031  H     0.27530   0.58442   0.80285   0.00000  Uiso   1.00
H1032  H     0.26011   0.54778   0.84375   0.00000  Uiso   1.00
H1033  H     0.18196   0.52375   0.89307   0.00000  Uiso   1.00
H1034  H     0.24238   0.37254   0.73246   0.00000  Uiso   1.00
H1035  H     0.08960   0.62753   0.77619   0.00000  Uiso   1.00
H1036  H     0.29652   0.53596   0.63137   0.00000  Uiso   1.00
H1037  H     0.25492   0.57417   0.65316   0.00000  Uiso   1.00
H1038  H     0.02816   0.48986   0.87441   0.00000  Uiso   1.00
H1039  H     0.05832   0.44375   0.86908   0.00000  Uiso   1.00
H1040  H     0.31367   0.49356   0.97729   0.00000  Uiso   1.00
N1041  N     0.04759   0.50001   0.75001   0.00000  Uiso   1.00
N1042  N     0.19521   0.61222   0.89604   0.00000  Uiso   1.00
N1043  N     0.29688   0.61335   0.71085   0.00000  Uiso   1.00
N1044  N     0.03615   0.38841   0.80369   0.00000  Uiso   1.00
N1045  N     0.29498   0.41958   0.66927   0.00000  Uiso   1.00
N1046  N     0.03536   0.57454   0.83795   0.00000  Uiso   1.00
N1047  N     0.06584   0.44212   0.69239   0.00000  Uiso   1.00
N1048  N     0.26310   0.55404   0.80960   0.00000  Uiso   1.00
N1049  N     0.28574   0.49999   0.74999   0.00000  Uiso   1.00
N1050  N     0.32293   0.46587   0.58746   0.00000  Uiso   1.00
N1051  N     0.30256   0.62301   0.94155   0.00000  Uiso   1.00
N1052  N     0.27885   0.56035   0.62260   0.00000  Uiso   1.00
N1053  N     0.03927   0.46734   0.89220   0.00000  Uiso   1.00
N1054  N     0.00344   0.47561   0.98810   0.00000  Uiso   1.00
N1055  N     0.30239   0.58726   0.53166   0.00000  Uiso   1.00
N1056  N     0.06546   0.53747   0.64731   0.00000  Uiso   1.00
O1057  O     0.12846   0.56108   0.75000   0.00000  Uiso   1.00
O1058  O     0.20488   0.43892   0.74999   0.00000  Uiso   1.00
O1059  O     0.20490   0.56107   0.75000   0.00000  Uiso   1.00
O1060  O     0.12843   0.43893   0.75000   0.00000  Uiso   1.00
O1061  O     0.10661   0.50001   0.81612   0.00000  Uiso   1.00
O1062  O     0.22672   0.49999   0.68387   0.00000  Uiso   1.00
O1063  O     0.18305   0.50000   0.81612   0.00000  Uiso   1.00
O1064  O     0.15028   0.50000   0.68388   0.00000  Uiso   1.00
Zn1065 Zn    0.11562   0.50001   0.75000   0.00000  Uiso   1.00
Zn1066 Zn    0.21771   0.49999   0.75000   0.00000  Uiso   1.00
C1067  C     0.50047   0.57999   0.74964   0.00000  Uiso   1.00
C1068  C     0.45640   0.64466   0.76596   0.00000  Uiso   1.00
C1069  C     0.49794   0.37601   0.75459   0.00000  Uiso   1.00
C1070  C     0.50094   0.62424   0.75084   0.00000  Uiso   1.00
C1071  C     0.65244   0.47286   0.72200   0.00000  Uiso   1.00
C1072  C     0.34687   0.52653   0.77903   0.00000  Uiso   1.00
C1073  C     0.36677   0.47243   0.72204   0.00000  Uiso   1.00
C1074  C     0.63210   0.52667   0.77887   0.00000  Uiso   1.00
C1075  C     0.46981   0.49923   0.83811   0.00000  Uiso   1.00
C1076  C     0.52988   0.50294   0.66210   0.00000  Uiso   1.00
C1077  C     0.44992   0.49995   0.88935   0.00000  Uiso   1.00
C1078  C     0.49905   0.42013   0.75197   0.00000  Uiso   1.00
C1079  C     0.54652   0.51681   0.61346   0.00000  Uiso   1.00
C1080  C     0.38556   0.48818   0.96363   0.00000  Uiso   1.00
C1081  C     0.59378   0.56202   0.55109   0.00000  Uiso   1.00
C1082  C     0.40295   0.48597   0.91475   0.00000  Uiso   1.00
C1083  C     0.58476   0.54511   0.59534   0.00000  Uiso   1.00
C1084  C     0.47839   0.51620   0.91311   0.00000  Uiso   1.00
C1085  C     0.51632   0.50859   0.58861   0.00000  Uiso   1.00
C1086  C     0.46120   0.52079   0.96178   0.00000  Uiso   1.00
C1087  C     0.51880   0.53140   0.54976   0.00000  Uiso   1.00
C1088  C     0.41557   0.50356   0.98787   0.00000  Uiso   1.00
C1089  C     0.43363   0.51682   0.55871   0.00000  Uiso   1.00
C1090  C     0.56026   0.55566   0.52769   0.00000  Uiso   1.00
C1091  C     0.49125   0.53810   0.98480   0.00000  Uiso   1.00
C1092  C     0.48129   0.52826   0.53146   0.00000  Uiso   1.00
C1093  C     0.35798   0.48237   0.56550   0.00000  Uiso   1.00
C1094  C     0.60438   0.60127   0.96082   0.00000  Uiso   1.00
C1095  C     0.41426   0.52786   0.60815   0.00000  Uiso   1.00
C1096  C     0.52926   0.59148   0.92594   0.00000  Uiso   1.00
C1097  C     0.59203   0.62794   0.72342   0.00000  Uiso   1.00
C1098  C     0.40725   0.37314   0.78815   0.00000  Uiso   1.00
C1099  C     0.63880   0.44351   0.69277   0.00000  Uiso   1.00
C1100  C     0.52997   0.56568   0.96378   0.00000  Uiso   1.00
C1101  C     0.35924   0.55324   0.81147   0.00000  Uiso   1.00
C1102  C     0.40189   0.50237   0.53705   0.00000  Uiso   1.00
C1103  C     0.56472   0.57402   0.98467   0.00000  Uiso   1.00
C1104  C     0.54445   0.64657   0.73912   0.00000  Uiso   1.00
C1105  C     0.45435   0.35383   0.76882   0.00000  Uiso   1.00
C1106  C     0.54226   0.35557   0.74153   0.00000  Uiso   1.00
H1107  H     0.48865   0.48540   0.60145   0.00000  Uiso   1.00
H1108  H     0.66640   0.44455   0.97946   0.00000  Uiso   1.00
H1109  H     0.63343   0.61262   0.55433   0.00000  Uiso   1.00
H1110  H     0.66615   0.56977   0.52906   0.00000  Uiso   1.00
H1111  H     0.40883   0.42085   0.71231   0.00000  Uiso   1.00
H1112  H     0.42898   0.45614   0.66857   0.00000  Uiso   1.00
H1113  H     0.60863   0.58442   0.80285   0.00000  Uiso   1.00
H1114  H     0.59345   0.54778   0.84375   0.00000  Uiso   1.00
H1115  H     0.51529   0.52375   0.89307   0.00000  Uiso   1.00
H1116  H     0.57571   0.37254   0.73246   0.00000  Uiso   1.00
H1117  H     0.42293   0.62753   0.77619   0.00000  Uiso   1.00
H1118  H     0.62985   0.53596   0.63137   0.00000  Uiso   1.00
H1119  H     0.58825   0.57417   0.65316   0.00000  Uiso   1.00
H1120  H     0.36149   0.48986   0.87441   0.00000  Uiso   1.00
H1121  H     0.39165   0.44375   0.86908   0.00000  Uiso   1.00
H1122  H     0.64700   0.49356   0.97729   0.00000  Uiso   1.00
N1123  N     0.38093   0.50001   0.75001   0.00000  Uiso   1.00
N1124  N     0.52854   0.61222   0.89604   0.00000  Uiso   1.00
N1125  N     0.63021   0.61335   0.71085   0.00000  Uiso   1.00
N1126  N     0.36949   0.38841   0.80369   0.00000  Uiso   1.00
N1127  N     0.62831   0.41958   0.66927   0.00000  Uiso   1.00
N1128  N     0.36869   0.57454   0.83795   0.00000  Uiso   1.00
N1129  N     0.39917   0.44212   0.69239   0.00000  Uiso   1.00
N1130  N     0.59643   0.55404   0.80960   0.00000  Uiso   1.00
N1131  N     0.61907   0.49999   0.74999   0.00000  Uiso   1.00
N1132  N     0.65626   0.46587   0.58746   0.00000  Uiso   1.00
N1133  N     0.63589   0.62301   0.94155   0.00000  Uiso   1.00
N1134  N     0.61219   0.56035   0.62260   0.00000  Uiso   1.00
N1135  N     0.37260   0.46734   0.89220   0.00000  Uiso   1.00
N1136  N     0.33678   0.47561   0.98810   0.00000  Uiso   1.00
N1137  N     0.63572   0.58726   0.53166   0.00000  Uiso   1.00
N1138  N     0.39879   0.53747   0.64731   0.00000  Uiso   1.00
O1139  O     0.46179   0.56108   0.75000   0.00000  Uiso   1.00
O1140  O     0.53821   0.43892   0.74999   0.00000  Uiso   1.00
O1141  O     0.53823   0.56107   0.75000   0.00000  Uiso   1.00
O1142  O     0.46177   0.43893   0.75000   0.00000  Uiso   1.00
O1143  O     0.43994   0.50001   0.81612   0.00000  Uiso   1.00
O1144  O     0.56006   0.49999   0.68387   0.00000  Uiso   1.00
O1145  O     0.51639   0.50000   0.81612   0.00000  Uiso   1.00
O1146  O     0.48361   0.50000   0.68388   0.00000  Uiso   1.00
Zn1147 Zn    0.44896   0.50001   0.75000   0.00000  Uiso   1.00
Zn1148 Zn    0.55104   0.49999   0.75000   0.00000  Uiso   1.00
C1149  C     0.83380   0.57999   0.74964   0.00000  Uiso   1.00
C1150  C     0.78973   0.64466   0.76596   0.00000  Uiso   1.00
C1151  C     0.83128   0.37601   0.75459   0.00000  Uiso   1.00
C1152  C     0.83428   0.62424   0.75084   0.00000  Uiso   1.00
C1153  C     0.98577   0.47286   0.72200   0.00000  Uiso   1.00
C1154  C     0.68020   0.52653   0.77903   0.00000  Uiso   1.00
C1155  C     0.70010   0.47243   0.72204   0.00000  Uiso   1.00
C1156  C     0.96543   0.52667   0.77887   0.00000  Uiso   1.00
C1157  C     0.80314   0.49923   0.83811   0.00000  Uiso   1.00
C1158  C     0.86322   0.50294   0.66210   0.00000  Uiso   1.00
C1159  C     0.78325   0.49995   0.88935   0.00000  Uiso   1.00
C1160  C     0.83238   0.42013   0.75197   0.00000  Uiso   1.00
C1161  C     0.87986   0.51681   0.61346   0.00000  Uiso   1.00
C1162  C     0.71890   0.48818   0.96363   0.00000  Uiso   1.00
C1163  C     0.92711   0.56202   0.55109   0.00000  Uiso   1.00
C1164  C     0.73628   0.48597   0.91475   0.00000  Uiso   1.00
C1165  C     0.91809   0.54511   0.59534   0.00000  Uiso   1.00
C1166  C     0.81173   0.51620   0.91311   0.00000  Uiso   1.00
C1167  C     0.84965   0.50859   0.58861   0.00000  Uiso   1.00
C1168  C     0.79454   0.52079   0.96178   0.00000  Uiso   1.00
C1169  C     0.85214   0.53140   0.54976   0.00000  Uiso   1.00
C1170  C     0.74890   0.50356   0.98787   0.00000  Uiso   1.00
C1171  C     0.76696   0.51682   0.55871   0.00000  Uiso   1.00
C1172  C     0.89359   0.55566   0.52769   0.00000  Uiso   1.00
C1173  C     0.82458   0.53810   0.98480   0.00000  Uiso   1.00
C1174  C     0.81463   0.52826   0.53146   0.00000  Uiso   1.00
C1175  C     0.69131   0.48237   0.56550   0.00000  Uiso   1.00
C1176  C     0.93772   0.60127   0.96082   0.00000  Uiso   1.00
C1177  C     0.74759   0.52786   0.60815   0.00000  Uiso   1.00
C1178  C     0.86259   0.59148   0.92594   0.00000  Uiso   1.00
C1179  C     0.92536   0.62794   0.72342   0.00000  Uiso   1.00
C1180  C     0.74058   0.37314   0.78815   0.00000  Uiso   1.00
C1181  C     0.97213   0.44351   0.69277   0.00000  Uiso   1.00
C1182  C     0.86330   0.56568   0.96378   0.00000  Uiso   1.00
C1183  C     0.69257   0.55324   0.81147   0.00000  Uiso   1.00
C1184  C     0.73523   0.50237   0.53705   0.00000  Uiso   1.00
C1185  C     0.89805   0.57402   0.98467   0.00000  Uiso   1.00
C1186  C     0.87778   0.64657   0.73912   0.00000  Uiso   1.00
C1187  C     0.78769   0.35383   0.76882   0.00000  Uiso   1.00
C1188  C     0.87560   0.35557   0.74153   0.00000  Uiso   1.00
H1189  H     0.82198   0.48540   0.60145   0.00000  Uiso   1.00
H1190  H     0.99974   0.44455   0.97946   0.00000  Uiso   1.00
H1191  H     0.96676   0.61262   0.55433   0.00000  Uiso   1.00
H1192  H     0.99948   0.56977   0.52906   0.00000  Uiso   1.00
H1193  H     0.74217   0.42085   0.71231   0.00000  Uiso   1.00
H1194  H     0.76231   0.45614   0.66857   0.00000  Uiso   1.00
H1195  H     0.94196   0.58442   0.80285   0.00000  Uiso   1.00
H1196  H     0.92678   0.54778   0.84375   0.00000  Uiso   1.00
H1197  H     0.84862   0.52375   0.89307   0.00000  Uiso   1.00
H1198  H     0.90904   0.37254   0.73246   0.00000  Uiso   1.00
H1199  H     0.75626   0.62753   0.77619   0.00000  Uiso   1.00
H1200  H     0.96318   0.53596   0.63137   0.00000  Uiso   1.00
H1201  H     0.92159   0.57417   0.65316   0.00000  Uiso   1.00
H1202  H     0.69483   0.48986   0.87441   0.00000  Uiso   1.00
H1203  H     0.72499   0.44375   0.86908   0.00000  Uiso   1.00
H1204  H     0.98034   0.49356   0.97729   0.00000  Uiso   1.00
N1205  N     0.71426   0.50001   0.75001   0.00000  Uiso   1.00
N1206  N     0.86187   0.61222   0.89604   0.00000  Uiso   1.00
N1207  N     0.96355   0.61335   0.71085   0.00000  Uiso   1.00
N1208  N     0.70282   0.38841   0.80369   0.00000  Uiso   1.00
N1209  N     0.96165   0.41958   0.66927   0.00000  Uiso   1.00
N1210  N     0.70202   0.57454   0.83795   0.00000  Uiso   1.00
N1211  N     0.73251   0.44212   0.69239   0.00000  Uiso   1.00
N1212  N     0.92976   0.55404   0.80960   0.00000  Uiso   1.00
N1213  N     0.95241   0.49999   0.74999   0.00000  Uiso   1.00
N1214  N     0.98959   0.46587   0.58746   0.00000  Uiso   1.00
N1215  N     0.96922   0.62301   0.94155   0.00000  Uiso   1.00
N1216  N     0.94552   0.56035   0.62260   0.00000  Uiso   1.00
N1217  N     0.70593   0.46734   0.89220   0.00000  Uiso   1.00
N1218  N     0.67011   0.47561   0.98810   0.00000  Uiso   1.00
N1219  N     0.96905   0.58726   0.53166   0.00000  Uiso   1.00
N1220  N     0.73213   0.53747   0.64731   0.00000  Uiso   1.00
O1221  O     0.79512   0.56108   0.75000   0.00000  Uiso   1.00
O1222  O     0.87154   0.43892   0.74999   0.00000  Uiso   1.00
O1223  O     0.87157   0.56107   0.75000   0.00000  Uiso   1.00
O1224  O     0.79510   0.43893   0.75000   0.00000  Uiso   1.00
O1225  O     0.77328   0.50001   0.81612   0.00000  Uiso   1.00
O1226  O     0.89339   0.49999   0.68387   0.00000  Uiso   1.00
O1227  O     0.84972   0.50000   0.81612   0.00000  Uiso   1.00
O1228  O     0.81695   0.50000   0.68388   0.00000  Uiso   1.00
Zn1229 Zn    0.78229   0.50001   0.75000   0.00000  Uiso   1.00
Zn1230 Zn    0.88438   0.49999   0.75000   0.00000  Uiso   1.00
C1231  C     0.16714   0.91332   0.74964   0.00000  Uiso   1.00
C1232  C     0.12306   0.97799   0.76596   0.00000  Uiso   1.00
C1233  C     0.16461   0.70934   0.75459   0.00000  Uiso   1.00
C1234  C     0.16761   0.95757   0.75084   0.00000  Uiso   1.00
C1235  C     0.31910   0.80619   0.72200   0.00000  Uiso   1.00
C1236  C     0.01353   0.85986   0.77903   0.00000  Uiso   1.00
C1237  C     0.03343   0.80576   0.72204   0.00000  Uiso   1.00
C1238  C     0.29877   0.86000   0.77887   0.00000  Uiso   1.00
C1239  C     0.13648   0.83257   0.83811   0.00000  Uiso   1.00
C1240  C     0.19655   0.83627   0.66210   0.00000  Uiso   1.00
C1241  C     0.11658   0.83329   0.88935   0.00000  Uiso   1.00
C1242  C     0.16572   0.75346   0.75197   0.00000  Uiso   1.00
C1243  C     0.21319   0.85015   0.61346   0.00000  Uiso   1.00
C1244  C     0.05223   0.82152   0.96363   0.00000  Uiso   1.00
C1245  C     0.26045   0.89535   0.55109   0.00000  Uiso   1.00
C1246  C     0.06961   0.81930   0.91475   0.00000  Uiso   1.00
C1247  C     0.25142   0.87844   0.59534   0.00000  Uiso   1.00
C1248  C     0.14506   0.84953   0.91311   0.00000  Uiso   1.00
C1249  C     0.18298   0.84192   0.58861   0.00000  Uiso   1.00
C1250  C     0.12787   0.85412   0.96178   0.00000  Uiso   1.00
C1251  C     0.18547   0.86474   0.54976   0.00000  Uiso   1.00
C1252  C     0.08224   0.83689   0.98787   0.00000  Uiso   1.00
C1253  C     0.10030   0.85016   0.55871   0.00000  Uiso   1.00
C1254  C     0.22692   0.88899   0.52769   0.00000  Uiso   1.00
C1255  C     0.15792   0.87144   0.98480   0.00000  Uiso   1.00
C1256  C     0.14796   0.86160   0.53146   0.00000  Uiso   1.00
C1257  C     0.02465   0.81570   0.56550   0.00000  Uiso   1.00
C1258  C     0.27105   0.93460   0.96082   0.00000  Uiso   1.00
C1259  C     0.08093   0.86120   0.60815   0.00000  Uiso   1.00
C1260  C     0.19592   0.92481   0.92594   0.00000  Uiso   1.00
C1261  C     0.25869   0.96127   0.72342   0.00000  Uiso   1.00
C1262  C     0.07392   0.70647   0.78815   0.00000  Uiso   1.00
C1263  C     0.30547   0.77684   0.69277   0.00000  Uiso   1.00
C1264  C     0.19664   0.89901   0.96378   0.00000  Uiso   1.00
C1265  C     0.02591   0.88657   0.81147   0.00000  Uiso   1.00
C1266  C     0.06856   0.83571   0.53705   0.00000  Uiso   1.00
C1267  C     0.23138   0.90735   0.98467   0.00000  Uiso   1.00
C1268  C     0.21112   0.97990   0.73912   0.00000  Uiso   1.00
C1269  C     0.12102   0.68716   0.76882   0.00000  Uiso   1.00
C1270  C     0.20893   0.68890   0.74153   0.00000  Uiso   1.00
H1271  H     0.15531   0.81873   0.60145   0.00000  Uiso   1.00
H1272  H     0.33307   0.77789   0.97946   0.00000  Uiso   1.00
H1273  H     0.30010   0.94595   0.55433   0.00000  Uiso   1.00
H1274  H     0.33281   0.90310   0.52906   0.00000  Uiso   1.00
H1275  H     0.07550   0.75419   0.71231   0.00000  Uiso   1.00
H1276  H     0.09565   0.78947   0.66857   0.00000  Uiso   1.00
H1277  H     0.27530   0.91776   0.80285   0.00000  Uiso   1.00
H1278  H     0.26011   0.88111   0.84375   0.00000  Uiso   1.00
H1279  H     0.18196   0.85709   0.89307   0.00000  Uiso   1.00
H1280  H     0.24238   0.70587   0.73246   0.00000  Uiso   1.00
H1281  H     0.08960   0.96086   0.77619   0.00000  Uiso   1.00
H1282  H     0.29652   0.86929   0.63137   0.00000  Uiso   1.00
H1283  H     0.25492   0.90750   0.65316   0.00000  Uiso   1.00
H1284  H     0.02816   0.82319   0.87441   0.00000  Uiso   1.00
H1285  H     0.05832   0.77708   0.86908   0.00000  Uiso   1.00
H1286  H     0.31367   0.82689   0.97729   0.00000  Uiso   1.00
N1287  N     0.04759   0.83334   0.75001   0.00000  Uiso   1.00
N1288  N     0.19521   0.94555   0.89604   0.00000  Uiso   1.00
N1289  N     0.29688   0.94669   0.71085   0.00000  Uiso   1.00
N1290  N     0.03615   0.72174   0.80369   0.00000  Uiso   1.00
N1291  N     0.29498   0.75291   0.66927   0.00000  Uiso   1.00
N1292  N     0.03536   0.90787   0.83795   0.00000  Uiso   1.00
N1293  N     0.06584   0.77545   0.69239   0.00000  Uiso   1.00
N1294  N     0.26310   0.88737   0.80960   0.00000  Uiso   1.00
N1295  N     0.28574   0.83332   0.74999   0.00000  Uiso   1.00
N1296  N     0.32293   0.79921   0.58746   0.00000  Uiso   1.00
N1297  N     0.30256   0.95635   0.94155   0.00000  Uiso   1.00
N1298  N     0.27885   0.89368   0.62260   0.00000  Uiso   1.00
N1299  N     0.03927   0.80067   0.89220   0.00000  Uiso   1.00
N1300  N     0.00344   0.80895   0.98810   0.00000  Uiso   1.00
N1301  N     0.30239   0.92059   0.53166   0.00000  Uiso   1.00
N1302  N     0.06546   0.87080   0.64731   0.00000  Uiso   1.00
O1303  O     0.12846   0.89442   0.75000   0.00000  Uiso   1.00
O1304  O     0.20488   0.77225   0.74999   0.00000  Uiso   1.00
O1305  O     0.20490   0.89441   0.75000   0.00000  Uiso   1.00
O1306  O     0.12843   0.77226   0.75000   0.00000  Uiso   1.00
O1307  O     0.10661   0.83334   0.81612   0.00000  Uiso   1.00
O1308  O     0.22672   0.83333   0.68387   0.00000  Uiso   1.00
O1309  O     0.18305   0.83333   0.81612   0.00000  Uiso   1.00
O1310  O     0.15028   0.83334   0.68388   0.00000  Uiso   1.00
Zn1311 Zn    0.11562   0.83334   0.75000   0.00000  Uiso   1.00
Zn1312 Zn    0.21771   0.83333   0.75000   0.00000  Uiso   1.00
C1313  C     0.50047   0.91332   0.74964   0.00000  Uiso   1.00
C1314  C     0.45640   0.97799   0.76596   0.00000  Uiso   1.00
C1315  C     0.49794   0.70934   0.75459   0.00000  Uiso   1.00
C1316  C     0.50094   0.95757   0.75084   0.00000  Uiso   1.00
C1317  C     0.65244   0.80619   0.72200   0.00000  Uiso   1.00
C1318  C     0.34687   0.85986   0.77903   0.00000  Uiso   1.00
C1319  C     0.36677   0.80576   0.72204   0.00000  Uiso   1.00
C1320  C     0.63210   0.86000   0.77887   0.00000  Uiso   1.00
C1321  C     0.46981   0.83257   0.83811   0.00000  Uiso   1.00
C1322  C     0.52988   0.83627   0.66210   0.00000  Uiso   1.00
C1323  C     0.44992   0.83329   0.88935   0.00000  Uiso   1.00
C1324  C     0.49905   0.75346   0.75197   0.00000  Uiso   1.00
C1325  C     0.54652   0.85015   0.61346   0.00000  Uiso   1.00
C1326  C     0.38556   0.82152   0.96363   0.00000  Uiso   1.00
C1327  C     0.59378   0.89535   0.55109   0.00000  Uiso   1.00
C1328  C     0.40295   0.81930   0.91475   0.00000  Uiso   1.00
C1329  C     0.58476   0.87844   0.59534   0.00000  Uiso   1.00
C1330  C     0.47839   0.84953   0.91311   0.00000  Uiso   1.00
C1331  C     0.51632   0.84192   0.58861   0.00000  Uiso   1.00
C1332  C     0.46120   0.85412   0.96178   0.00000  Uiso   1.00
C1333  C     0.51880   0.86474   0.54976   0.00000  Uiso   1.00
C1334  C     0.41557   0.83689   0.98787   0.00000  Uiso   1.00
C1335  C     0.43363   0.85016   0.55871   0.00000  Uiso   1.00
C1336  C     0.56026   0.88899   0.52769   0.00000  Uiso   1.00
C1337  C     0.49125   0.87144   0.98480   0.00000  Uiso   1.00
C1338  C     0.48129   0.86160   0.53146   0.00000  Uiso   1.00
C1339  C     0.35798   0.81570   0.56550   0.00000  Uiso   1.00
C1340  C     0.60438   0.93460   0.96082   0.00000  Uiso   1.00
C1341  C     0.41426   0.86120   0.60815   0.00000  Uiso   1.00
C1342  C     0.52926   0.92481   0.92594   0.00000  Uiso   1.00
C1343  C     0.59203   0.96127   0.72342   0.00000  Uiso   1.00
C1344  C     0.40725   0.70647   0.78815   0.00000  Uiso   1.00
C1345  C     0.63880   0.77684   0.69277   0.00000  Uiso   1.00
C1346  C     0.52997   0.89901   0.96378   0.00000  Uiso   1.00
C1347  C     0.35924   0.88657   0.81147   0.00000  Uiso   1.00
C1348  C     0.40189   0.83571   0.53705   0.00000  Uiso   1.00
C1349  C     0.56472   0.90735   0.98467   0.00000  Uiso   1.00
C1350  C     0.54445   0.97990   0.73912   0.00000  Uiso   1.00
C1351  C     0.45435   0.68716   0.76882   0.00000  Uiso   1.00
C1352  C     0.54226   0.68890   0.74153   0.00000  Uiso   1.00
H1353  H     0.48865   0.81873   0.60145   0.00000  Uiso   1.00
H1354  H     0.66640   0.77789   0.97946   0.00000  Uiso   1.00
H1355  H     0.63343   0.94595   0.55433   0.00000  Uiso   1.00
H1356  H     0.66615   0.90310   0.52906   0.00000  Uiso   1.00
H1357  H     0.40883   0.75419   0.71231   0.00000  Uiso   1.00
H1358  H     0.42898   0.78947   0.66857   0.00000  Uiso   1.00
H1359  H     0.60863   0.91776   0.80285   0.00000  Uiso   1.00
H1360  H     0.59345   0.88111   0.84375   0.00000  Uiso   1.00
H1361  H     0.51529   0.85709   0.89307   0.00000  Uiso   1.00
H1362  H     0.57571   0.70587   0.73246   0.00000  Uiso   1.00
H1363  H     0.42293   0.96086   0.77619   0.00000  Uiso   1.00
H1364  H     0.62985   0.86929   0.63137   0.00000  Uiso   1.00
H1365  H     0.58825   0.90750   0.65316   0.00000  Uiso   1.00
H1366  H     0.36149   0.82319   0.87441   0.00000  Uiso   1.00
H1367  H     0.39165   0.77708   0.86908   0.00000  Uiso   1.00
H1368  H     0.64700   0.82689   0.97729   0.00000  Uiso   1.00
N1369  N     0.38093   0.83334   0.75001   0.00000  Uiso   1.00
N1370  N     0.52854   0.94555   0.89604   0.00000  Uiso   1.00
N1371  N     0.63021   0.94669   0.71085   0.00000  Uiso   1.00
N1372  N     0.36949   0.72174   0.80369   0.00000  Uiso   1.00
N1373  N     0.62831   0.75291   0.66927   0.00000  Uiso   1.00
N1374  N     0.36869   0.90787   0.83795   0.00000  Uiso   1.00
N1375  N     0.39917   0.77545   0.69239   0.00000  Uiso   1.00
N1376  N     0.59643   0.88737   0.80960   0.00000  Uiso   1.00
N1377  N     0.61907   0.83332   0.74999   0.00000  Uiso   1.00
N1378  N     0.65626   0.79921   0.58746   0.00000  Uiso   1.00
N1379  N     0.63589   0.95635   0.94155   0.00000  Uiso   1.00
N1380  N     0.61219   0.89368   0.62260   0.00000  Uiso   1.00
N1381  N     0.37260   0.80067   0.89220   0.00000  Uiso   1.00
N1382  N     0.33678   0.80895   0.98810   0.00000  Uiso   1.00
N1383  N     0.63572   0.92059   0.53166   0.00000  Uiso   1.00
N1384  N     0.39879   0.87080   0.64731   0.00000  Uiso   1.00
O1385  O     0.46179   0.89442   0.75000   0.00000  Uiso   1.00
O1386  O     0.53821   0.77225   0.74999   0.00000  Uiso   1.00
O1387  O     0.53823   0.89441   0.75000   0.00000  Uiso   1.00
O1388  O     0.46177   0.77226   0.75000   0.00000  Uiso   1.00
O1389  O     0.43994   0.83334   0.81612   0.00000  Uiso   1.00
O1390  O     0.56006   0.83333   0.68387   0.00000  Uiso   1.00
O1391  O     0.51639   0.83333   0.81612   0.00000  Uiso   1.00
O1392  O     0.48361   0.83334   0.68388   0.00000  Uiso   1.00
Zn1393 Zn    0.44896   0.83334   0.75000   0.00000  Uiso   1.00
Zn1394 Zn    0.55104   0.83333   0.75000   0.00000  Uiso   1.00
C1395  C     0.83380   0.91332   0.74964   0.00000  Uiso   1.00
C1396  C     0.78973   0.97799   0.76596   0.00000  Uiso   1.00
C1397  C     0.83128   0.70934   0.75459   0.00000  Uiso   1.00
C1398  C     0.83428   0.95757   0.75084   0.00000  Uiso   1.00
C1399  C     0.98577   0.80619   0.72200   0.00000  Uiso   1.00
C1400  C     0.68020   0.85986   0.77903   0.00000  Uiso   1.00
C1401  C     0.70010   0.80576   0.72204   0.00000  Uiso   1.00
C1402  C     0.96543   0.86000   0.77887   0.00000  Uiso   1.00
C1403  C     0.80314   0.83257   0.83811   0.00000  Uiso   1.00
C1404  C     0.86322   0.83627   0.66210   0.00000  Uiso   1.00
C1405  C     0.78325   0.83329   0.88935   0.00000  Uiso   1.00
C1406  C     0.83238   0.75346   0.75197   0.00000  Uiso   1.00
C1407  C     0.87986   0.85015   0.61346   0.00000  Uiso   1.00
C1408  C     0.71890   0.82152   0.96363   0.00000  Uiso   1.00
C1409  C     0.92711   0.89535   0.55109   0.00000  Uiso   1.00
C1410  C     0.73628   0.81930   0.91475   0.00000  Uiso   1.00
C1411  C     0.91809   0.87844   0.59534   0.00000  Uiso   1.00
C1412  C     0.81173   0.84953   0.91311   0.00000  Uiso   1.00
C1413  C     0.84965   0.84192   0.58861   0.00000  Uiso   1.00
C1414  C     0.79454   0.85412   0.96178   0.00000  Uiso   1.00
C1415  C     0.85214   0.86474   0.54976   0.00000  Uiso   1.00
C1416  C     0.74890   0.83689   0.98787   0.00000  Uiso   1.00
C1417  C     0.76696   0.85016   0.55871   0.00000  Uiso   1.00
C1418  C     0.89359   0.88899   0.52769   0.00000  Uiso   1.00
C1419  C     0.82458   0.87144   0.98480   0.00000  Uiso   1.00
C1420  C     0.81463   0.86160   0.53146   0.00000  Uiso   1.00
C1421  C     0.69131   0.81570   0.56550   0.00000  Uiso   1.00
C1422  C     0.93772   0.93460   0.96082   0.00000  Uiso   1.00
C1423  C     0.74759   0.86120   0.60815   0.00000  Uiso   1.00
C1424  C     0.86259   0.92481   0.92594   0.00000  Uiso   1.00
C1425  C     0.92536   0.96127   0.72342   0.00000  Uiso   1.00
C1426  C     0.74058   0.70647   0.78815   0.00000  Uiso   1.00
C1427  C     0.97213   0.77684   0.69277   0.00000  Uiso   1.00
C1428  C     0.86330   0.89901   0.96378   0.00000  Uiso   1.00
C1429  C     0.69257   0.88657   0.81147   0.00000  Uiso   1.00
C1430  C     0.73523   0.83571   0.53705   0.00000  Uiso   1.00
C1431  C     0.89805   0.90735   0.98467   0.00000  Uiso   1.00
C1432  C     0.87778   0.97990   0.73912   0.00000  Uiso   1.00
C1433  C     0.78769   0.68716   0.76882   0.00000  Uiso   1.00
C1434  C     0.87560   0.68890   0.74153   0.00000  Uiso   1.00
H1435  H     0.82198   0.81873   0.60145   0.00000  Uiso   1.00
H1436  H     0.99974   0.77789   0.97946   0.00000  Uiso   1.00
H1437  H     0.96676   0.94595   0.55433   0.00000  Uiso   1.00
H1438  H     0.99948   0.90310   0.52906   0.00000  Uiso   1.00
H1439  H     0.74217   0.75419   0.71231   0.00000  Uiso   1.00
H1440  H     0.76231   0.78947   0.66857   0.00000  Uiso   1.00
H1441  H     0.94196   0.91776   0.80285   0.00000  Uiso   1.00
H1442  H     0.92678   0.88111   0.84375   0.00000  Uiso   1.00
H1443  H     0.84862   0.85709   0.89307   0.00000  Uiso   1.00
H1444  H     0.90904   0.70587   0.73246   0.00000  Uiso   1.00
H1445  H     0.75626   0.96086   0.77619   0.00000  Uiso   1.00
H1446  H     0.96318   0.86929   0.63137   0.00000  Uiso   1.00
H1447  H     0.92159   0.90750   0.65316   0.00000  Uiso   1.00
H1448  H     0.69483   0.82319   0.87441   0.00000  Uiso   1.00
H1449  H     0.72499   0.77708   0.86908   0.00000  Uiso   1.00
H1450  H     0.98034   0.82689   0.97729   0.00000  Uiso   1.00
N1451  N     0.71426   0.83334   0.75001   0.00000  Uiso   1.00
N1452  N     0.86187   0.94555   0.89604   0.00000  Uiso   1.00
N1453  N     0.96355   0.94669   0.71085   0.00000  Uiso   1.00
N1454  N     0.70282   0.72174   0.80369   0.00000  Uiso   1.00
N1455  N     0.96165   0.75291   0.66927   0.00000  Uiso   1.00
N1456  N     0.70202   0.90787   0.83795   0.00000  Uiso   1.00
N1457  N     0.73251   0.77545   0.69239   0.00000  Uiso   1.00
N1458  N     0.92976   0.88737   0.80960   0.00000  Uiso   1.00
N1459  N     0.95241   0.83332   0.74999   0.00000  Uiso   1.00
N1460  N     0.98959   0.79921   0.58746   0.00000  Uiso   1.00
N1461  N     0.96922   0.95635   0.94155   0.00000  Uiso   1.00
N1462  N     0.94552   0.89368   0.62260   0.00000  Uiso   1.00
N1463  N     0.70593   0.80067   0.89220   0.00000  Uiso   1.00
N1464  N     0.67011   0.80895   0.98810   0.00000  Uiso   1.00
N1465  N     0.96905   0.92059   0.53166   0.00000  Uiso   1.00
N1466  N     0.73213   0.87080   0.64731   0.00000  Uiso   1.00
O1467  O     0.79512   0.89442   0.75000   0.00000  Uiso   1.00
O1468  O     0.87154   0.77225   0.74999   0.00000  Uiso   1.00
O1469  O     0.87157   0.89441   0.75000   0.00000  Uiso   1.00
O1470  O     0.79510   0.77226   0.75000   0.00000  Uiso   1.00
O1471  O     0.77328   0.83334   0.81612   0.00000  Uiso   1.00
O1472  O     0.89339   0.83333   0.68387   0.00000  Uiso   1.00
O1473  O     0.84972   0.83333   0.81612   0.00000  Uiso   1.00
O1474  O     0.81695   0.83334   0.68388   0.00000  Uiso   1.00
Zn1475 Zn    0.78229   0.83334   0.75000   0.00000  Uiso   1.00
Zn1476 Zn    0.88438   0.83333   0.75000   0.00000  Uiso   1.00
loop_
_geom_bond_atom_site_label_1
_geom_bond_atom_site_label_2
_geom_bond_distance
_geom_bond_site_symmetry_2
_ccdc_geom_bond_type
C1     O75     1.283   .     A
C1     C4      1.429   .     S
C1     O73     1.294   .     A
C2     C4      1.398   .     A
C2     H51     1.083   .     S
C2     C285    1.374   .     S
C3     C12     1.430   .     S
C3     C39     1.408   .     A
C3     C40     1.395   .     A
C4     C38     1.411   .     A
C5     C33     1.439   .     S
C5     N65     1.360   .     A
C5     C89     1.415   .     S
C6     C35     1.440   .     S
C6     N57     1.369   .     A
C6     C172    1.429   1_455 S
C7     N63     1.432   .     S
C7     N57     1.383   .     A
C7     C169    1.415   1_455 S
C8     N65     1.368   .     A
C8     N64     1.430   .     S
C8     C88     1.429   .     S
C9     O79     1.305   .     A
C9     O77     1.291   .     A
C9     C11     1.469   .     S
C10    O78     1.298   .     A
C10    O80     1.300   .     A
C10    C13     1.477   .     S
C11    C18     1.389   .     A
C11    C16     1.412   .     A
C12    O74     1.291   .     A
C12    O76     1.286   .     A
C13    C19     1.388   .     A
C13    C17     1.414   .     A
C14    N70     1.436   .     S
C14    C16     1.401   .     A
C14    C22     1.427   .     A
C15    C24     1.429   .     A
C15    C17     1.412   .     A
C15    N71     1.435   .     S
C16    N69     1.436   .     S
C17    N68     1.435   .     S
C18    C20     1.399   .     A
C18    H49     1.078   .     S
C19    C21     1.399   .     A
C19    H41     1.082   .     S
C20    C25     1.423   .     A
C20    C22     1.425   .     A
C21    C26     1.415   .     A
C21    C24     1.419   .     A
C22    C774    1.417   .     S
C23    C29     1.452   .     S
C23    C26     1.417   .     A
C23    C36     1.403   .     A
C24    C775    1.425   1_554 S
C25    C34     1.423   .     A
C25    C764    1.400   .     S
C26    C763    1.400   1_554 S
C27    C36     1.446   .     S
C27    N230    1.156   1_455 S
C28    N67     1.158   .     T
C28    C37     1.452   .     S
C29    N72     1.157   .     T
C30    C34     1.454   .     S
C30    N58     1.158   .     T
C31    N59     1.158   .     T
C31    C38     1.448   .     S
C32    N60     1.158   .     T
C32    C39     1.447   .     S
C33    N61     1.157   .     T
C34    C37     1.415   .     A
C35    N62     1.157   .     T
C36    C760    1.417   1_554 S
C37    C762    1.425   .     S
C38    C286    1.368   .     S
C39    C494    1.374   1_545 S
C40    H50     1.081   .     S
C40    C530    1.368   1_545 S
H42    N152    1.046   .     S
H43    N71     1.046   .     S
H44    N71     1.046   .     S
H45    N63     1.039   .     S
H46    N63     1.037   .     S
H47    N64     1.045   .     S
H48    N64     1.045   .     S
H52    N68     1.042   .     S
H53    N68     1.043   .     S
H54    N69     1.044   .     S
H55    N69     1.045   .     S
H56    N152    1.046   .     S
N57    Zn81    2.019   .     S
N65    Zn82    2.019   .     S
N66    C109    1.156   .     S
N70    H206    1.046   1_455 S
N70    H220    1.046   1_455 S
O73    Zn81    2.008   .     S
O74    Zn82    2.008   .     S
O75    Zn82    2.012   .     S
O76    Zn81    2.012   .     S
O77    Zn81    1.949   .     S
O78    Zn82    1.949   .     S
O79    Zn82    1.920   .     S
O80    Zn81    1.920   .     S
C83    O157    1.283   .     A
C83    C86     1.429   .     S
C83    O155    1.294   .     A
C84    C86     1.398   .     A
C84    H133    1.083   .     S
C84    C367    1.374   .     S
C85    C94     1.430   .     S
C85    C121    1.408   .     A
C85    C122    1.395   .     A
C86    C120    1.411   .     A
C87    C115    1.439   .     S
C87    N147    1.360   .     A
C87    C171    1.415   .     S
C88    C117    1.440   .     S
C88    N139    1.369   .     A
C89    N145    1.432   .     S
C89    N139    1.383   .     A
C90    N147    1.368   .     A
C90    N146    1.430   .     S
C90    C170    1.429   .     S
C91    O161    1.305   .     A
C91    O159    1.291   .     A
C91    C93     1.469   .     S
C92    O160    1.298   .     A
C92    O162    1.300   .     A
C92    C95     1.477   .     S
C93    C100    1.389   .     A
C93    C98     1.412   .     A
C94    O156    1.291   .     A
C94    O158    1.286   .     A
C95    C101    1.388   .     A
C95    C99     1.414   .     A
C96    N152    1.436   .     S
C96    C98     1.401   .     A
C96    C104    1.427   .     A
C97    C106    1.429   .     A
C97    C99     1.412   .     A
C97    N153    1.435   .     S
C98    N151    1.436   .     S
C99    N150    1.435   .     S
C100   C102    1.399   .     A
C100   H131    1.078   .     S
C101   C103    1.399   .     A
C101   H123    1.082   .     S
C102   C107    1.423   .     A
C102   C104    1.425   .     A
C103   C108    1.415   .     A
C103   C106    1.419   .     A
C104   C856    1.417   .     S
C105   C111    1.452   .     S
C105   C108    1.417   .     A
C105   C118    1.403   .     A
C106   C857    1.425   1_554 S
C107   C116    1.423   .     A
C107   C846    1.400   .     S
C108   C845    1.400   1_554 S
C109   C118    1.446   .     S
C110   N149    1.158   .     T
C110   C119    1.452   .     S
C111   N154    1.157   .     T
C112   C116    1.454   .     S
C112   N140    1.158   .     T
C113   N141    1.158   .     T
C113   C120    1.448   .     S
C114   N142    1.158   .     T
C114   C121    1.447   .     S
C115   N143    1.157   .     T
C116   C119    1.415   .     A
C117   N144    1.157   .     T
C118   C842    1.417   1_554 S
C119   C844    1.425   .     S
C120   C368    1.368   .     S
C121   C576    1.374   1_545 S
C122   H132    1.081   .     S
C122   C612    1.368   1_545 S
H124   N234    1.046   .     S
H125   N153    1.046   .     S
H126   N153    1.046   .     S
H127   N145    1.039   .     S
H128   N145    1.037   .     S
H129   N146    1.045   .     S
H130   N146    1.045   .     S
H134   N150    1.042   .     S
H135   N150    1.043   .     S
H136   N151    1.044   .     S
H137   N151    1.045   .     S
H138   N234    1.046   .     S
N139   Zn163   2.019   .     S
N147   Zn164   2.019   .     S
N148   C191    1.156   .     S
O155   Zn163   2.008   .     S
O156   Zn164   2.008   .     S
O157   Zn164   2.012   .     S
O158   Zn163   2.012   .     S
O159   Zn163   1.949   .     S
O160   Zn164   1.949   .     S
O161   Zn164   1.920   .     S
O162   Zn163   1.920   .     S
C165   O239    1.283   .     A
C165   C168    1.429   .     S
C165   O237    1.294   .     A
C166   C168    1.398   .     A
C166   H215    1.083   .     S
C166   C449    1.374   .     S
C167   C176    1.430   .     S
C167   C203    1.408   .     A
C167   C204    1.395   .     A
C168   C202    1.411   .     A
C169   C197    1.439   .     S
C169   N229    1.360   .     A
C169   C7      1.415   1_655 S
C170   C199    1.440   .     S
C170   N221    1.369   .     A
C171   N227    1.432   .     S
C171   N221    1.383   .     A
C172   N229    1.368   .     A
C172   N228    1.430   .     S
C172   C6      1.429   1_655 S
C173   O243    1.305   .     A
C173   O241    1.291   .     A
C173   C175    1.469   .     S
C174   O242    1.298   .     A
C174   O244    1.300   .     A
C174   C177    1.477   .     S
C175   C182    1.389   .     A
C175   C180    1.412   .     A
C176   O238    1.291   .     A
C176   O240    1.286   .     A
C177   C183    1.388   .     A
C177   C181    1.414   .     A
C178   N234    1.436   .     S
C178   C180    1.401   .     A
C178   C186    1.427   .     A
C179   C188    1.429   .     A
C179   C181    1.412   .     A
C179   N235    1.435   .     S
C180   N233    1.436   .     S
C181   N232    1.435   .     S
C182   C184    1.399   .     A
C182   H213    1.078   .     S
C183   C185    1.399   .     A
C183   H205    1.082   .     S
C184   C189    1.423   .     A
C184   C186    1.425   .     A
C185   C190    1.415   .     A
C185   C188    1.419   .     A
C186   C938    1.417   .     S
C187   C193    1.452   .     S
C187   C190    1.417   .     A
C187   C200    1.403   .     A
C188   C939    1.425   1_554 S
C189   C198    1.423   .     A
C189   C928    1.400   .     S
C190   C927    1.400   1_554 S
C191   C200    1.446   .     S
C192   N231    1.158   .     T
C192   C201    1.452   .     S
C193   N236    1.157   .     T
C194   C198    1.454   .     S
C194   N222    1.158   .     T
C195   N223    1.158   .     T
C195   C202    1.448   .     S
C196   N224    1.158   .     T
C196   C203    1.447   .     S
C197   N225    1.157   .     T
C198   C201    1.415   .     A
C199   N226    1.157   .     T
C200   C924    1.417   1_554 S
C201   C926    1.425   .     S
C202   C450    1.368   .     S
C203   C658    1.374   1_545 S
C204   H214    1.081   .     S
C204   C694    1.368   1_545 S
H206   N70     1.046   1_655 S
H207   N235    1.046   .     S
H208   N235    1.046   .     S
H209   N227    1.039   .     S
H210   N227    1.037   .     S
H211   N228    1.045   .     S
H212   N228    1.045   .     S
H216   N232    1.042   .     S
H217   N232    1.043   .     S
H218   N233    1.044   .     S
H219   N233    1.045   .     S
H220   N70     1.046   1_655 S
N221   Zn245   2.019   .     S
N229   Zn246   2.019   .     S
N230   C27     1.156   1_655 S
O237   Zn245   2.008   .     S
O238   Zn246   2.008   .     S
O239   Zn246   2.012   .     S
O240   Zn245   2.012   .     S
O241   Zn245   1.949   .     S
O242   Zn246   1.949   .     S
O243   Zn246   1.920   .     S
O244   Zn245   1.920   .     S
C247   O321    1.283   .     A
C247   C250    1.429   .     S
C247   O319    1.294   .     A
C248   C250    1.398   .     A
C248   H297    1.083   .     S
C248   C531    1.374   .     S
C249   C258    1.430   .     S
C249   C285    1.408   .     A
C249   C286    1.395   .     A
C250   C284    1.411   .     A
C251   C279    1.439   .     S
C251   N311    1.360   .     A
C251   C335    1.415   .     S
C252   C281    1.440   .     S
C252   N303    1.369   .     A
C252   C418    1.429   1_455 S
C253   N309    1.432   .     S
C253   N303    1.383   .     A
C253   C415    1.415   1_455 S
C254   N311    1.368   .     A
C254   N310    1.430   .     S
C254   C334    1.429   .     S
C255   O325    1.305   .     A
C255   O323    1.291   .     A
C255   C257    1.469   .     S
C256   O324    1.298   .     A
C256   O326    1.300   .     A
C256   C259    1.477   .     S
C257   C264    1.389   .     A
C257   C262    1.412   .     A
C258   O320    1.291   .     A
C258   O322    1.286   .     A
C259   C265    1.388   .     A
C259   C263    1.414   .     A
C260   N316    1.436   .     S
C260   C262    1.401   .     A
C260   C268    1.427   .     A
C261   C270    1.429   .     A
C261   C263    1.412   .     A
C261   N317    1.435   .     S
C262   N315    1.436   .     S
C263   N314    1.435   .     S
C264   C266    1.399   .     A
C264   H295    1.078   .     S
C265   C267    1.399   .     A
C265   H287    1.082   .     S
C266   C271    1.423   .     A
C266   C268    1.425   .     A
C267   C272    1.415   .     A
C267   C270    1.419   .     A
C268   C1020   1.417   .     S
C269   C275    1.452   .     S
C269   C272    1.417   .     A
C269   C282    1.403   .     A
C270   C1021   1.425   1_554 S
C271   C280    1.423   .     A
C271   C1010   1.400   .     S
C272   C1009   1.400   1_554 S
C273   C282    1.446   .     S
C273   N476    1.156   1_455 S
C274   N313    1.158   .     T
C274   C283    1.452   .     S
C275   N318    1.157   .     T
C276   C280    1.454   .     S
C276   N304    1.158   .     T
C277   N305    1.158   .     T
C277   C284    1.448   .     S
C278   N306    1.158   .     T
C278   C285    1.447   .     S
C279   N307    1.157   .     T
C280   C283    1.415   .     A
C281   N308    1.157   .     T
C282   C1006   1.417   1_554 S
C283   C1008   1.425   .     S
C284   C532    1.368   .     S
C286   H296    1.081   .     S
H288   N398    1.046   .     S
H289   N317    1.046   .     S
H290   N317    1.046   .     S
H291   N309    1.039   .     S
H292   N309    1.037   .     S
H293   N310    1.045   .     S
H294   N310    1.045   .     S
H298   N314    1.042   .     S
H299   N314    1.043   .     S
H300   N315    1.044   .     S
H301   N315    1.045   .     S
H302   N398    1.046   .     S
N303   Zn327   2.019   .     S
N311   Zn328   2.019   .     S
N312   C355    1.156   .     S
N316   H452    1.046   1_455 S
N316   H466    1.046   1_455 S
O319   Zn327   2.008   .     S
O320   Zn328   2.008   .     S
O321   Zn328   2.012   .     S
O322   Zn327   2.012   .     S
O323   Zn327   1.949   .     S
O324   Zn328   1.949   .     S
O325   Zn328   1.920   .     S
O326   Zn327   1.920   .     S
C329   O403    1.283   .     A
C329   C332    1.429   .     S
C329   O401    1.294   .     A
C330   C332    1.398   .     A
C330   H379    1.083   .     S
C330   C613    1.374   .     S
C331   C340    1.430   .     S
C331   C367    1.408   .     A
C331   C368    1.395   .     A
C332   C366    1.411   .     A
C333   C361    1.439   .     S
C333   N393    1.360   .     A
C333   C417    1.415   .     S
C334   C363    1.440   .     S
C334   N385    1.369   .     A
C335   N391    1.432   .     S
C335   N385    1.383   .     A
C336   N393    1.368   .     A
C336   N392    1.430   .     S
C336   C416    1.429   .     S
C337   O407    1.305   .     A
C337   O405    1.291   .     A
C337   C339    1.469   .     S
C338   O406    1.298   .     A
C338   O408    1.300   .     A
C338   C341    1.477   .     S
C339   C346    1.389   .     A
C339   C344    1.412   .     A
C340   O402    1.291   .     A
C340   O404    1.286   .     A
C341   C347    1.388   .     A
C341   C345    1.414   .     A
C342   N398    1.436   .     S
C342   C344    1.401   .     A
C342   C350    1.427   .     A
C343   C352    1.429   .     A
C343   C345    1.412   .     A
C343   N399    1.435   .     S
C344   N397    1.436   .     S
C345   N396    1.435   .     S
C346   C348    1.399   .     A
C346   H377    1.078   .     S
C347   C349    1.399   .     A
C347   H369    1.082   .     S
C348   C353    1.423   .     A
C348   C350    1.425   .     A
C349   C354    1.415   .     A
C349   C352    1.419   .     A
C350   C1102   1.417   .     S
C351   C357    1.452   .     S
C351   C354    1.417   .     A
C351   C364    1.403   .     A
C352   C1103   1.425   1_554 S
C353   C362    1.423   .     A
C353   C1092   1.400   .     S
C354   C1091   1.400   1_554 S
C355   C364    1.446   .     S
C356   N395    1.158   .     T
C356   C365    1.452   .     S
C357   N400    1.157   .     T
C358   C362    1.454   .     S
C358   N386    1.158   .     T
C359   N387    1.158   .     T
C359   C366    1.448   .     S
C360   N388    1.158   .     T
C360   C367    1.447   .     S
C361   N389    1.157   .     T
C362   C365    1.415   .     A
C363   N390    1.157   .     T
C364   C1088   1.417   1_554 S
C365   C1090   1.425   .     S
C366   C614    1.368   .     S
C368   H378    1.081   .     S
H370   N480    1.046   .     S
H371   N399    1.046   .     S
H372   N399    1.046   .     S
H373   N391    1.039   .     S
H374   N391    1.037   .     S
H375   N392    1.045   .     S
H376   N392    1.045   .     S
H380   N396    1.042   .     S
H381   N396    1.043   .     S
H382   N397    1.044   .     S
H383   N397    1.045   .     S
H384   N480    1.046   .     S
N385   Zn409   2.019   .     S
N393   Zn410   2.019   .     S
N394   C437    1.156   .     S
O401   Zn409   2.008   .     S
O402   Zn410   2.008   .     S
O403   Zn410   2.012   .     S
O404   Zn409   2.012   .     S
O405   Zn409   1.949   .     S
O406   Zn410   1.949   .     S
O407   Zn410   1.920   .     S
O408   Zn409   1.920   .     S
C411   O485    1.283   .     A
C411   C414    1.429   .     S
C411   O483    1.294   .     A
C412   C414    1.398   .     A
C412   H461    1.083   .     S
C412   C695    1.374   .     S
C413   C422    1.430   .     S
C413   C449    1.408   .     A
C413   C450    1.395   .     A
C414   C448    1.411   .     A
C415   C443    1.439   .     S
C415   N475    1.360   .     A
C415   C253    1.415   1_655 S
C416   C445    1.440   .     S
C416   N467    1.369   .     A
C417   N473    1.432   .     S
C417   N467    1.383   .     A
C418   N475    1.368   .     A
C418   N474    1.430   .     S
C418   C252    1.429   1_655 S
C419   O489    1.305   .     A
C419   O487    1.291   .     A
C419   C421    1.469   .     S
C420   O488    1.298   .     A
C420   O490    1.300   .     A
C420   C423    1.477   .     S
C421   C428    1.389   .     A
C421   C426    1.412   .     A
C422   O484    1.291   .     A
C422   O486    1.286   .     A
C423   C429    1.388   .     A
C423   C427    1.414   .     A
C424   N480    1.436   .     S
C424   C426    1.401   .     A
C424   C432    1.427   .     A
C425   C434    1.429   .     A
C425   C427    1.412   .     A
C425   N481    1.435   .     S
C426   N479    1.436   .     S
C427   N478    1.435   .     S
C428   C430    1.399   .     A
C428   H459    1.078   .     S
C429   C431    1.399   .     A
C429   H451    1.082   .     S
C430   C435    1.423   .     A
C430   C432    1.425   .     A
C431   C436    1.415   .     A
C431   C434    1.419   .     A
C432   C1184   1.417   .     S
C433   C439    1.452   .     S
C433   C436    1.417   .     A
C433   C446    1.403   .     A
C434   C1185   1.425   1_554 S
C435   C444    1.423   .     A
C435   C1174   1.400   .     S
C436   C1173   1.400   1_554 S
C437   C446    1.446   .     S
C438   N477    1.158   .     T
C438   C447    1.452   .     S
C439   N482    1.157   .     T
C440   C444    1.454   .     S
C440   N468    1.158   .     T
C441   N469    1.158   .     T
C441   C448    1.448   .     S
C442   N470    1.158   .     T
C442   C449    1.447   .     S
C443   N471    1.157   .     T
C444   C447    1.415   .     A
C445   N472    1.157   .     T
C446   C1170   1.417   1_554 S
C447   C1172   1.425   .     S
C448   C696    1.368   .     S
C450   H460    1.081   .     S
H452   N316    1.046   1_655 S
H453   N481    1.046   .     S
H454   N481    1.046   .     S
H455   N473    1.039   .     S
H456   N473    1.037   .     S
H457   N474    1.045   .     S
H458   N474    1.045   .     S
H462   N478    1.042   .     S
H463   N478    1.043   .     S
H464   N479    1.044   .     S
H465   N479    1.045   .     S
H466   N316    1.046   1_655 S
N467   Zn491   2.019   .     S
N475   Zn492   2.019   .     S
N476   C273    1.156   1_655 S
O483   Zn491   2.008   .     S
O484   Zn492   2.008   .     S
O485   Zn492   2.012   .     S
O486   Zn491   2.012   .     S
O487   Zn491   1.949   .     S
O488   Zn492   1.949   .     S
O489   Zn492   1.920   .     S
O490   Zn491   1.920   .     S
C493   O567    1.283   .     A
C493   C496    1.429   .     S
C493   O565    1.294   .     A
C494   C496    1.398   .     A
C494   H543    1.083   .     S
C494   C39     1.374   1_565 S
C495   C504    1.430   .     S
C495   C531    1.408   .     A
C495   C532    1.395   .     A
C496   C530    1.411   .     A
C497   C525    1.439   .     S
C497   N557    1.360   .     A
C497   C581    1.415   .     S
C498   C527    1.440   .     S
C498   N549    1.369   .     A
C498   C664    1.429   1_455 S
C499   N555    1.432   .     S
C499   N549    1.383   .     A
C499   C661    1.415   1_455 S
C500   N557    1.368   .     A
C500   N556    1.430   .     S
C500   C580    1.429   .     S
C501   O571    1.305   .     A
C501   O569    1.291   .     A
C501   C503    1.469   .     S
C502   O570    1.298   .     A
C502   O572    1.300   .     A
C502   C505    1.477   .     S
C503   C510    1.389   .     A
C503   C508    1.412   .     A
C504   O566    1.291   .     A
C504   O568    1.286   .     A
C505   C511    1.388   .     A
C505   C509    1.414   .     A
C506   N562    1.436   .     S
C506   C508    1.401   .     A
C506   C514    1.427   .     A
C507   C516    1.429   .     A
C507   C509    1.412   .     A
C507   N563    1.435   .     S
C508   N561    1.436   .     S
C509   N560    1.435   .     S
C510   C512    1.399   .     A
C510   H541    1.078   .     S
C511   C513    1.399   .     A
C511   H533    1.082   .     S
C512   C517    1.423   .     A
C512   C514    1.425   .     A
C513   C518    1.415   .     A
C513   C516    1.419   .     A
C514   C1266   1.417   .     S
C515   C521    1.452   .     S
C515   C518    1.417   .     A
C515   C528    1.403   .     A
C516   C1267   1.425   1_554 S
C517   C526    1.423   .     A
C517   C1256   1.400   .     S
C518   C1255   1.400   1_554 S
C519   C528    1.446   .     S
C519   N722    1.156   1_455 S
C520   N559    1.158   .     T
C520   C529    1.452   .     S
C521   N564    1.157   .     T
C522   C526    1.454   .     S
C522   N550    1.158   .     T
C523   N551    1.158   .     T
C523   C530    1.448   .     S
C524   N552    1.158   .     T
C524   C531    1.447   .     S
C525   N553    1.157   .     T
C526   C529    1.415   .     A
C527   N554    1.157   .     T
C528   C1252   1.417   1_554 S
C529   C1254   1.425   .     S
C530   C40     1.368   1_565 S
C532   H542    1.081   .     S
H534   N644    1.046   .     S
H535   N563    1.046   .     S
H536   N563    1.046   .     S
H537   N555    1.039   .     S
H538   N555    1.037   .     S
H539   N556    1.045   .     S
H540   N556    1.045   .     S
H544   N560    1.042   .     S
H545   N560    1.043   .     S
H546   N561    1.044   .     S
H547   N561    1.045   .     S
H548   N644    1.046   .     S
N549   Zn573   2.019   .     S
N557   Zn574   2.019   .     S
N558   C601    1.156   .     S
N562   H698    1.046   1_455 S
N562   H712    1.046   1_455 S
O565   Zn573   2.008   .     S
O566   Zn574   2.008   .     S
O567   Zn574   2.012   .     S
O568   Zn573   2.012   .     S
O569   Zn573   1.949   .     S
O570   Zn574   1.949   .     S
O571   Zn574   1.920   .     S
O572   Zn573   1.920   .     S
C575   O649    1.283   .     A
C575   C578    1.429   .     S
C575   O647    1.294   .     A
C576   C578    1.398   .     A
C576   H625    1.083   .     S
C576   C121    1.374   1_565 S
C577   C586    1.430   .     S
C577   C613    1.408   .     A
C577   C614    1.395   .     A
C578   C612    1.411   .     A
C579   C607    1.439   .     S
C579   N639    1.360   .     A
C579   C663    1.415   .     S
C580   C609    1.440   .     S
C580   N631    1.369   .     A
C581   N637    1.432   .     S
C581   N631    1.383   .     A
C582   N639    1.368   .     A
C582   N638    1.430   .     S
C582   C662    1.429   .     S
C583   O653    1.305   .     A
C583   O651    1.291   .     A
C583   C585    1.469   .     S
C584   O652    1.298   .     A
C584   O654    1.300   .     A
C584   C587    1.477   .     S
C585   C592    1.389   .     A
C585   C590    1.412   .     A
C586   O648    1.291   .     A
C586   O650    1.286   .     A
C587   C593    1.388   .     A
C587   C591    1.414   .     A
C588   N644    1.436   .     S
C588   C590    1.401   .     A
C588   C596    1.427   .     A
C589   C598    1.429   .     A
C589   C591    1.412   .     A
C589   N645    1.435   .     S
C590   N643    1.436   .     S
C591   N642    1.435   .     S
C592   C594    1.399   .     A
C592   H623    1.078   .     S
C593   C595    1.399   .     A
C593   H615    1.082   .     S
C594   C599    1.423   .     A
C594   C596    1.425   .     A
C595   C600    1.415   .     A
C595   C598    1.419   .     A
C596   C1348   1.417   .     S
C597   C603    1.452   .     S
C597   C600    1.417   .     A
C597   C610    1.403   .     A
C598   C1349   1.425   1_554 S
C599   C608    1.423   .     A
C599   C1338   1.400   .     S
C600   C1337   1.400   1_554 S
C601   C610    1.446   .     S
C602   N641    1.158   .     T
C602   C611    1.452   .     S
C603   N646    1.157   .     T
C604   C608    1.454   .     S
C604   N632    1.158   .     T
C605   N633    1.158   .     T
C605   C612    1.448   .     S
C606   N634    1.158   .     T
C606   C613    1.447   .     S
C607   N635    1.157   .     T
C608   C611    1.415   .     A
C609   N636    1.157   .     T
C610   C1334   1.417   1_554 S
C611   C1336   1.425   .     S
C612   C122    1.368   1_565 S
C614   H624    1.081   .     S
H616   N726    1.046   .     S
H617   N645    1.046   .     S
H618   N645    1.046   .     S
H619   N637    1.039   .     S
H620   N637    1.037   .     S
H621   N638    1.045   .     S
H622   N638    1.045   .     S
H626   N642    1.042   .     S
H627   N642    1.043   .     S
H628   N643    1.044   .     S
H629   N643    1.045   .     S
H630   N726    1.046   .     S
N631   Zn655   2.019   .     S
N639   Zn656   2.019   .     S
N640   C683    1.156   .     S
O647   Zn655   2.008   .     S
O648   Zn656   2.008   .     S
O649   Zn656   2.012   .     S
O650   Zn655   2.012   .     S
O651   Zn655   1.949   .     S
O652   Zn656   1.949   .     S
O653   Zn656   1.920   .     S
O654   Zn655   1.920   .     S
C657   O731    1.283   .     A
C657   C660    1.429   .     S
C657   O729    1.294   .     A
C658   C660    1.398   .     A
C658   H707    1.083   .     S
C658   C203    1.374   1_565 S
C659   C668    1.430   .     S
C659   C695    1.408   .     A
C659   C696    1.395   .     A
C660   C694    1.411   .     A
C661   C689    1.439   .     S
C661   N721    1.360   .     A
C661   C499    1.415   1_655 S
C662   C691    1.440   .     S
C662   N713    1.369   .     A
C663   N719    1.432   .     S
C663   N713    1.383   .     A
C664   N721    1.368   .     A
C664   N720    1.430   .     S
C664   C498    1.429   1_655 S
C665   O735    1.305   .     A
C665   O733    1.291   .     A
C665   C667    1.469   .     S
C666   O734    1.298   .     A
C666   O736    1.300   .     A
C666   C669    1.477   .     S
C667   C674    1.389   .     A
C667   C672    1.412   .     A
C668   O730    1.291   .     A
C668   O732    1.286   .     A
C669   C675    1.388   .     A
C669   C673    1.414   .     A
C670   N726    1.436   .     S
C670   C672    1.401   .     A
C670   C678    1.427   .     A
C671   C680    1.429   .     A
C671   C673    1.412   .     A
C671   N727    1.435   .     S
C672   N725    1.436   .     S
C673   N724    1.435   .     S
C674   C676    1.399   .     A
C674   H705    1.078   .     S
C675   C677    1.399   .     A
C675   H697    1.082   .     S
C676   C681    1.423   .     A
C676   C678    1.425   .     A
C677   C682    1.415   .     A
C677   C680    1.419   .     A
C678   C1430   1.417   .     S
C679   C685    1.452   .     S
C679   C682    1.417   .     A
C679   C692    1.403   .     A
C680   C1431   1.425   1_554 S
C681   C690    1.423   .     A
C681   C1420   1.400   .     S
C682   C1419   1.400   1_554 S
C683   C692    1.446   .     S
C684   N723    1.158   .     T
C684   C693    1.452   .     S
C685   N728    1.157   .     T
C686   C690    1.454   .     S
C686   N714    1.158   .     T
C687   N715    1.158   .     T
C687   C694    1.448   .     S
C688   N716    1.158   .     T
C688   C695    1.447   .     S
C689   N717    1.157   .     T
C690   C693    1.415   .     A
C691   N718    1.157   .     T
C692   C1416   1.417   1_554 S
C693   C1418   1.425   .     S
C694   C204    1.368   1_565 S
C696   H706    1.081   .     S
H698   N562    1.046   1_655 S
H699   N727    1.046   .     S
H700   N727    1.046   .     S
H701   N719    1.039   .     S
H702   N719    1.037   .     S
H703   N720    1.045   .     S
H704   N720    1.045   .     S
H708   N724    1.042   .     S
H709   N724    1.043   .     S
H710   N725    1.044   .     S
H711   N725    1.045   .     S
H712   N562    1.046   1_655 S
N713   Zn737   2.019   .     S
N721   Zn738   2.019   .     S
N722   C519    1.156   1_655 S
O729   Zn737   2.008   .     S
O730   Zn738   2.008   .     S
O731   Zn738   2.012   .     S
O732   Zn737   2.012   .     S
O733   Zn737   1.949   .     S
O734   Zn738   1.949   .     S
O735   Zn738   1.920   .     S
O736   Zn737   1.920   .     S
C739   O813    1.283   .     A
C739   C742    1.429   .     S
C739   O811    1.294   .     A
C740   C742    1.398   .     A
C740   H789    1.083   .     S
C740   C1023   1.374   .     S
C741   C750    1.430   .     S
C741   C777    1.408   .     A
C741   C778    1.395   .     A
C742   C776    1.411   .     A
C743   C771    1.439   .     S
C743   N803    1.360   .     A
C743   C827    1.415   .     S
C744   C773    1.440   .     S
C744   N795    1.369   .     A
C744   C910    1.429   1_455 S
C745   N801    1.432   .     S
C745   N795    1.383   .     A
C745   C907    1.415   1_455 S
C746   N803    1.368   .     A
C746   N802    1.430   .     S
C746   C826    1.429   .     S
C747   O817    1.305   .     A
C747   O815    1.291   .     A
C747   C749    1.469   .     S
C748   O816    1.298   .     A
C748   O818    1.300   .     A
C748   C751    1.477   .     S
C749   C756    1.389   .     A
C749   C754    1.412   .     A
C750   O812    1.291   .     A
C750   O814    1.286   .     A
C751   C757    1.388   .     A
C751   C755    1.414   .     A
C752   N808    1.436   .     S
C752   C754    1.401   .     A
C752   C760    1.427   .     A
C753   C762    1.429   .     A
C753   C755    1.412   .     A
C753   N809    1.435   .     S
C754   N807    1.436   .     S
C755   N806    1.435   .     S
C756   C758    1.399   .     A
C756   H787    1.078   .     S
C757   C759    1.399   .     A
C757   H779    1.082   .     S
C758   C763    1.423   .     A
C758   C760    1.425   .     A
C759   C764    1.415   .     A
C759   C762    1.419   .     A
C760   C36     1.417   1_556 S
C761   C767    1.452   .     S
C761   C764    1.417   .     A
C761   C774    1.403   .     A
C763   C772    1.423   .     A
C763   C26     1.400   1_556 S
C765   C774    1.446   .     S
C765   N968    1.156   1_455 S
C766   N805    1.158   .     T
C766   C775    1.452   .     S
C767   N810    1.157   .     T
C768   C772    1.454   .     S
C768   N796    1.158   .     T
C769   N797    1.158   .     T
C769   C776    1.448   .     S
C770   N798    1.158   .     T
C770   C777    1.447   .     S
C771   N799    1.157   .     T
C772   C775    1.415   .     A
C773   N800    1.157   .     T
C775   C24     1.425   1_556 S
C776   C1024   1.368   .     S
C777   C1232   1.374   1_545 S
C778   H788    1.081   .     S
C778   C1268   1.368   1_545 S
H780   N890    1.046   .     S
H781   N809    1.046   .     S
H782   N809    1.046   .     S
H783   N801    1.039   .     S
H784   N801    1.037   .     S
H785   N802    1.045   .     S
H786   N802    1.045   .     S
H790   N806    1.042   .     S
H791   N806    1.043   .     S
H792   N807    1.044   .     S
H793   N807    1.045   .     S
H794   N890    1.046   .     S
N795   Zn819   2.019   .     S
N803   Zn820   2.019   .     S
N804   C847    1.156   .     S
N808   H944    1.046   1_455 S
N808   H958    1.046   1_455 S
O811   Zn819   2.008   .     S
O812   Zn820   2.008   .     S
O813   Zn820   2.012   .     S
O814   Zn819   2.012   .     S
O815   Zn819   1.949   .     S
O816   Zn820   1.949   .     S
O817   Zn820   1.920   .     S
O818   Zn819   1.920   .     S
C821   O895    1.283   .     A
C821   C824    1.429   .     S
C821   O893    1.294   .     A
C822   C824    1.398   .     A
C822   H871    1.083   .     S
C822   C1105   1.374   .     S
C823   C832    1.430   .     S
C823   C859    1.408   .     A
C823   C860    1.395   .     A
C824   C858    1.411   .     A
C825   C853    1.439   .     S
C825   N885    1.360   .     A
C825   C909    1.415   .     S
C826   C855    1.440   .     S
C826   N877    1.369   .     A
C827   N883    1.432   .     S
C827   N877    1.383   .     A
C828   N885    1.368   .     A
C828   N884    1.430   .     S
C828   C908    1.429   .     S
C829   O899    1.305   .     A
C829   O897    1.291   .     A
C829   C831    1.469   .     S
C830   O898    1.298   .     A
C830   O900    1.300   .     A
C830   C833    1.477   .     S
C831   C838    1.389   .     A
C831   C836    1.412   .     A
C832   O894    1.291   .     A
C832   O896    1.286   .     A
C833   C839    1.388   .     A
C833   C837    1.414   .     A
C834   N890    1.436   .     S
C834   C836    1.401   .     A
C834   C842    1.427   .     A
C835   C844    1.429   .     A
C835   C837    1.412   .     A
C835   N891    1.435   .     S
C836   N889    1.436   .     S
C837   N888    1.435   .     S
C838   C840    1.399   .     A
C838   H869    1.078   .     S
C839   C841    1.399   .     A
C839   H861    1.082   .     S
C840   C845    1.423   .     A
C840   C842    1.425   .     A
C841   C846    1.415   .     A
C841   C844    1.419   .     A
C842   C118    1.417   1_556 S
C843   C849    1.452   .     S
C843   C846    1.417   .     A
C843   C856    1.403   .     A
C845   C854    1.423   .     A
C845   C108    1.400   1_556 S
C847   C856    1.446   .     S
C848   N887    1.158   .     T
C848   C857    1.452   .     S
C849   N892    1.157   .     T
C850   C854    1.454   .     S
C850   N878    1.158   .     T
C851   N879    1.158   .     T
C851   C858    1.448   .     S
C852   N880    1.158   .     T
C852   C859    1.447   .     S
C853   N881    1.157   .     T
C854   C857    1.415   .     A
C855   N882    1.157   .     T
C857   C106    1.425   1_556 S
C858   C1106   1.368   .     S
C859   C1314   1.374   1_545 S
C860   H870    1.081   .     S
C860   C1350   1.368   1_545 S
H862   N972    1.046   .     S
H863   N891    1.046   .     S
H864   N891    1.046   .     S
H865   N883    1.039   .     S
H866   N883    1.037   .     S
H867   N884    1.045   .     S
H868   N884    1.045   .     S
H872   N888    1.042   .     S
H873   N888    1.043   .     S
H874   N889    1.044   .     S
H875   N889    1.045   .     S
H876   N972    1.046   .     S
N877   Zn901   2.019   .     S
N885   Zn902   2.019   .     S
N886   C929    1.156   .     S
O893   Zn901   2.008   .     S
O894   Zn902   2.008   .     S
O895   Zn902   2.012   .     S
O896   Zn901   2.012   .     S
O897   Zn901   1.949   .     S
O898   Zn902   1.949   .     S
O899   Zn902   1.920   .     S
O900   Zn901   1.920   .     S
C903   O977    1.283   .     A
C903   C906    1.429   .     S
C903   O975    1.294   .     A
C904   C906    1.398   .     A
C904   H953    1.083   .     S
C904   C1187   1.374   .     S
C905   C914    1.430   .     S
C905   C941    1.408   .     A
C905   C942    1.395   .     A
C906   C940    1.411   .     A
C907   C935    1.439   .     S
C907   N967    1.360   .     A
C907   C745    1.415   1_655 S
C908   C937    1.440   .     S
C908   N959    1.369   .     A
C909   N965    1.432   .     S
C909   N959    1.383   .     A
C910   N967    1.368   .     A
C910   N966    1.430   .     S
C910   C744    1.429   1_655 S
C911   O981    1.305   .     A
C911   O979    1.291   .     A
C911   C913    1.469   .     S
C912   O980    1.298   .     A
C912   O982    1.300   .     A
C912   C915    1.477   .     S
C913   C920    1.389   .     A
C913   C918    1.412   .     A
C914   O976    1.291   .     A
C914   O978    1.286   .     A
C915   C921    1.388   .     A
C915   C919    1.414   .     A
C916   N972    1.436   .     S
C916   C918    1.401   .     A
C916   C924    1.427   .     A
C917   C926    1.429   .     A
C917   C919    1.412   .     A
C917   N973    1.435   .     S
C918   N971    1.436   .     S
C919   N970    1.435   .     S
C920   C922    1.399   .     A
C920   H951    1.078   .     S
C921   C923    1.399   .     A
C921   H943    1.082   .     S
C922   C927    1.423   .     A
C922   C924    1.425   .     A
C923   C928    1.415   .     A
C923   C926    1.419   .     A
C924   C200    1.417   1_556 S
C925   C931    1.452   .     S
C925   C928    1.417   .     A
C925   C938    1.403   .     A
C927   C936    1.423   .     A
C927   C190    1.400   1_556 S
C929   C938    1.446   .     S
C930   N969    1.158   .     T
C930   C939    1.452   .     S
C931   N974    1.157   .     T
C932   C936    1.454   .     S
C932   N960    1.158   .     T
C933   N961    1.158   .     T
C933   C940    1.448   .     S
C934   N962    1.158   .     T
C934   C941    1.447   .     S
C935   N963    1.157   .     T
C936   C939    1.415   .     A
C937   N964    1.157   .     T
C939   C188    1.425   1_556 S
C940   C1188   1.368   .     S
C941   C1396   1.374   1_545 S
C942   H952    1.081   .     S
C942   C1432   1.368   1_545 S
H944   N808    1.046   1_655 S
H945   N973    1.046   .     S
H946   N973    1.046   .     S
H947   N965    1.039   .     S
H948   N965    1.037   .     S
H949   N966    1.045   .     S
H950   N966    1.045   .     S
H954   N970    1.042   .     S
H955   N970    1.043   .     S
H956   N971    1.044   .     S
H957   N971    1.045   .     S
H958   N808    1.046   1_655 S
N959   Zn983   2.019   .     S
N967   Zn984   2.019   .     S
N968   C765    1.156   1_655 S
O975   Zn983   2.008   .     S
O976   Zn984   2.008   .     S
O977   Zn984   2.012   .     S
O978   Zn983   2.012   .     S
O979   Zn983   1.949   .     S
O980   Zn984   1.949   .     S
O981   Zn984   1.920   .     S
O982   Zn983   1.920   .     S
C985   O1059   1.283   .     A
C985   C988    1.429   .     S
C985   O1057   1.294   .     A
C986   C988    1.398   .     A
C986   H1035   1.083   .     S
C986   C1269   1.374   .     S
C987   C996    1.430   .     S
C987   C1023   1.408   .     A
C987   C1024   1.395   .     A
C988   C1022   1.411   .     A
C989   C1017   1.439   .     S
C989   N1049   1.360   .     A
C989   C1073   1.415   .     S
C990   C1019   1.440   .     S
C990   N1041   1.369   .     A
C990   C1156   1.429   1_455 S
C991   N1047   1.432   .     S
C991   N1041   1.383   .     A
C991   C1153   1.415   1_455 S
C992   N1049   1.368   .     A
C992   N1048   1.430   .     S
C992   C1072   1.429   .     S
C993   O1063   1.305   .     A
C993   O1061   1.291   .     A
C993   C995    1.469   .     S
C994   O1062   1.298   .     A
C994   O1064   1.300   .     A
C994   C997    1.477   .     S
C995   C1002   1.389   .     A
C995   C1000   1.412   .     A
C996   O1058   1.291   .     A
C996   O1060   1.286   .     A
C997   C1003   1.388   .     A
C997   C1001   1.414   .     A
C998   N1054   1.436   .     S
C998   C1000   1.401   .     A
C998   C1006   1.427   .     A
C999   C1008   1.429   .     A
C999   C1001   1.412   .     A
C999   N1055   1.435   .     S
C1000  N1053   1.436   .     S
C1001  N1052   1.435   .     S
C1002  C1004   1.399   .     A
C1002  H1033   1.078   .     S
C1003  C1005   1.399   .     A
C1003  H1025   1.082   .     S
C1004  C1009   1.423   .     A
C1004  C1006   1.425   .     A
C1005  C1010   1.415   .     A
C1005  C1008   1.419   .     A
C1006  C282    1.417   1_556 S
C1007  C1013   1.452   .     S
C1007  C1010   1.417   .     A
C1007  C1020   1.403   .     A
C1009  C1018   1.423   .     A
C1009  C272    1.400   1_556 S
C1011  C1020   1.446   .     S
C1011  N1214   1.156   1_455 S
C1012  N1051   1.158   .     T
C1012  C1021   1.452   .     S
C1013  N1056   1.157   .     T
C1014  C1018   1.454   .     S
C1014  N1042   1.158   .     T
C1015  N1043   1.158   .     T
C1015  C1022   1.448   .     S
C1016  N1044   1.158   .     T
C1016  C1023   1.447   .     S
C1017  N1045   1.157   .     T
C1018  C1021   1.415   .     A
C1019  N1046   1.157   .     T
C1021  C270    1.425   1_556 S
C1022  C1270   1.368   .     S
C1024  H1034   1.081   .     S
H1026  N1136   1.046   .     S
H1027  N1055   1.046   .     S
H1028  N1055   1.046   .     S
H1029  N1047   1.039   .     S
H1030  N1047   1.037   .     S
H1031  N1048   1.045   .     S
H1032  N1048   1.045   .     S
H1036  N1052   1.042   .     S
H1037  N1052   1.043   .     S
H1038  N1053   1.044   .     S
H1039  N1053   1.045   .     S
H1040  N1136   1.046   .     S
N1041  Zn1065  2.019   .     S
N1049  Zn1066  2.019   .     S
N1050  C1093   1.156   .     S
N1054  H1190   1.046   1_455 S
N1054  H1204   1.046   1_455 S
O1057  Zn1065  2.008   .     S
O1058  Zn1066  2.008   .     S
O1059  Zn1066  2.012   .     S
O1060  Zn1065  2.012   .     S
O1061  Zn1065  1.949   .     S
O1062  Zn1066  1.949   .     S
O1063  Zn1066  1.920   .     S
O1064  Zn1065  1.920   .     S
C1067  O1141   1.283   .     A
C1067  C1070   1.429   .     S
C1067  O1139   1.294   .     A
C1068  C1070   1.398   .     A
C1068  H1117   1.083   .     S
C1068  C1351   1.374   .     S
C1069  C1078   1.430   .     S
C1069  C1105   1.408   .     A
C1069  C1106   1.395   .     A
C1070  C1104   1.411   .     A
C1071  C1099   1.439   .     S
C1071  N1131   1.360   .     A
C1071  C1155   1.415   .     S
C1072  C1101   1.440   .     S
C1072  N1123   1.369   .     A
C1073  N1129   1.432   .     S
C1073  N1123   1.383   .     A
C1074  N1131   1.368   .     A
C1074  N1130   1.430   .     S
C1074  C1154   1.429   .     S
C1075  O1145   1.305   .     A
C1075  O1143   1.291   .     A
C1075  C1077   1.469   .     S
C1076  O1144   1.298   .     A
C1076  O1146   1.300   .     A
C1076  C1079   1.477   .     S
C1077  C1084   1.389   .     A
C1077  C1082   1.412   .     A
C1078  O1140   1.291   .     A
C1078  O1142   1.286   .     A
C1079  C1085   1.388   .     A
C1079  C1083   1.414   .     A
C1080  N1136   1.436   .     S
C1080  C1082   1.401   .     A
C1080  C1088   1.427   .     A
C1081  C1090   1.429   .     A
C1081  C1083   1.412   .     A
C1081  N1137   1.435   .     S
C1082  N1135   1.436   .     S
C1083  N1134   1.435   .     S
C1084  C1086   1.399   .     A
C1084  H1115   1.078   .     S
C1085  C1087   1.399   .     A
C1085  H1107   1.082   .     S
C1086  C1091   1.423   .     A
C1086  C1088   1.425   .     A
C1087  C1092   1.415   .     A
C1087  C1090   1.419   .     A
C1088  C364    1.417   1_556 S
C1089  C1095   1.452   .     S
C1089  C1092   1.417   .     A
C1089  C1102   1.403   .     A
C1091  C1100   1.423   .     A
C1091  C354    1.400   1_556 S
C1093  C1102   1.446   .     S
C1094  N1133   1.158   .     T
C1094  C1103   1.452   .     S
C1095  N1138   1.157   .     T
C1096  C1100   1.454   .     S
C1096  N1124   1.158   .     T
C1097  N1125   1.158   .     T
C1097  C1104   1.448   .     S
C1098  N1126   1.158   .     T
C1098  C1105   1.447   .     S
C1099  N1127   1.157   .     T
C1100  C1103   1.415   .     A
C1101  N1128   1.157   .     T
C1103  C352    1.425   1_556 S
C1104  C1352   1.368   .     S
C1106  H1116   1.081   .     S
H1108  N1218   1.046   .     S
H1109  N1137   1.046   .     S
H1110  N1137   1.046   .     S
H1111  N1129   1.039   .     S
H1112  N1129   1.037   .     S
H1113  N1130   1.045   .     S
H1114  N1130   1.045   .     S
H1118  N1134   1.042   .     S
H1119  N1134   1.043   .     S
H1120  N1135   1.044   .     S
H1121  N1135   1.045   .     S
H1122  N1218   1.046   .     S
N1123  Zn1147  2.019   .     S
N1131  Zn1148  2.019   .     S
N1132  C1175   1.156   .     S
O1139  Zn1147  2.008   .     S
O1140  Zn1148  2.008   .     S
O1141  Zn1148  2.012   .     S
O1142  Zn1147  2.012   .     S
O1143  Zn1147  1.949   .     S
O1144  Zn1148  1.949   .     S
O1145  Zn1148  1.920   .     S
O1146  Zn1147  1.920   .     S
C1149  O1223   1.283   .     A
C1149  C1152   1.429   .     S
C1149  O1221   1.294   .     A
C1150  C1152   1.398   .     A
C1150  H1199   1.083   .     S
C1150  C1433   1.374   .     S
C1151  C1160   1.430   .     S
C1151  C1187   1.408   .     A
C1151  C1188   1.395   .     A
C1152  C1186   1.411   .     A
C1153  C1181   1.439   .     S
C1153  N1213   1.360   .     A
C1153  C991    1.415   1_655 S
C1154  C1183   1.440   .     S
C1154  N1205   1.369   .     A
C1155  N1211   1.432   .     S
C1155  N1205   1.383   .     A
C1156  N1213   1.368   .     A
C1156  N1212   1.430   .     S
C1156  C990    1.429   1_655 S
C1157  O1227   1.305   .     A
C1157  O1225   1.291   .     A
C1157  C1159   1.469   .     S
C1158  O1226   1.298   .     A
C1158  O1228   1.300   .     A
C1158  C1161   1.477   .     S
C1159  C1166   1.389   .     A
C1159  C1164   1.412   .     A
C1160  O1222   1.291   .     A
C1160  O1224   1.286   .     A
C1161  C1167   1.388   .     A
C1161  C1165   1.414   .     A
C1162  N1218   1.436   .     S
C1162  C1164   1.401   .     A
C1162  C1170   1.427   .     A
C1163  C1172   1.429   .     A
C1163  C1165   1.412   .     A
C1163  N1219   1.435   .     S
C1164  N1217   1.436   .     S
C1165  N1216   1.435   .     S
C1166  C1168   1.399   .     A
C1166  H1197   1.078   .     S
C1167  C1169   1.399   .     A
C1167  H1189   1.082   .     S
C1168  C1173   1.423   .     A
C1168  C1170   1.425   .     A
C1169  C1174   1.415   .     A
C1169  C1172   1.419   .     A
C1170  C446    1.417   1_556 S
C1171  C1177   1.452   .     S
C1171  C1174   1.417   .     A
C1171  C1184   1.403   .     A
C1173  C1182   1.423   .     A
C1173  C436    1.400   1_556 S
C1175  C1184   1.446   .     S
C1176  N1215   1.158   .     T
C1176  C1185   1.452   .     S
C1177  N1220   1.157   .     T
C1178  C1182   1.454   .     S
C1178  N1206   1.158   .     T
C1179  N1207   1.158   .     T
C1179  C1186   1.448   .     S
C1180  N1208   1.158   .     T
C1180  C1187   1.447   .     S
C1181  N1209   1.157   .     T
C1182  C1185   1.415   .     A
C1183  N1210   1.157   .     T
C1185  C434    1.425   1_556 S
C1186  C1434   1.368   .     S
C1188  H1198   1.081   .     S
H1190  N1054   1.046   1_655 S
H1191  N1219   1.046   .     S
H1192  N1219   1.046   .     S
H1193  N1211   1.039   .     S
H1194  N1211   1.037   .     S
H1195  N1212   1.045   .     S
H1196  N1212   1.045   .     S
H1200  N1216   1.042   .     S
H1201  N1216   1.043   .     S
H1202  N1217   1.044   .     S
H1203  N1217   1.045   .     S
H1204  N1054   1.046   1_655 S
N1205  Zn1229  2.019   .     S
N1213  Zn1230  2.019   .     S
N1214  C1011   1.156   1_655 S
O1221  Zn1229  2.008   .     S
O1222  Zn1230  2.008   .     S
O1223  Zn1230  2.012   .     S
O1224  Zn1229  2.012   .     S
O1225  Zn1229  1.949   .     S
O1226  Zn1230  1.949   .     S
O1227  Zn1230  1.920   .     S
O1228  Zn1229  1.920   .     S
C1231  O1305   1.283   .     A
C1231  C1234   1.429   .     S
C1231  O1303   1.294   .     A
C1232  C1234   1.398   .     A
C1232  H1281   1.083   .     S
C1232  C777    1.374   1_565 S
C1233  C1242   1.430   .     S
C1233  C1269   1.408   .     A
C1233  C1270   1.395   .     A
C1234  C1268   1.411   .     A
C1235  C1263   1.439   .     S
C1235  N1295   1.360   .     A
C1235  C1319   1.415   .     S
C1236  C1265   1.440   .     S
C1236  N1287   1.369   .     A
C1236  C1402   1.429   1_455 S
C1237  N1293   1.432   .     S
C1237  N1287   1.383   .     A
C1237  C1399   1.415   1_455 S
C1238  N1295   1.368   .     A
C1238  N1294   1.430   .     S
C1238  C1318   1.429   .     S
C1239  O1309   1.305   .     A
C1239  O1307   1.291   .     A
C1239  C1241   1.469   .     S
C1240  O1308   1.298   .     A
C1240  O1310   1.300   .     A
C1240  C1243   1.477   .     S
C1241  C1248   1.389   .     A
C1241  C1246   1.412   .     A
C1242  O1304   1.291   .     A
C1242  O1306   1.286   .     A
C1243  C1249   1.388   .     A
C1243  C1247   1.414   .     A
C1244  N1300   1.436   .     S
C1244  C1246   1.401   .     A
C1244  C1252   1.427   .     A
C1245  C1254   1.429   .     A
C1245  C1247   1.412   .     A
C1245  N1301   1.435   .     S
C1246  N1299   1.436   .     S
C1247  N1298   1.435   .     S
C1248  C1250   1.399   .     A
C1248  H1279   1.078   .     S
C1249  C1251   1.399   .     A
C1249  H1271   1.082   .     S
C1250  C1255   1.423   .     A
C1250  C1252   1.425   .     A
C1251  C1256   1.415   .     A
C1251  C1254   1.419   .     A
C1252  C528    1.417   1_556 S
C1253  C1259   1.452   .     S
C1253  C1256   1.417   .     A
C1253  C1266   1.403   .     A
C1255  C1264   1.423   .     A
C1255  C518    1.400   1_556 S
C1257  C1266   1.446   .     S
C1257  N1460   1.156   1_455 S
C1258  N1297   1.158   .     T
C1258  C1267   1.452   .     S
C1259  N1302   1.157   .     T
C1260  C1264   1.454   .     S
C1260  N1288   1.158   .     T
C1261  N1289   1.158   .     T
C1261  C1268   1.448   .     S
C1262  N1290   1.158   .     T
C1262  C1269   1.447   .     S
C1263  N1291   1.157   .     T
C1264  C1267   1.415   .     A
C1265  N1292   1.157   .     T
C1267  C516    1.425   1_556 S
C1268  C778    1.368   1_565 S
C1270  H1280   1.081   .     S
H1272  N1382   1.046   .     S
H1273  N1301   1.046   .     S
H1274  N1301   1.046   .     S
H1275  N1293   1.039   .     S
H1276  N1293   1.037   .     S
H1277  N1294   1.045   .     S
H1278  N1294   1.045   .     S
H1282  N1298   1.042   .     S
H1283  N1298   1.043   .     S
H1284  N1299   1.044   .     S
H1285  N1299   1.045   .     S
H1286  N1382   1.046   .     S
N1287  Zn1311  2.019   .     S
N1295  Zn1312  2.019   .     S
N1296  C1339   1.156   .     S
N1300  H1436   1.046   1_455 S
N1300  H1450   1.046   1_455 S
O1303  Zn1311  2.008   .     S
O1304  Zn1312  2.008   .     S
O1305  Zn1312  2.012   .     S
O1306  Zn1311  2.012   .     S
O1307  Zn1311  1.949   .     S
O1308  Zn1312  1.949   .     S
O1309  Zn1312  1.920   .     S
O1310  Zn1311  1.920   .     S
C1313  O1387   1.283   .     A
C1313  C1316   1.429   .     S
C1313  O1385   1.294   .     A
C1314  C1316   1.398   .     A
C1314  H1363   1.083   .     S
C1314  C859    1.374   1_565 S
C1315  C1324   1.430   .     S
C1315  C1351   1.408   .     A
C1315  C1352   1.395   .     A
C1316  C1350   1.411   .     A
C1317  C1345   1.439   .     S
C1317  N1377   1.360   .     A
C1317  C1401   1.415   .     S
C1318  C1347   1.440   .     S
C1318  N1369   1.369   .     A
C1319  N1375   1.432   .     S
C1319  N1369   1.383   .     A
C1320  N1377   1.368   .     A
C1320  N1376   1.430   .     S
C1320  C1400   1.429   .     S
C1321  O1391   1.305   .     A
C1321  O1389   1.291   .     A
C1321  C1323   1.469   .     S
C1322  O1390   1.298   .     A
C1322  O1392   1.300   .     A
C1322  C1325   1.477   .     S
C1323  C1330   1.389   .     A
C1323  C1328   1.412   .     A
C1324  O1386   1.291   .     A
C1324  O1388   1.286   .     A
C1325  C1331   1.388   .     A
C1325  C1329   1.414   .     A
C1326  N1382   1.436   .     S
C1326  C1328   1.401   .     A
C1326  C1334   1.427   .     A
C1327  C1336   1.429   .     A
C1327  C1329   1.412   .     A
C1327  N1383   1.435   .     S
C1328  N1381   1.436   .     S
C1329  N1380   1.435   .     S
C1330  C1332   1.399   .     A
C1330  H1361   1.078   .     S
C1331  C1333   1.399   .     A
C1331  H1353   1.082   .     S
C1332  C1337   1.423   .     A
C1332  C1334   1.425   .     A
C1333  C1338   1.415   .     A
C1333  C1336   1.419   .     A
C1334  C610    1.417   1_556 S
C1335  C1341   1.452   .     S
C1335  C1338   1.417   .     A
C1335  C1348   1.403   .     A
C1337  C1346   1.423   .     A
C1337  C600    1.400   1_556 S
C1339  C1348   1.446   .     S
C1340  N1379   1.158   .     T
C1340  C1349   1.452   .     S
C1341  N1384   1.157   .     T
C1342  C1346   1.454   .     S
C1342  N1370   1.158   .     T
C1343  N1371   1.158   .     T
C1343  C1350   1.448   .     S
C1344  N1372   1.158   .     T
C1344  C1351   1.447   .     S
C1345  N1373   1.157   .     T
C1346  C1349   1.415   .     A
C1347  N1374   1.157   .     T
C1349  C598    1.425   1_556 S
C1350  C860    1.368   1_565 S
C1352  H1362   1.081   .     S
H1354  N1464   1.046   .     S
H1355  N1383   1.046   .     S
H1356  N1383   1.046   .     S
H1357  N1375   1.039   .     S
H1358  N1375   1.037   .     S
H1359  N1376   1.045   .     S
H1360  N1376   1.045   .     S
H1364  N1380   1.042   .     S
H1365  N1380   1.043   .     S
H1366  N1381   1.044   .     S
H1367  N1381   1.045   .     S
H1368  N1464   1.046   .     S
N1369  Zn1393  2.019   .     S
N1377  Zn1394  2.019   .     S
N1378  C1421   1.156   .     S
O1385  Zn1393  2.008   .     S
O1386  Zn1394  2.008   .     S
O1387  Zn1394  2.012   .     S
O1388  Zn1393  2.012   .     S
O1389  Zn1393  1.949   .     S
O1390  Zn1394  1.949   .     S
O1391  Zn1394  1.920   .     S
O1392  Zn1393  1.920   .     S
C1395  O1469   1.283   .     A
C1395  C1398   1.429   .     S
C1395  O1467   1.294   .     A
C1396  C1398   1.398   .     A
C1396  H1445   1.083   .     S
C1396  C941    1.374   1_565 S
C1397  C1406   1.430   .     S
C1397  C1433   1.408   .     A
C1397  C1434   1.395   .     A
C1398  C1432   1.411   .     A
C1399  C1427   1.439   .     S
C1399  N1459   1.360   .     A
C1399  C1237   1.415   1_655 S
C1400  C1429   1.440   .     S
C1400  N1451   1.369   .     A
C1401  N1457   1.432   .     S
C1401  N1451   1.383   .     A
C1402  N1459   1.368   .     A
C1402  N1458   1.430   .     S
C1402  C1236   1.429   1_655 S
C1403  O1473   1.305   .     A
C1403  O1471   1.291   .     A
C1403  C1405   1.469   .     S
C1404  O1472   1.298   .     A
C1404  O1474   1.300   .     A
C1404  C1407   1.477   .     S
C1405  C1412   1.389   .     A
C1405  C1410   1.412   .     A
C1406  O1468   1.291   .     A
C1406  O1470   1.286   .     A
C1407  C1413   1.388   .     A
C1407  C1411   1.414   .     A
C1408  N1464   1.436   .     S
C1408  C1410   1.401   .     A
C1408  C1416   1.427   .     A
C1409  C1418   1.429   .     A
C1409  C1411   1.412   .     A
C1409  N1465   1.435   .     S
C1410  N1463   1.436   .     S
C1411  N1462   1.435   .     S
C1412  C1414   1.399   .     A
C1412  H1443   1.078   .     S
C1413  C1415   1.399   .     A
C1413  H1435   1.082   .     S
C1414  C1419   1.423   .     A
C1414  C1416   1.425   .     A
C1415  C1420   1.415   .     A
C1415  C1418   1.419   .     A
C1416  C692    1.417   1_556 S
C1417  C1423   1.452   .     S
C1417  C1420   1.417   .     A
C1417  C1430   1.403   .     A
C1419  C1428   1.423   .     A
C1419  C682    1.400   1_556 S
C1421  C1430   1.446   .     S
C1422  N1461   1.158   .     T
C1422  C1431   1.452   .     S
C1423  N1466   1.157   .     T
C1424  C1428   1.454   .     S
C1424  N1452   1.158   .     T
C1425  N1453   1.158   .     T
C1425  C1432   1.448   .     S
C1426  N1454   1.158   .     T
C1426  C1433   1.447   .     S
C1427  N1455   1.157   .     T
C1428  C1431   1.415   .     A
C1429  N1456   1.157   .     T
C1431  C680    1.425   1_556 S
C1432  C942    1.368   1_565 S
C1434  H1444   1.081   .     S
H1436  N1300   1.046   1_655 S
H1437  N1465   1.046   .     S
H1438  N1465   1.046   .     S
H1439  N1457   1.039   .     S
H1440  N1457   1.037   .     S
H1441  N1458   1.045   .     S
H1442  N1458   1.045   .     S
H1446  N1462   1.042   .     S
H1447  N1462   1.043   .     S
H1448  N1463   1.044   .     S
H1449  N1463   1.045   .     S
H1450  N1300   1.046   1_655 S
N1451  Zn1475  2.019   .     S
N1459  Zn1476  2.019   .     S
N1460  C1257   1.156   1_655 S
O1467  Zn1475  2.008   .     S
O1468  Zn1476  2.008   .     S
O1469  Zn1476  2.012   .     S
O1470  Zn1475  2.012   .     S
O1471  Zn1475  1.949   .     S
O1472  Zn1476  1.949   .     S
O1473  Zn1476  1.920   .     S
O1474  Zn1475  1.920   .     S
