data_str_m2_o2_o10_pcu_sym.256
_audit_creation_date              2020-01-03
_audit_creation_method            'Materials Studio'
_symmetry_space_group_name_H-M    'P1'
_symmetry_Int_Tables_number       1
_symmetry_cell_setting            triclinic
loop_
_symmetry_equiv_pos_as_xyz
  x,y,z
_cell_length_a                    26.3190
_cell_length_b                    30.3135
_cell_length_c                    27.9475
_cell_angle_alpha                 91.9570
_cell_angle_beta                  98.1197
_cell_angle_gamma                 92.7839
loop_
_atom_site_label
_atom_site_type_symbol
_atom_site_fract_x
_atom_site_fract_y
_atom_site_fract_z
_atom_site_U_iso_or_equiv
_atom_site_adp_type
_atom_site_occupancy
C1     C     0.16570   0.16505   0.24921   0.00000  Uiso   1.00
C2     C     0.16755   0.33495   0.25078   0.00000  Uiso   1.00
C3     C     0.18771   0.28605   0.05888   0.00000  Uiso   1.00
C4     C     0.14689   0.21335   0.44127   0.00000  Uiso   1.00
C5     C     0.19104   0.28371   0.10935   0.00000  Uiso   1.00
C6     C     0.14311   0.21586   0.39075   0.00000  Uiso   1.00
C7     C     0.13365   0.22076   0.09907   0.00000  Uiso   1.00
C8     C     0.19947   0.27947   0.40087   0.00000  Uiso   1.00
C9     C     0.12729   0.22425   0.04777   0.00000  Uiso   1.00
C10    C     0.20632   0.27577   0.45212   0.00000  Uiso   1.00
C11    C     0.16283   0.25187   0.02691   0.00000  Uiso   1.00
C12    C     0.17124   0.24782   0.47312   0.00000  Uiso   1.00
C13    C     0.06796   0.24991   0.23757   0.00000  Uiso   1.00
C14    C     0.26537   0.25010   0.26243   0.00000  Uiso   1.00
C15    C     0.01264   0.24991   0.23082   0.00000  Uiso   1.00
C16    C     0.32069   0.25009   0.26918   0.00000  Uiso   1.00
C17    C     0.13732   0.04854   0.28282   0.00000  Uiso   1.00
C18    C     0.19543   0.45160   0.21735   0.00000  Uiso   1.00
C19    C     0.14179   0.09455   0.28409   0.00000  Uiso   1.00
C20    C     0.19131   0.40557   0.21607   0.00000  Uiso   1.00
C21    C     0.16206   0.11683   0.24751   0.00000  Uiso   1.00
C22    C     0.17087   0.38317   0.25246   0.00000  Uiso   1.00
C23    C     0.17369   0.09275   0.20746   0.00000  Uiso   1.00
C24    C     0.15862   0.40713   0.29233   0.00000  Uiso   1.00
C25    C     0.17109   0.04690   0.20710   0.00000  Uiso   1.00
C26    C     0.16091   0.45297   0.29272   0.00000  Uiso   1.00
C27    C     0.16054   0.02405   0.24795   0.00000  Uiso   1.00
C28    C     0.17176   0.47594   0.25203   0.00000  Uiso   1.00
Cu29   Cu    0.16667   0.24999   0.29821   0.00000  Uiso   1.00
Cu30   Cu    0.16667   0.25000   0.20179   0.00000  Uiso   1.00
H31    H     0.32595   0.24977   0.19402   0.00000  Uiso   1.00
H32    H     0.00738   0.25023   0.30598   0.00000  Uiso   1.00
H33    H     0.12583   0.11302   0.31179   0.00000  Uiso   1.00
H34    H     0.20763   0.38722   0.18852   0.00000  Uiso   1.00
H35    H     0.18480   0.10922   0.17644   0.00000  Uiso   1.00
H36    H     0.14729   0.39058   0.32322   0.00000  Uiso   1.00
H37    H     0.17593   0.02983   0.17390   0.00000  Uiso   1.00
H38    H     0.15570   0.46992   0.32587   0.00000  Uiso   1.00
H39    H     0.20449   0.31528   0.04552   0.00000  Uiso   1.00
H40    H     0.13049   0.18399   0.45477   0.00000  Uiso   1.00
H41    H     0.21256   0.30953   0.13246   0.00000  Uiso   1.00
H42    H     0.12184   0.18987   0.36771   0.00000  Uiso   1.00
N43    N     0.16667   0.25001   0.12935   0.00000  Uiso   1.00
N44    N     0.16667   0.24999   0.37065   0.00000  Uiso   1.00
O45    O     0.16667   0.18572   0.29071   0.00000  Uiso   1.00
O46    O     0.16666   0.31427   0.20929   0.00000  Uiso   1.00
O47    O     0.16667   0.18573   0.20928   0.00000  Uiso   1.00
O48    O     0.16666   0.31427   0.29072   0.00000  Uiso   1.00
O49    O     0.09161   0.24999   0.28132   0.00000  Uiso   1.00
O50    O     0.24172   0.25000   0.21868   0.00000  Uiso   1.00
O51    O     0.09161   0.25000   0.19989   0.00000  Uiso   1.00
O52    O     0.24172   0.25000   0.30011   0.00000  Uiso   1.00
I53    I     0.07800   0.02411   0.32159   0.00000  Uiso   1.00
I54    I     0.25469   0.47647   0.17876   0.00000  Uiso   1.00
I55    I     0.08827   0.16900   0.12651   0.00000  Uiso   1.00
I56    I     0.24401   0.33193   0.37361   0.00000  Uiso   1.00
S57    S     0.06634   0.20591   0.01434   0.00000  Uiso   1.00
O58    O     0.06580   0.15695   0.00338   0.00000  Uiso   1.00
O59    O     0.02442   0.21474   0.04408   0.00000  Uiso   1.00
O60    O     0.05324   0.23255   0.46267   0.00000  Uiso   1.00
H61    H     0.02856   0.21235   0.44120   0.00000  Uiso   1.00
S62    S     0.26753   0.29394   0.48514   0.00000  Uiso   1.00
O63    O     0.27970   0.26895   0.03043   0.00000  Uiso   1.00
O64    O     0.30894   0.28636   0.45446   0.00000  Uiso   1.00
O65    O     0.26799   0.34839   0.49920   0.00000  Uiso   1.00
H66    H     0.30405   0.35682   0.01321   0.00000  Uiso   1.00
C67    C     0.49903   0.16505   0.24921   0.00000  Uiso   1.00
C68    C     0.50088   0.33495   0.25078   0.00000  Uiso   1.00
C69    C     0.52105   0.28605   0.05888   0.00000  Uiso   1.00
C70    C     0.48023   0.21335   0.44127   0.00000  Uiso   1.00
C71    C     0.52437   0.28371   0.10935   0.00000  Uiso   1.00
C72    C     0.47644   0.21586   0.39075   0.00000  Uiso   1.00
C73    C     0.46699   0.22076   0.09907   0.00000  Uiso   1.00
C74    C     0.53281   0.27947   0.40087   0.00000  Uiso   1.00
C75    C     0.46062   0.22425   0.04777   0.00000  Uiso   1.00
C76    C     0.53966   0.27577   0.45212   0.00000  Uiso   1.00
C77    C     0.49616   0.25187   0.02691   0.00000  Uiso   1.00
C78    C     0.50458   0.24782   0.47312   0.00000  Uiso   1.00
C79    C     0.40129   0.24991   0.23757   0.00000  Uiso   1.00
C80    C     0.59871   0.25010   0.26243   0.00000  Uiso   1.00
C81    C     0.34598   0.24991   0.23082   0.00000  Uiso   1.00
C82    C     0.65402   0.25009   0.26918   0.00000  Uiso   1.00
C83    C     0.47065   0.04854   0.28282   0.00000  Uiso   1.00
C84    C     0.52876   0.45160   0.21735   0.00000  Uiso   1.00
C85    C     0.47512   0.09455   0.28409   0.00000  Uiso   1.00
C86    C     0.52465   0.40557   0.21607   0.00000  Uiso   1.00
C87    C     0.49539   0.11683   0.24751   0.00000  Uiso   1.00
C88    C     0.50420   0.38317   0.25246   0.00000  Uiso   1.00
C89    C     0.50703   0.09275   0.20746   0.00000  Uiso   1.00
C90    C     0.49196   0.40713   0.29233   0.00000  Uiso   1.00
C91    C     0.50442   0.04690   0.20710   0.00000  Uiso   1.00
C92    C     0.49424   0.45297   0.29272   0.00000  Uiso   1.00
C93    C     0.49388   0.02405   0.24795   0.00000  Uiso   1.00
C94    C     0.50509   0.47594   0.25203   0.00000  Uiso   1.00
Cu95   Cu    0.50000   0.24999   0.29821   0.00000  Uiso   1.00
Cu96   Cu    0.50000   0.25000   0.20179   0.00000  Uiso   1.00
H97    H     0.65929   0.24977   0.19402   0.00000  Uiso   1.00
H98    H     0.34071   0.25023   0.30598   0.00000  Uiso   1.00
H99    H     0.45916   0.11302   0.31179   0.00000  Uiso   1.00
H100   H     0.54096   0.38722   0.18852   0.00000  Uiso   1.00
H101   H     0.51814   0.10922   0.17644   0.00000  Uiso   1.00
H102   H     0.48063   0.39058   0.32322   0.00000  Uiso   1.00
H103   H     0.50927   0.02983   0.17390   0.00000  Uiso   1.00
H104   H     0.48903   0.46992   0.32587   0.00000  Uiso   1.00
H105   H     0.53782   0.31528   0.04552   0.00000  Uiso   1.00
H106   H     0.46383   0.18399   0.45477   0.00000  Uiso   1.00
H107   H     0.54589   0.30953   0.13246   0.00000  Uiso   1.00
H108   H     0.45518   0.18987   0.36771   0.00000  Uiso   1.00
N109   N     0.50000   0.25001   0.12935   0.00000  Uiso   1.00
N110   N     0.50000   0.24999   0.37065   0.00000  Uiso   1.00
O111   O     0.50000   0.18572   0.29071   0.00000  Uiso   1.00
O112   O     0.50000   0.31427   0.20929   0.00000  Uiso   1.00
O113   O     0.50000   0.18573   0.20928   0.00000  Uiso   1.00
O114   O     0.50000   0.31427   0.29072   0.00000  Uiso   1.00
O115   O     0.42495   0.24999   0.28132   0.00000  Uiso   1.00
O116   O     0.57505   0.25000   0.21868   0.00000  Uiso   1.00
O117   O     0.42495   0.25000   0.19989   0.00000  Uiso   1.00
O118   O     0.57505   0.25000   0.30011   0.00000  Uiso   1.00
I119   I     0.41133   0.02411   0.32159   0.00000  Uiso   1.00
I120   I     0.58802   0.47647   0.17876   0.00000  Uiso   1.00
I121   I     0.42160   0.16900   0.12651   0.00000  Uiso   1.00
I122   I     0.57734   0.33193   0.37361   0.00000  Uiso   1.00
S123   S     0.39968   0.20591   0.01434   0.00000  Uiso   1.00
O124   O     0.39913   0.15695   0.00338   0.00000  Uiso   1.00
O125   O     0.35775   0.21474   0.04408   0.00000  Uiso   1.00
O126   O     0.38657   0.23255   0.46267   0.00000  Uiso   1.00
H127   H     0.36189   0.21235   0.44120   0.00000  Uiso   1.00
S128   S     0.60087   0.29394   0.48514   0.00000  Uiso   1.00
O129   O     0.61303   0.26895   0.03043   0.00000  Uiso   1.00
O130   O     0.64227   0.28636   0.45446   0.00000  Uiso   1.00
O131   O     0.60132   0.34839   0.49920   0.00000  Uiso   1.00
H132   H     0.63738   0.35682   0.01321   0.00000  Uiso   1.00
C133   C     0.83236   0.16505   0.24921   0.00000  Uiso   1.00
C134   C     0.83422   0.33495   0.25078   0.00000  Uiso   1.00
C135   C     0.85438   0.28605   0.05888   0.00000  Uiso   1.00
C136   C     0.81356   0.21335   0.44127   0.00000  Uiso   1.00
C137   C     0.85770   0.28371   0.10935   0.00000  Uiso   1.00
C138   C     0.80977   0.21586   0.39075   0.00000  Uiso   1.00
C139   C     0.80032   0.22076   0.09907   0.00000  Uiso   1.00
C140   C     0.86614   0.27947   0.40087   0.00000  Uiso   1.00
C141   C     0.79396   0.22425   0.04777   0.00000  Uiso   1.00
C142   C     0.87299   0.27577   0.45212   0.00000  Uiso   1.00
C143   C     0.82949   0.25187   0.02691   0.00000  Uiso   1.00
C144   C     0.83791   0.24782   0.47312   0.00000  Uiso   1.00
C145   C     0.73463   0.24991   0.23757   0.00000  Uiso   1.00
C146   C     0.93204   0.25010   0.26243   0.00000  Uiso   1.00
C147   C     0.67931   0.24991   0.23082   0.00000  Uiso   1.00
C148   C     0.98736   0.25009   0.26918   0.00000  Uiso   1.00
C149   C     0.80399   0.04854   0.28282   0.00000  Uiso   1.00
C150   C     0.86210   0.45160   0.21735   0.00000  Uiso   1.00
C151   C     0.80846   0.09455   0.28409   0.00000  Uiso   1.00
C152   C     0.85798   0.40557   0.21607   0.00000  Uiso   1.00
C153   C     0.82872   0.11683   0.24751   0.00000  Uiso   1.00
C154   C     0.83754   0.38317   0.25246   0.00000  Uiso   1.00
C155   C     0.84036   0.09275   0.20746   0.00000  Uiso   1.00
C156   C     0.82529   0.40713   0.29233   0.00000  Uiso   1.00
C157   C     0.83776   0.04690   0.20710   0.00000  Uiso   1.00
C158   C     0.82758   0.45297   0.29272   0.00000  Uiso   1.00
C159   C     0.82721   0.02405   0.24795   0.00000  Uiso   1.00
C160   C     0.83842   0.47594   0.25203   0.00000  Uiso   1.00
Cu161  Cu    0.83333   0.24999   0.29821   0.00000  Uiso   1.00
Cu162  Cu    0.83333   0.25000   0.20179   0.00000  Uiso   1.00
H163   H     0.99262   0.24977   0.19402   0.00000  Uiso   1.00
H164   H     0.67404   0.25023   0.30598   0.00000  Uiso   1.00
H165   H     0.79250   0.11302   0.31179   0.00000  Uiso   1.00
H166   H     0.87430   0.38722   0.18852   0.00000  Uiso   1.00
H167   H     0.85147   0.10922   0.17644   0.00000  Uiso   1.00
H168   H     0.81396   0.39058   0.32322   0.00000  Uiso   1.00
H169   H     0.84260   0.02983   0.17390   0.00000  Uiso   1.00
H170   H     0.82237   0.46992   0.32587   0.00000  Uiso   1.00
H171   H     0.87115   0.31528   0.04552   0.00000  Uiso   1.00
H172   H     0.79716   0.18399   0.45477   0.00000  Uiso   1.00
H173   H     0.87923   0.30953   0.13246   0.00000  Uiso   1.00
H174   H     0.78851   0.18987   0.36771   0.00000  Uiso   1.00
N175   N     0.83333   0.25001   0.12935   0.00000  Uiso   1.00
N176   N     0.83333   0.24999   0.37065   0.00000  Uiso   1.00
O177   O     0.83334   0.18572   0.29071   0.00000  Uiso   1.00
O178   O     0.83333   0.31427   0.20929   0.00000  Uiso   1.00
O179   O     0.83334   0.18573   0.20928   0.00000  Uiso   1.00
O180   O     0.83333   0.31427   0.29072   0.00000  Uiso   1.00
O181   O     0.75828   0.24999   0.28132   0.00000  Uiso   1.00
O182   O     0.90839   0.25000   0.21868   0.00000  Uiso   1.00
O183   O     0.75828   0.25000   0.19989   0.00000  Uiso   1.00
O184   O     0.90839   0.25000   0.30011   0.00000  Uiso   1.00
I185   I     0.74467   0.02411   0.32159   0.00000  Uiso   1.00
I186   I     0.92135   0.47647   0.17876   0.00000  Uiso   1.00
I187   I     0.75494   0.16900   0.12651   0.00000  Uiso   1.00
I188   I     0.91067   0.33193   0.37361   0.00000  Uiso   1.00
S189   S     0.73301   0.20591   0.01434   0.00000  Uiso   1.00
O190   O     0.73247   0.15695   0.00338   0.00000  Uiso   1.00
O191   O     0.69109   0.21474   0.04408   0.00000  Uiso   1.00
O192   O     0.71990   0.23255   0.46267   0.00000  Uiso   1.00
H193   H     0.69523   0.21235   0.44120   0.00000  Uiso   1.00
S194   S     0.93420   0.29394   0.48514   0.00000  Uiso   1.00
O195   O     0.94636   0.26895   0.03043   0.00000  Uiso   1.00
O196   O     0.97561   0.28636   0.45446   0.00000  Uiso   1.00
O197   O     0.93465   0.34839   0.49920   0.00000  Uiso   1.00
H198   H     0.97071   0.35682   0.01321   0.00000  Uiso   1.00
C199   C     0.16570   0.66505   0.24921   0.00000  Uiso   1.00
C200   C     0.16755   0.83495   0.25078   0.00000  Uiso   1.00
C201   C     0.18771   0.78605   0.05888   0.00000  Uiso   1.00
C202   C     0.14689   0.71335   0.44127   0.00000  Uiso   1.00
C203   C     0.19104   0.78371   0.10935   0.00000  Uiso   1.00
C204   C     0.14311   0.71586   0.39075   0.00000  Uiso   1.00
C205   C     0.13365   0.72076   0.09907   0.00000  Uiso   1.00
C206   C     0.19947   0.77947   0.40087   0.00000  Uiso   1.00
C207   C     0.12729   0.72425   0.04777   0.00000  Uiso   1.00
C208   C     0.20632   0.77577   0.45212   0.00000  Uiso   1.00
C209   C     0.16283   0.75187   0.02691   0.00000  Uiso   1.00
C210   C     0.17124   0.74782   0.47312   0.00000  Uiso   1.00
C211   C     0.06796   0.74991   0.23757   0.00000  Uiso   1.00
C212   C     0.26537   0.75010   0.26243   0.00000  Uiso   1.00
C213   C     0.01264   0.74991   0.23082   0.00000  Uiso   1.00
C214   C     0.32069   0.75009   0.26918   0.00000  Uiso   1.00
C215   C     0.13732   0.54854   0.28282   0.00000  Uiso   1.00
C216   C     0.19543   0.95160   0.21735   0.00000  Uiso   1.00
C217   C     0.14179   0.59455   0.28409   0.00000  Uiso   1.00
C218   C     0.19131   0.90557   0.21607   0.00000  Uiso   1.00
C219   C     0.16206   0.61683   0.24751   0.00000  Uiso   1.00
C220   C     0.17087   0.88317   0.25246   0.00000  Uiso   1.00
C221   C     0.17369   0.59275   0.20746   0.00000  Uiso   1.00
C222   C     0.15862   0.90713   0.29233   0.00000  Uiso   1.00
C223   C     0.17109   0.54690   0.20710   0.00000  Uiso   1.00
C224   C     0.16091   0.95297   0.29272   0.00000  Uiso   1.00
C225   C     0.16054   0.52405   0.24795   0.00000  Uiso   1.00
C226   C     0.17176   0.97594   0.25203   0.00000  Uiso   1.00
Cu227  Cu    0.16667   0.74999   0.29821   0.00000  Uiso   1.00
Cu228  Cu    0.16667   0.75000   0.20179   0.00000  Uiso   1.00
H229   H     0.32595   0.74977   0.19402   0.00000  Uiso   1.00
H230   H     0.00738   0.75023   0.30598   0.00000  Uiso   1.00
H231   H     0.12583   0.61302   0.31179   0.00000  Uiso   1.00
H232   H     0.20763   0.88722   0.18852   0.00000  Uiso   1.00
H233   H     0.18480   0.60922   0.17644   0.00000  Uiso   1.00
H234   H     0.14729   0.89058   0.32322   0.00000  Uiso   1.00
H235   H     0.17593   0.52983   0.17390   0.00000  Uiso   1.00
H236   H     0.15570   0.96992   0.32587   0.00000  Uiso   1.00
H237   H     0.20449   0.81528   0.04552   0.00000  Uiso   1.00
H238   H     0.13049   0.68399   0.45477   0.00000  Uiso   1.00
H239   H     0.21256   0.80953   0.13246   0.00000  Uiso   1.00
H240   H     0.12184   0.68987   0.36771   0.00000  Uiso   1.00
N241   N     0.16667   0.75001   0.12935   0.00000  Uiso   1.00
N242   N     0.16667   0.74999   0.37065   0.00000  Uiso   1.00
O243   O     0.16667   0.68572   0.29071   0.00000  Uiso   1.00
O244   O     0.16666   0.81427   0.20929   0.00000  Uiso   1.00
O245   O     0.16667   0.68573   0.20928   0.00000  Uiso   1.00
O246   O     0.16666   0.81427   0.29072   0.00000  Uiso   1.00
O247   O     0.09161   0.74999   0.28132   0.00000  Uiso   1.00
O248   O     0.24172   0.75000   0.21868   0.00000  Uiso   1.00
O249   O     0.09161   0.75000   0.19989   0.00000  Uiso   1.00
O250   O     0.24172   0.75000   0.30011   0.00000  Uiso   1.00
I251   I     0.07800   0.52411   0.32159   0.00000  Uiso   1.00
I252   I     0.25469   0.97647   0.17876   0.00000  Uiso   1.00
I253   I     0.08827   0.66900   0.12651   0.00000  Uiso   1.00
I254   I     0.24401   0.83193   0.37361   0.00000  Uiso   1.00
S255   S     0.06634   0.70591   0.01434   0.00000  Uiso   1.00
O256   O     0.06580   0.65695   0.00338   0.00000  Uiso   1.00
O257   O     0.02442   0.71474   0.04408   0.00000  Uiso   1.00
O258   O     0.05324   0.73255   0.46267   0.00000  Uiso   1.00
H259   H     0.02856   0.71235   0.44120   0.00000  Uiso   1.00
S260   S     0.26753   0.79394   0.48514   0.00000  Uiso   1.00
O261   O     0.27970   0.76895   0.03043   0.00000  Uiso   1.00
O262   O     0.30894   0.78636   0.45446   0.00000  Uiso   1.00
O263   O     0.26799   0.84839   0.49920   0.00000  Uiso   1.00
H264   H     0.30405   0.85682   0.01321   0.00000  Uiso   1.00
C265   C     0.49903   0.66505   0.24921   0.00000  Uiso   1.00
C266   C     0.50088   0.83495   0.25078   0.00000  Uiso   1.00
C267   C     0.52105   0.78605   0.05888   0.00000  Uiso   1.00
C268   C     0.48023   0.71335   0.44127   0.00000  Uiso   1.00
C269   C     0.52437   0.78371   0.10935   0.00000  Uiso   1.00
C270   C     0.47644   0.71586   0.39075   0.00000  Uiso   1.00
C271   C     0.46699   0.72076   0.09907   0.00000  Uiso   1.00
C272   C     0.53281   0.77947   0.40087   0.00000  Uiso   1.00
C273   C     0.46062   0.72425   0.04777   0.00000  Uiso   1.00
C274   C     0.53966   0.77577   0.45212   0.00000  Uiso   1.00
C275   C     0.49616   0.75187   0.02691   0.00000  Uiso   1.00
C276   C     0.50458   0.74782   0.47312   0.00000  Uiso   1.00
C277   C     0.40129   0.74991   0.23757   0.00000  Uiso   1.00
C278   C     0.59871   0.75010   0.26243   0.00000  Uiso   1.00
C279   C     0.34598   0.74991   0.23082   0.00000  Uiso   1.00
C280   C     0.65402   0.75009   0.26918   0.00000  Uiso   1.00
C281   C     0.47065   0.54854   0.28282   0.00000  Uiso   1.00
C282   C     0.52876   0.95160   0.21735   0.00000  Uiso   1.00
C283   C     0.47512   0.59455   0.28409   0.00000  Uiso   1.00
C284   C     0.52465   0.90557   0.21607   0.00000  Uiso   1.00
C285   C     0.49539   0.61683   0.24751   0.00000  Uiso   1.00
C286   C     0.50420   0.88317   0.25246   0.00000  Uiso   1.00
C287   C     0.50703   0.59275   0.20746   0.00000  Uiso   1.00
C288   C     0.49196   0.90713   0.29233   0.00000  Uiso   1.00
C289   C     0.50442   0.54690   0.20710   0.00000  Uiso   1.00
C290   C     0.49424   0.95297   0.29272   0.00000  Uiso   1.00
C291   C     0.49388   0.52405   0.24795   0.00000  Uiso   1.00
C292   C     0.50509   0.97594   0.25203   0.00000  Uiso   1.00
Cu293  Cu    0.50000   0.74999   0.29821   0.00000  Uiso   1.00
Cu294  Cu    0.50000   0.75000   0.20179   0.00000  Uiso   1.00
H295   H     0.65929   0.74977   0.19402   0.00000  Uiso   1.00
H296   H     0.34071   0.75023   0.30598   0.00000  Uiso   1.00
H297   H     0.45916   0.61302   0.31179   0.00000  Uiso   1.00
H298   H     0.54096   0.88722   0.18852   0.00000  Uiso   1.00
H299   H     0.51814   0.60922   0.17644   0.00000  Uiso   1.00
H300   H     0.48063   0.89058   0.32322   0.00000  Uiso   1.00
H301   H     0.50927   0.52983   0.17390   0.00000  Uiso   1.00
H302   H     0.48903   0.96992   0.32587   0.00000  Uiso   1.00
H303   H     0.53782   0.81528   0.04552   0.00000  Uiso   1.00
H304   H     0.46383   0.68399   0.45477   0.00000  Uiso   1.00
H305   H     0.54589   0.80953   0.13246   0.00000  Uiso   1.00
H306   H     0.45518   0.68987   0.36771   0.00000  Uiso   1.00
N307   N     0.50000   0.75001   0.12935   0.00000  Uiso   1.00
N308   N     0.50000   0.74999   0.37065   0.00000  Uiso   1.00
O309   O     0.50000   0.68572   0.29071   0.00000  Uiso   1.00
O310   O     0.50000   0.81427   0.20929   0.00000  Uiso   1.00
O311   O     0.50000   0.68573   0.20928   0.00000  Uiso   1.00
O312   O     0.50000   0.81427   0.29072   0.00000  Uiso   1.00
O313   O     0.42495   0.74999   0.28132   0.00000  Uiso   1.00
O314   O     0.57505   0.75000   0.21868   0.00000  Uiso   1.00
O315   O     0.42495   0.75000   0.19989   0.00000  Uiso   1.00
O316   O     0.57505   0.75000   0.30011   0.00000  Uiso   1.00
I317   I     0.41133   0.52411   0.32159   0.00000  Uiso   1.00
I318   I     0.58802   0.97647   0.17876   0.00000  Uiso   1.00
I319   I     0.42160   0.66900   0.12651   0.00000  Uiso   1.00
I320   I     0.57734   0.83193   0.37361   0.00000  Uiso   1.00
S321   S     0.39968   0.70591   0.01434   0.00000  Uiso   1.00
O322   O     0.39913   0.65695   0.00338   0.00000  Uiso   1.00
O323   O     0.35775   0.71474   0.04408   0.00000  Uiso   1.00
O324   O     0.38657   0.73255   0.46267   0.00000  Uiso   1.00
H325   H     0.36189   0.71235   0.44120   0.00000  Uiso   1.00
S326   S     0.60087   0.79394   0.48514   0.00000  Uiso   1.00
O327   O     0.61303   0.76895   0.03043   0.00000  Uiso   1.00
O328   O     0.64227   0.78636   0.45446   0.00000  Uiso   1.00
O329   O     0.60132   0.84839   0.49920   0.00000  Uiso   1.00
H330   H     0.63738   0.85682   0.01321   0.00000  Uiso   1.00
C331   C     0.83236   0.66505   0.24921   0.00000  Uiso   1.00
C332   C     0.83422   0.83495   0.25078   0.00000  Uiso   1.00
C333   C     0.85438   0.78605   0.05888   0.00000  Uiso   1.00
C334   C     0.81356   0.71335   0.44127   0.00000  Uiso   1.00
C335   C     0.85770   0.78371   0.10935   0.00000  Uiso   1.00
C336   C     0.80977   0.71586   0.39075   0.00000  Uiso   1.00
C337   C     0.80032   0.72076   0.09907   0.00000  Uiso   1.00
C338   C     0.86614   0.77947   0.40087   0.00000  Uiso   1.00
C339   C     0.79396   0.72425   0.04777   0.00000  Uiso   1.00
C340   C     0.87299   0.77577   0.45212   0.00000  Uiso   1.00
C341   C     0.82949   0.75187   0.02691   0.00000  Uiso   1.00
C342   C     0.83791   0.74782   0.47312   0.00000  Uiso   1.00
C343   C     0.73463   0.74991   0.23757   0.00000  Uiso   1.00
C344   C     0.93204   0.75010   0.26243   0.00000  Uiso   1.00
C345   C     0.67931   0.74991   0.23082   0.00000  Uiso   1.00
C346   C     0.98736   0.75009   0.26918   0.00000  Uiso   1.00
C347   C     0.80399   0.54854   0.28282   0.00000  Uiso   1.00
C348   C     0.86210   0.95160   0.21735   0.00000  Uiso   1.00
C349   C     0.80846   0.59455   0.28409   0.00000  Uiso   1.00
C350   C     0.85798   0.90557   0.21607   0.00000  Uiso   1.00
C351   C     0.82872   0.61683   0.24751   0.00000  Uiso   1.00
C352   C     0.83754   0.88317   0.25246   0.00000  Uiso   1.00
C353   C     0.84036   0.59275   0.20746   0.00000  Uiso   1.00
C354   C     0.82529   0.90713   0.29233   0.00000  Uiso   1.00
C355   C     0.83776   0.54690   0.20710   0.00000  Uiso   1.00
C356   C     0.82758   0.95297   0.29272   0.00000  Uiso   1.00
C357   C     0.82721   0.52405   0.24795   0.00000  Uiso   1.00
C358   C     0.83842   0.97594   0.25203   0.00000  Uiso   1.00
Cu359  Cu    0.83333   0.74999   0.29821   0.00000  Uiso   1.00
Cu360  Cu    0.83333   0.75000   0.20179   0.00000  Uiso   1.00
H361   H     0.99262   0.74977   0.19402   0.00000  Uiso   1.00
H362   H     0.67404   0.75023   0.30598   0.00000  Uiso   1.00
H363   H     0.79250   0.61302   0.31179   0.00000  Uiso   1.00
H364   H     0.87430   0.88722   0.18852   0.00000  Uiso   1.00
H365   H     0.85147   0.60922   0.17644   0.00000  Uiso   1.00
H366   H     0.81396   0.89058   0.32322   0.00000  Uiso   1.00
H367   H     0.84260   0.52983   0.17390   0.00000  Uiso   1.00
H368   H     0.82237   0.96992   0.32587   0.00000  Uiso   1.00
H369   H     0.87115   0.81528   0.04552   0.00000  Uiso   1.00
H370   H     0.79716   0.68399   0.45477   0.00000  Uiso   1.00
H371   H     0.87923   0.80953   0.13246   0.00000  Uiso   1.00
H372   H     0.78851   0.68987   0.36771   0.00000  Uiso   1.00
N373   N     0.83333   0.75001   0.12935   0.00000  Uiso   1.00
N374   N     0.83333   0.74999   0.37065   0.00000  Uiso   1.00
O375   O     0.83334   0.68572   0.29071   0.00000  Uiso   1.00
O376   O     0.83333   0.81427   0.20929   0.00000  Uiso   1.00
O377   O     0.83334   0.68573   0.20928   0.00000  Uiso   1.00
O378   O     0.83333   0.81427   0.29072   0.00000  Uiso   1.00
O379   O     0.75828   0.74999   0.28132   0.00000  Uiso   1.00
O380   O     0.90839   0.75000   0.21868   0.00000  Uiso   1.00
O381   O     0.75828   0.75000   0.19989   0.00000  Uiso   1.00
O382   O     0.90839   0.75000   0.30011   0.00000  Uiso   1.00
I383   I     0.74467   0.52411   0.32159   0.00000  Uiso   1.00
I384   I     0.92135   0.97647   0.17876   0.00000  Uiso   1.00
I385   I     0.75494   0.66900   0.12651   0.00000  Uiso   1.00
I386   I     0.91067   0.83193   0.37361   0.00000  Uiso   1.00
S387   S     0.73301   0.70591   0.01434   0.00000  Uiso   1.00
O388   O     0.73247   0.65695   0.00338   0.00000  Uiso   1.00
O389   O     0.69109   0.71474   0.04408   0.00000  Uiso   1.00
O390   O     0.71990   0.73255   0.46267   0.00000  Uiso   1.00
H391   H     0.69523   0.71235   0.44120   0.00000  Uiso   1.00
S392   S     0.93420   0.79394   0.48514   0.00000  Uiso   1.00
O393   O     0.94636   0.76895   0.03043   0.00000  Uiso   1.00
O394   O     0.97561   0.78636   0.45446   0.00000  Uiso   1.00
O395   O     0.93465   0.84839   0.49920   0.00000  Uiso   1.00
H396   H     0.97071   0.85682   0.01321   0.00000  Uiso   1.00
C397   C     0.16570   0.16505   0.74921   0.00000  Uiso   1.00
C398   C     0.16755   0.33495   0.75078   0.00000  Uiso   1.00
C399   C     0.18771   0.28605   0.55888   0.00000  Uiso   1.00
C400   C     0.14689   0.21335   0.94127   0.00000  Uiso   1.00
C401   C     0.19104   0.28371   0.60935   0.00000  Uiso   1.00
C402   C     0.14311   0.21586   0.89075   0.00000  Uiso   1.00
C403   C     0.13365   0.22076   0.59907   0.00000  Uiso   1.00
C404   C     0.19947   0.27947   0.90087   0.00000  Uiso   1.00
C405   C     0.12729   0.22425   0.54777   0.00000  Uiso   1.00
C406   C     0.20632   0.27577   0.95212   0.00000  Uiso   1.00
C407   C     0.16283   0.25187   0.52691   0.00000  Uiso   1.00
C408   C     0.17124   0.24782   0.97312   0.00000  Uiso   1.00
C409   C     0.06796   0.24991   0.73757   0.00000  Uiso   1.00
C410   C     0.26537   0.25010   0.76243   0.00000  Uiso   1.00
C411   C     0.01264   0.24991   0.73082   0.00000  Uiso   1.00
C412   C     0.32069   0.25009   0.76918   0.00000  Uiso   1.00
C413   C     0.13732   0.04854   0.78282   0.00000  Uiso   1.00
C414   C     0.19543   0.45160   0.71735   0.00000  Uiso   1.00
C415   C     0.14179   0.09455   0.78409   0.00000  Uiso   1.00
C416   C     0.19131   0.40557   0.71607   0.00000  Uiso   1.00
C417   C     0.16206   0.11683   0.74751   0.00000  Uiso   1.00
C418   C     0.17087   0.38317   0.75246   0.00000  Uiso   1.00
C419   C     0.17369   0.09275   0.70746   0.00000  Uiso   1.00
C420   C     0.15862   0.40713   0.79233   0.00000  Uiso   1.00
C421   C     0.17109   0.04690   0.70710   0.00000  Uiso   1.00
C422   C     0.16091   0.45297   0.79272   0.00000  Uiso   1.00
C423   C     0.16054   0.02405   0.74795   0.00000  Uiso   1.00
C424   C     0.17176   0.47594   0.75203   0.00000  Uiso   1.00
Cu425  Cu    0.16667   0.24999   0.79821   0.00000  Uiso   1.00
Cu426  Cu    0.16667   0.25000   0.70179   0.00000  Uiso   1.00
H427   H     0.32595   0.24977   0.69402   0.00000  Uiso   1.00
H428   H     0.00738   0.25023   0.80598   0.00000  Uiso   1.00
H429   H     0.12583   0.11302   0.81179   0.00000  Uiso   1.00
H430   H     0.20763   0.38722   0.68852   0.00000  Uiso   1.00
H431   H     0.18480   0.10922   0.67644   0.00000  Uiso   1.00
H432   H     0.14729   0.39058   0.82322   0.00000  Uiso   1.00
H433   H     0.17593   0.02983   0.67390   0.00000  Uiso   1.00
H434   H     0.15570   0.46992   0.82587   0.00000  Uiso   1.00
H435   H     0.20449   0.31528   0.54552   0.00000  Uiso   1.00
H436   H     0.13049   0.18399   0.95477   0.00000  Uiso   1.00
H437   H     0.21256   0.30953   0.63246   0.00000  Uiso   1.00
H438   H     0.12184   0.18987   0.86771   0.00000  Uiso   1.00
N439   N     0.16667   0.25001   0.62935   0.00000  Uiso   1.00
N440   N     0.16667   0.24999   0.87065   0.00000  Uiso   1.00
O441   O     0.16667   0.18572   0.79071   0.00000  Uiso   1.00
O442   O     0.16666   0.31427   0.70929   0.00000  Uiso   1.00
O443   O     0.16667   0.18573   0.70928   0.00000  Uiso   1.00
O444   O     0.16666   0.31427   0.79072   0.00000  Uiso   1.00
O445   O     0.09161   0.24999   0.78132   0.00000  Uiso   1.00
O446   O     0.24172   0.25000   0.71868   0.00000  Uiso   1.00
O447   O     0.09161   0.25000   0.69989   0.00000  Uiso   1.00
O448   O     0.24172   0.25000   0.80011   0.00000  Uiso   1.00
I449   I     0.07800   0.02411   0.82159   0.00000  Uiso   1.00
I450   I     0.25469   0.47647   0.67876   0.00000  Uiso   1.00
I451   I     0.08827   0.16900   0.62651   0.00000  Uiso   1.00
I452   I     0.24401   0.33193   0.87361   0.00000  Uiso   1.00
S453   S     0.06634   0.20591   0.51434   0.00000  Uiso   1.00
O454   O     0.06580   0.15695   0.50338   0.00000  Uiso   1.00
O455   O     0.02442   0.21474   0.54408   0.00000  Uiso   1.00
O456   O     0.05324   0.23255   0.96267   0.00000  Uiso   1.00
H457   H     0.02856   0.21235   0.94120   0.00000  Uiso   1.00
S458   S     0.26753   0.29394   0.98514   0.00000  Uiso   1.00
O459   O     0.27970   0.26895   0.53043   0.00000  Uiso   1.00
O460   O     0.30894   0.28636   0.95446   0.00000  Uiso   1.00
O461   O     0.26799   0.34839   0.99920   0.00000  Uiso   1.00
H462   H     0.30405   0.35682   0.51321   0.00000  Uiso   1.00
C463   C     0.49903   0.16505   0.74921   0.00000  Uiso   1.00
C464   C     0.50088   0.33495   0.75078   0.00000  Uiso   1.00
C465   C     0.52105   0.28605   0.55888   0.00000  Uiso   1.00
C466   C     0.48023   0.21335   0.94127   0.00000  Uiso   1.00
C467   C     0.52437   0.28371   0.60935   0.00000  Uiso   1.00
C468   C     0.47644   0.21586   0.89075   0.00000  Uiso   1.00
C469   C     0.46699   0.22076   0.59907   0.00000  Uiso   1.00
C470   C     0.53281   0.27947   0.90087   0.00000  Uiso   1.00
C471   C     0.46062   0.22425   0.54777   0.00000  Uiso   1.00
C472   C     0.53966   0.27577   0.95212   0.00000  Uiso   1.00
C473   C     0.49616   0.25187   0.52691   0.00000  Uiso   1.00
C474   C     0.50458   0.24782   0.97312   0.00000  Uiso   1.00
C475   C     0.40129   0.24991   0.73757   0.00000  Uiso   1.00
C476   C     0.59871   0.25010   0.76243   0.00000  Uiso   1.00
C477   C     0.34598   0.24991   0.73082   0.00000  Uiso   1.00
C478   C     0.65402   0.25009   0.76918   0.00000  Uiso   1.00
C479   C     0.47065   0.04854   0.78282   0.00000  Uiso   1.00
C480   C     0.52876   0.45160   0.71735   0.00000  Uiso   1.00
C481   C     0.47512   0.09455   0.78409   0.00000  Uiso   1.00
C482   C     0.52465   0.40557   0.71607   0.00000  Uiso   1.00
C483   C     0.49539   0.11683   0.74751   0.00000  Uiso   1.00
C484   C     0.50420   0.38317   0.75246   0.00000  Uiso   1.00
C485   C     0.50703   0.09275   0.70746   0.00000  Uiso   1.00
C486   C     0.49196   0.40713   0.79233   0.00000  Uiso   1.00
C487   C     0.50442   0.04690   0.70710   0.00000  Uiso   1.00
C488   C     0.49424   0.45297   0.79272   0.00000  Uiso   1.00
C489   C     0.49388   0.02405   0.74795   0.00000  Uiso   1.00
C490   C     0.50509   0.47594   0.75203   0.00000  Uiso   1.00
Cu491  Cu    0.50000   0.24999   0.79821   0.00000  Uiso   1.00
Cu492  Cu    0.50000   0.25000   0.70179   0.00000  Uiso   1.00
H493   H     0.65929   0.24977   0.69402   0.00000  Uiso   1.00
H494   H     0.34071   0.25023   0.80598   0.00000  Uiso   1.00
H495   H     0.45916   0.11302   0.81179   0.00000  Uiso   1.00
H496   H     0.54096   0.38722   0.68852   0.00000  Uiso   1.00
H497   H     0.51814   0.10922   0.67644   0.00000  Uiso   1.00
H498   H     0.48063   0.39058   0.82322   0.00000  Uiso   1.00
H499   H     0.50927   0.02983   0.67390   0.00000  Uiso   1.00
H500   H     0.48903   0.46992   0.82587   0.00000  Uiso   1.00
H501   H     0.53782   0.31528   0.54552   0.00000  Uiso   1.00
H502   H     0.46383   0.18399   0.95477   0.00000  Uiso   1.00
H503   H     0.54589   0.30953   0.63246   0.00000  Uiso   1.00
H504   H     0.45518   0.18987   0.86771   0.00000  Uiso   1.00
N505   N     0.50000   0.25001   0.62935   0.00000  Uiso   1.00
N506   N     0.50000   0.24999   0.87065   0.00000  Uiso   1.00
O507   O     0.50000   0.18572   0.79071   0.00000  Uiso   1.00
O508   O     0.50000   0.31427   0.70929   0.00000  Uiso   1.00
O509   O     0.50000   0.18573   0.70928   0.00000  Uiso   1.00
O510   O     0.50000   0.31427   0.79072   0.00000  Uiso   1.00
O511   O     0.42495   0.24999   0.78132   0.00000  Uiso   1.00
O512   O     0.57505   0.25000   0.71868   0.00000  Uiso   1.00
O513   O     0.42495   0.25000   0.69989   0.00000  Uiso   1.00
O514   O     0.57505   0.25000   0.80011   0.00000  Uiso   1.00
I515   I     0.41133   0.02411   0.82159   0.00000  Uiso   1.00
I516   I     0.58802   0.47647   0.67876   0.00000  Uiso   1.00
I517   I     0.42160   0.16900   0.62651   0.00000  Uiso   1.00
I518   I     0.57734   0.33193   0.87361   0.00000  Uiso   1.00
S519   S     0.39968   0.20591   0.51434   0.00000  Uiso   1.00
O520   O     0.39913   0.15695   0.50338   0.00000  Uiso   1.00
O521   O     0.35775   0.21474   0.54408   0.00000  Uiso   1.00
O522   O     0.38657   0.23255   0.96267   0.00000  Uiso   1.00
H523   H     0.36189   0.21235   0.94120   0.00000  Uiso   1.00
S524   S     0.60087   0.29394   0.98514   0.00000  Uiso   1.00
O525   O     0.61303   0.26895   0.53043   0.00000  Uiso   1.00
O526   O     0.64227   0.28636   0.95446   0.00000  Uiso   1.00
O527   O     0.60132   0.34839   0.99920   0.00000  Uiso   1.00
H528   H     0.63738   0.35682   0.51321   0.00000  Uiso   1.00
C529   C     0.83236   0.16505   0.74921   0.00000  Uiso   1.00
C530   C     0.83422   0.33495   0.75078   0.00000  Uiso   1.00
C531   C     0.85438   0.28605   0.55888   0.00000  Uiso   1.00
C532   C     0.81356   0.21335   0.94127   0.00000  Uiso   1.00
C533   C     0.85770   0.28371   0.60935   0.00000  Uiso   1.00
C534   C     0.80977   0.21586   0.89075   0.00000  Uiso   1.00
C535   C     0.80032   0.22076   0.59907   0.00000  Uiso   1.00
C536   C     0.86614   0.27947   0.90087   0.00000  Uiso   1.00
C537   C     0.79396   0.22425   0.54777   0.00000  Uiso   1.00
C538   C     0.87299   0.27577   0.95212   0.00000  Uiso   1.00
C539   C     0.82949   0.25187   0.52691   0.00000  Uiso   1.00
C540   C     0.83791   0.24782   0.97312   0.00000  Uiso   1.00
C541   C     0.73463   0.24991   0.73757   0.00000  Uiso   1.00
C542   C     0.93204   0.25010   0.76243   0.00000  Uiso   1.00
C543   C     0.67931   0.24991   0.73082   0.00000  Uiso   1.00
C544   C     0.98736   0.25009   0.76918   0.00000  Uiso   1.00
C545   C     0.80399   0.04854   0.78282   0.00000  Uiso   1.00
C546   C     0.86210   0.45160   0.71735   0.00000  Uiso   1.00
C547   C     0.80846   0.09455   0.78409   0.00000  Uiso   1.00
C548   C     0.85798   0.40557   0.71607   0.00000  Uiso   1.00
C549   C     0.82872   0.11683   0.74751   0.00000  Uiso   1.00
C550   C     0.83754   0.38317   0.75246   0.00000  Uiso   1.00
C551   C     0.84036   0.09275   0.70746   0.00000  Uiso   1.00
C552   C     0.82529   0.40713   0.79233   0.00000  Uiso   1.00
C553   C     0.83776   0.04690   0.70710   0.00000  Uiso   1.00
C554   C     0.82758   0.45297   0.79272   0.00000  Uiso   1.00
C555   C     0.82721   0.02405   0.74795   0.00000  Uiso   1.00
C556   C     0.83842   0.47594   0.75203   0.00000  Uiso   1.00
Cu557  Cu    0.83333   0.24999   0.79821   0.00000  Uiso   1.00
Cu558  Cu    0.83333   0.25000   0.70179   0.00000  Uiso   1.00
H559   H     0.99262   0.24977   0.69402   0.00000  Uiso   1.00
H560   H     0.67404   0.25023   0.80598   0.00000  Uiso   1.00
H561   H     0.79250   0.11302   0.81179   0.00000  Uiso   1.00
H562   H     0.87430   0.38722   0.68852   0.00000  Uiso   1.00
H563   H     0.85147   0.10922   0.67644   0.00000  Uiso   1.00
H564   H     0.81396   0.39058   0.82322   0.00000  Uiso   1.00
H565   H     0.84260   0.02983   0.67390   0.00000  Uiso   1.00
H566   H     0.82237   0.46992   0.82587   0.00000  Uiso   1.00
H567   H     0.87115   0.31528   0.54552   0.00000  Uiso   1.00
H568   H     0.79716   0.18399   0.95477   0.00000  Uiso   1.00
H569   H     0.87923   0.30953   0.63246   0.00000  Uiso   1.00
H570   H     0.78851   0.18987   0.86771   0.00000  Uiso   1.00
N571   N     0.83333   0.25001   0.62935   0.00000  Uiso   1.00
N572   N     0.83333   0.24999   0.87065   0.00000  Uiso   1.00
O573   O     0.83334   0.18572   0.79071   0.00000  Uiso   1.00
O574   O     0.83333   0.31427   0.70929   0.00000  Uiso   1.00
O575   O     0.83334   0.18573   0.70928   0.00000  Uiso   1.00
O576   O     0.83333   0.31427   0.79072   0.00000  Uiso   1.00
O577   O     0.75828   0.24999   0.78132   0.00000  Uiso   1.00
O578   O     0.90839   0.25000   0.71868   0.00000  Uiso   1.00
O579   O     0.75828   0.25000   0.69989   0.00000  Uiso   1.00
O580   O     0.90839   0.25000   0.80011   0.00000  Uiso   1.00
I581   I     0.74467   0.02411   0.82159   0.00000  Uiso   1.00
I582   I     0.92135   0.47647   0.67876   0.00000  Uiso   1.00
I583   I     0.75494   0.16900   0.62651   0.00000  Uiso   1.00
I584   I     0.91067   0.33193   0.87361   0.00000  Uiso   1.00
S585   S     0.73301   0.20591   0.51434   0.00000  Uiso   1.00
O586   O     0.73247   0.15695   0.50338   0.00000  Uiso   1.00
O587   O     0.69109   0.21474   0.54408   0.00000  Uiso   1.00
O588   O     0.71990   0.23255   0.96267   0.00000  Uiso   1.00
H589   H     0.69523   0.21235   0.94120   0.00000  Uiso   1.00
S590   S     0.93420   0.29394   0.98514   0.00000  Uiso   1.00
O591   O     0.94636   0.26895   0.53043   0.00000  Uiso   1.00
O592   O     0.97561   0.28636   0.95446   0.00000  Uiso   1.00
O593   O     0.93465   0.34839   0.99920   0.00000  Uiso   1.00
H594   H     0.97071   0.35682   0.51321   0.00000  Uiso   1.00
C595   C     0.16570   0.66505   0.74921   0.00000  Uiso   1.00
C596   C     0.16755   0.83495   0.75078   0.00000  Uiso   1.00
C597   C     0.18771   0.78605   0.55888   0.00000  Uiso   1.00
C598   C     0.14689   0.71335   0.94127   0.00000  Uiso   1.00
C599   C     0.19104   0.78371   0.60935   0.00000  Uiso   1.00
C600   C     0.14311   0.71586   0.89075   0.00000  Uiso   1.00
C601   C     0.13365   0.72076   0.59907   0.00000  Uiso   1.00
C602   C     0.19947   0.77947   0.90087   0.00000  Uiso   1.00
C603   C     0.12729   0.72425   0.54777   0.00000  Uiso   1.00
C604   C     0.20632   0.77577   0.95212   0.00000  Uiso   1.00
C605   C     0.16283   0.75187   0.52691   0.00000  Uiso   1.00
C606   C     0.17124   0.74782   0.97312   0.00000  Uiso   1.00
C607   C     0.06796   0.74991   0.73757   0.00000  Uiso   1.00
C608   C     0.26537   0.75010   0.76243   0.00000  Uiso   1.00
C609   C     0.01264   0.74991   0.73082   0.00000  Uiso   1.00
C610   C     0.32069   0.75009   0.76918   0.00000  Uiso   1.00
C611   C     0.13732   0.54854   0.78282   0.00000  Uiso   1.00
C612   C     0.19543   0.95160   0.71735   0.00000  Uiso   1.00
C613   C     0.14179   0.59455   0.78409   0.00000  Uiso   1.00
C614   C     0.19131   0.90557   0.71607   0.00000  Uiso   1.00
C615   C     0.16206   0.61683   0.74751   0.00000  Uiso   1.00
C616   C     0.17087   0.88317   0.75246   0.00000  Uiso   1.00
C617   C     0.17369   0.59275   0.70746   0.00000  Uiso   1.00
C618   C     0.15862   0.90713   0.79233   0.00000  Uiso   1.00
C619   C     0.17109   0.54690   0.70710   0.00000  Uiso   1.00
C620   C     0.16091   0.95297   0.79272   0.00000  Uiso   1.00
C621   C     0.16054   0.52405   0.74795   0.00000  Uiso   1.00
C622   C     0.17176   0.97594   0.75203   0.00000  Uiso   1.00
Cu623  Cu    0.16667   0.74999   0.79821   0.00000  Uiso   1.00
Cu624  Cu    0.16667   0.75000   0.70179   0.00000  Uiso   1.00
H625   H     0.32595   0.74977   0.69402   0.00000  Uiso   1.00
H626   H     0.00738   0.75023   0.80598   0.00000  Uiso   1.00
H627   H     0.12583   0.61302   0.81179   0.00000  Uiso   1.00
H628   H     0.20763   0.88722   0.68852   0.00000  Uiso   1.00
H629   H     0.18480   0.60922   0.67644   0.00000  Uiso   1.00
H630   H     0.14729   0.89058   0.82322   0.00000  Uiso   1.00
H631   H     0.17593   0.52983   0.67390   0.00000  Uiso   1.00
H632   H     0.15570   0.96992   0.82587   0.00000  Uiso   1.00
H633   H     0.20449   0.81528   0.54552   0.00000  Uiso   1.00
H634   H     0.13049   0.68399   0.95477   0.00000  Uiso   1.00
H635   H     0.21256   0.80953   0.63246   0.00000  Uiso   1.00
H636   H     0.12184   0.68987   0.86771   0.00000  Uiso   1.00
N637   N     0.16667   0.75001   0.62935   0.00000  Uiso   1.00
N638   N     0.16667   0.74999   0.87065   0.00000  Uiso   1.00
O639   O     0.16667   0.68572   0.79071   0.00000  Uiso   1.00
O640   O     0.16666   0.81427   0.70929   0.00000  Uiso   1.00
O641   O     0.16667   0.68573   0.70928   0.00000  Uiso   1.00
O642   O     0.16666   0.81427   0.79072   0.00000  Uiso   1.00
O643   O     0.09161   0.74999   0.78132   0.00000  Uiso   1.00
O644   O     0.24172   0.75000   0.71868   0.00000  Uiso   1.00
O645   O     0.09161   0.75000   0.69989   0.00000  Uiso   1.00
O646   O     0.24172   0.75000   0.80011   0.00000  Uiso   1.00
I647   I     0.07800   0.52411   0.82159   0.00000  Uiso   1.00
I648   I     0.25469   0.97647   0.67876   0.00000  Uiso   1.00
I649   I     0.08827   0.66900   0.62651   0.00000  Uiso   1.00
I650   I     0.24401   0.83193   0.87361   0.00000  Uiso   1.00
S651   S     0.06634   0.70591   0.51434   0.00000  Uiso   1.00
O652   O     0.06580   0.65695   0.50338   0.00000  Uiso   1.00
O653   O     0.02442   0.71474   0.54408   0.00000  Uiso   1.00
O654   O     0.05324   0.73255   0.96267   0.00000  Uiso   1.00
H655   H     0.02856   0.71235   0.94120   0.00000  Uiso   1.00
S656   S     0.26753   0.79394   0.98514   0.00000  Uiso   1.00
O657   O     0.27970   0.76895   0.53043   0.00000  Uiso   1.00
O658   O     0.30894   0.78636   0.95446   0.00000  Uiso   1.00
O659   O     0.26799   0.84839   0.99920   0.00000  Uiso   1.00
H660   H     0.30405   0.85682   0.51321   0.00000  Uiso   1.00
C661   C     0.49903   0.66505   0.74921   0.00000  Uiso   1.00
C662   C     0.50088   0.83495   0.75078   0.00000  Uiso   1.00
C663   C     0.52105   0.78605   0.55888   0.00000  Uiso   1.00
C664   C     0.48023   0.71335   0.94127   0.00000  Uiso   1.00
C665   C     0.52437   0.78371   0.60935   0.00000  Uiso   1.00
C666   C     0.47644   0.71586   0.89075   0.00000  Uiso   1.00
C667   C     0.46699   0.72076   0.59907   0.00000  Uiso   1.00
C668   C     0.53281   0.77947   0.90087   0.00000  Uiso   1.00
C669   C     0.46062   0.72425   0.54777   0.00000  Uiso   1.00
C670   C     0.53966   0.77577   0.95212   0.00000  Uiso   1.00
C671   C     0.49616   0.75187   0.52691   0.00000  Uiso   1.00
C672   C     0.50458   0.74782   0.97312   0.00000  Uiso   1.00
C673   C     0.40129   0.74991   0.73757   0.00000  Uiso   1.00
C674   C     0.59871   0.75010   0.76243   0.00000  Uiso   1.00
C675   C     0.34598   0.74991   0.73082   0.00000  Uiso   1.00
C676   C     0.65402   0.75009   0.76918   0.00000  Uiso   1.00
C677   C     0.47065   0.54854   0.78282   0.00000  Uiso   1.00
C678   C     0.52876   0.95160   0.71735   0.00000  Uiso   1.00
C679   C     0.47512   0.59455   0.78409   0.00000  Uiso   1.00
C680   C     0.52465   0.90557   0.71607   0.00000  Uiso   1.00
C681   C     0.49539   0.61683   0.74751   0.00000  Uiso   1.00
C682   C     0.50420   0.88317   0.75246   0.00000  Uiso   1.00
C683   C     0.50703   0.59275   0.70746   0.00000  Uiso   1.00
C684   C     0.49196   0.90713   0.79233   0.00000  Uiso   1.00
C685   C     0.50442   0.54690   0.70710   0.00000  Uiso   1.00
C686   C     0.49424   0.95297   0.79272   0.00000  Uiso   1.00
C687   C     0.49388   0.52405   0.74795   0.00000  Uiso   1.00
C688   C     0.50509   0.97594   0.75203   0.00000  Uiso   1.00
Cu689  Cu    0.50000   0.74999   0.79821   0.00000  Uiso   1.00
Cu690  Cu    0.50000   0.75000   0.70179   0.00000  Uiso   1.00
H691   H     0.65929   0.74977   0.69402   0.00000  Uiso   1.00
H692   H     0.34071   0.75023   0.80598   0.00000  Uiso   1.00
H693   H     0.45916   0.61302   0.81179   0.00000  Uiso   1.00
H694   H     0.54096   0.88722   0.68852   0.00000  Uiso   1.00
H695   H     0.51814   0.60922   0.67644   0.00000  Uiso   1.00
H696   H     0.48063   0.89058   0.82322   0.00000  Uiso   1.00
H697   H     0.50927   0.52983   0.67390   0.00000  Uiso   1.00
H698   H     0.48903   0.96992   0.82587   0.00000  Uiso   1.00
H699   H     0.53782   0.81528   0.54552   0.00000  Uiso   1.00
H700   H     0.46383   0.68399   0.95477   0.00000  Uiso   1.00
H701   H     0.54589   0.80953   0.63246   0.00000  Uiso   1.00
H702   H     0.45518   0.68987   0.86771   0.00000  Uiso   1.00
N703   N     0.50000   0.75001   0.62935   0.00000  Uiso   1.00
N704   N     0.50000   0.74999   0.87065   0.00000  Uiso   1.00
O705   O     0.50000   0.68572   0.79071   0.00000  Uiso   1.00
O706   O     0.50000   0.81427   0.70929   0.00000  Uiso   1.00
O707   O     0.50000   0.68573   0.70928   0.00000  Uiso   1.00
O708   O     0.50000   0.81427   0.79072   0.00000  Uiso   1.00
O709   O     0.42495   0.74999   0.78132   0.00000  Uiso   1.00
O710   O     0.57505   0.75000   0.71868   0.00000  Uiso   1.00
O711   O     0.42495   0.75000   0.69989   0.00000  Uiso   1.00
O712   O     0.57505   0.75000   0.80011   0.00000  Uiso   1.00
I713   I     0.41133   0.52411   0.82159   0.00000  Uiso   1.00
I714   I     0.58802   0.97647   0.67876   0.00000  Uiso   1.00
I715   I     0.42160   0.66900   0.62651   0.00000  Uiso   1.00
I716   I     0.57734   0.83193   0.87361   0.00000  Uiso   1.00
S717   S     0.39968   0.70591   0.51434   0.00000  Uiso   1.00
O718   O     0.39913   0.65695   0.50338   0.00000  Uiso   1.00
O719   O     0.35775   0.71474   0.54408   0.00000  Uiso   1.00
O720   O     0.38657   0.73255   0.96267   0.00000  Uiso   1.00
H721   H     0.36189   0.71235   0.94120   0.00000  Uiso   1.00
S722   S     0.60087   0.79394   0.98514   0.00000  Uiso   1.00
O723   O     0.61303   0.76895   0.53043   0.00000  Uiso   1.00
O724   O     0.64227   0.78636   0.95446   0.00000  Uiso   1.00
O725   O     0.60132   0.84839   0.99920   0.00000  Uiso   1.00
H726   H     0.63738   0.85682   0.51321   0.00000  Uiso   1.00
C727   C     0.83236   0.66505   0.74921   0.00000  Uiso   1.00
C728   C     0.83422   0.83495   0.75078   0.00000  Uiso   1.00
C729   C     0.85438   0.78605   0.55888   0.00000  Uiso   1.00
C730   C     0.81356   0.71335   0.94127   0.00000  Uiso   1.00
C731   C     0.85770   0.78371   0.60935   0.00000  Uiso   1.00
C732   C     0.80977   0.71586   0.89075   0.00000  Uiso   1.00
C733   C     0.80032   0.72076   0.59907   0.00000  Uiso   1.00
C734   C     0.86614   0.77947   0.90087   0.00000  Uiso   1.00
C735   C     0.79396   0.72425   0.54777   0.00000  Uiso   1.00
C736   C     0.87299   0.77577   0.95212   0.00000  Uiso   1.00
C737   C     0.82949   0.75187   0.52691   0.00000  Uiso   1.00
C738   C     0.83791   0.74782   0.97312   0.00000  Uiso   1.00
C739   C     0.73463   0.74991   0.73757   0.00000  Uiso   1.00
C740   C     0.93204   0.75010   0.76243   0.00000  Uiso   1.00
C741   C     0.67931   0.74991   0.73082   0.00000  Uiso   1.00
C742   C     0.98736   0.75009   0.76918   0.00000  Uiso   1.00
C743   C     0.80399   0.54854   0.78282   0.00000  Uiso   1.00
C744   C     0.86210   0.95160   0.71735   0.00000  Uiso   1.00
C745   C     0.80846   0.59455   0.78409   0.00000  Uiso   1.00
C746   C     0.85798   0.90557   0.71607   0.00000  Uiso   1.00
C747   C     0.82872   0.61683   0.74751   0.00000  Uiso   1.00
C748   C     0.83754   0.88317   0.75246   0.00000  Uiso   1.00
C749   C     0.84036   0.59275   0.70746   0.00000  Uiso   1.00
C750   C     0.82529   0.90713   0.79233   0.00000  Uiso   1.00
C751   C     0.83776   0.54690   0.70710   0.00000  Uiso   1.00
C752   C     0.82758   0.95297   0.79272   0.00000  Uiso   1.00
C753   C     0.82721   0.52405   0.74795   0.00000  Uiso   1.00
C754   C     0.83842   0.97594   0.75203   0.00000  Uiso   1.00
Cu755  Cu    0.83333   0.74999   0.79821   0.00000  Uiso   1.00
Cu756  Cu    0.83333   0.75000   0.70179   0.00000  Uiso   1.00
H757   H     0.99262   0.74977   0.69402   0.00000  Uiso   1.00
H758   H     0.67404   0.75023   0.80598   0.00000  Uiso   1.00
H759   H     0.79250   0.61302   0.81179   0.00000  Uiso   1.00
H760   H     0.87430   0.88722   0.68852   0.00000  Uiso   1.00
H761   H     0.85147   0.60922   0.67644   0.00000  Uiso   1.00
H762   H     0.81396   0.89058   0.82322   0.00000  Uiso   1.00
H763   H     0.84260   0.52983   0.67390   0.00000  Uiso   1.00
H764   H     0.82237   0.96992   0.82587   0.00000  Uiso   1.00
H765   H     0.87115   0.81528   0.54552   0.00000  Uiso   1.00
H766   H     0.79716   0.68399   0.95477   0.00000  Uiso   1.00
H767   H     0.87923   0.80953   0.63246   0.00000  Uiso   1.00
H768   H     0.78851   0.68987   0.86771   0.00000  Uiso   1.00
N769   N     0.83333   0.75001   0.62935   0.00000  Uiso   1.00
N770   N     0.83333   0.74999   0.87065   0.00000  Uiso   1.00
O771   O     0.83334   0.68572   0.79071   0.00000  Uiso   1.00
O772   O     0.83333   0.81427   0.70929   0.00000  Uiso   1.00
O773   O     0.83334   0.68573   0.70928   0.00000  Uiso   1.00
O774   O     0.83333   0.81427   0.79072   0.00000  Uiso   1.00
O775   O     0.75828   0.74999   0.78132   0.00000  Uiso   1.00
O776   O     0.90839   0.75000   0.71868   0.00000  Uiso   1.00
O777   O     0.75828   0.75000   0.69989   0.00000  Uiso   1.00
O778   O     0.90839   0.75000   0.80011   0.00000  Uiso   1.00
I779   I     0.74467   0.52411   0.82159   0.00000  Uiso   1.00
I780   I     0.92135   0.97647   0.67876   0.00000  Uiso   1.00
I781   I     0.75494   0.66900   0.62651   0.00000  Uiso   1.00
I782   I     0.91067   0.83193   0.87361   0.00000  Uiso   1.00
S783   S     0.73301   0.70591   0.51434   0.00000  Uiso   1.00
O784   O     0.73247   0.65695   0.50338   0.00000  Uiso   1.00
O785   O     0.69109   0.71474   0.54408   0.00000  Uiso   1.00
O786   O     0.71990   0.73255   0.96267   0.00000  Uiso   1.00
H787   H     0.69523   0.71235   0.94120   0.00000  Uiso   1.00
S788   S     0.93420   0.79394   0.98514   0.00000  Uiso   1.00
O789   O     0.94636   0.76895   0.53043   0.00000  Uiso   1.00
O790   O     0.97561   0.78636   0.95446   0.00000  Uiso   1.00
O791   O     0.93465   0.84839   0.99920   0.00000  Uiso   1.00
H792   H     0.97071   0.85682   0.51321   0.00000  Uiso   1.00
loop_
_geom_bond_atom_site_label_1
_geom_bond_atom_site_label_2
_geom_bond_distance
_geom_bond_site_symmetry_2
_ccdc_geom_bond_type
C1     C21     1.459   .     S
C1     O45     1.296   .     A
C1     O47     1.301   .     A
C2     C22     1.459   .     S
C2     O46     1.296   .     A
C2     O48     1.301   .     A
C3     C5      1.405   .     A
C3     H39     1.073   .     S
C3     C11     1.416   .     A
C4     H40     1.073   .     S
C4     C6      1.406   .     A
C4     C12     1.416   .     A
C5     N43     1.358   .     A
C5     H41     1.081   .     S
C6     H42     1.081   .     S
C6     N44     1.359   .     A
C7     N43     1.387   .     A
C7     I55     2.153   .     S
C7     C9      1.428   .     A
C8     I56     2.153   .     S
C8     C10     1.427   .     A
C8     N44     1.387   .     A
C9     C11     1.424   .     A
C9     S57     1.791   .     S
C10    S62     1.791   .     S
C10    C12     1.423   .     A
C11    C408    1.552   1_554 S
C12    C407    1.552   .     S
C13    C15     1.441   .     S
C13    O49     1.291   .     A
C13    O51     1.297   .     A
C14    O52     1.297   .     A
C14    C16     1.441   .     S
C14    O50     1.291   .     A
C15    C148    1.339   1_455 S
C15    H163    1.087   1_455 S
C16    C81     1.339   .     S
C16    H98     1.087   .     S
C17    C19     1.393   .     A
C17    C27     1.427   .     A
C17    I53     2.140   .     S
C18    C28     1.428   .     A
C18    C20     1.393   .     A
C18    I54     2.140   .     S
C19    H33     1.084   .     S
C19    C21     1.397   .     A
C20    H34     1.084   .     S
C20    C22     1.397   .     A
C21    C23     1.394   .     A
C22    C24     1.394   .     A
C23    H35     1.083   .     S
C23    C25     1.388   .     A
C24    H36     1.083   .     S
C24    C26     1.388   .     A
C25    C27     1.409   .     A
C25    H37     1.073   .     S
C26    C28     1.409   .     A
C26    H38     1.073   .     S
C27    C226    1.507   1_545 S
C28    C225    1.507   .     S
Cu29   Cu30    2.695   .     S
Cu29   O49     1.965   .     S
Cu29   N44     2.025   .     S
Cu29   O48     1.967   .     S
Cu29   O45     1.952   .     S
Cu29   O52     1.969   .     S
Cu30   O51     1.969   .     S
Cu30   O50     1.965   .     S
Cu30   N43     2.025   .     S
Cu30   O47     1.967   .     S
Cu30   O46     1.952   .     S
H31    C81     1.087   .     S
H32    C148    1.087   1_455 S
S57    O58     1.504   .     D
S57    O59     1.501   .     D
S57    O456    1.680   1_554 S
O60    H61     0.991   .     S
O60    S453    1.680   .     S
S62    O64     1.500   .     D
S62    O65     1.683   .     S
S62    O459    1.501   .     S
O63    S458    1.501   1_554 S
O65    H462    0.992   .     S
H66    O461    0.992   1_554 S
C67    C87     1.459   .     S
C67    O111    1.296   .     A
C67    O113    1.301   .     A
C68    C88     1.459   .     S
C68    O112    1.296   .     A
C68    O114    1.301   .     A
C69    C71     1.405   .     A
C69    H105    1.073   .     S
C69    C77     1.416   .     A
C70    H106    1.073   .     S
C70    C72     1.406   .     A
C70    C78     1.416   .     A
C71    N109    1.358   .     A
C71    H107    1.081   .     S
C72    H108    1.081   .     S
C72    N110    1.359   .     A
C73    N109    1.387   .     A
C73    I121    2.153   .     S
C73    C75     1.428   .     A
C74    I122    2.153   .     S
C74    C76     1.427   .     A
C74    N110    1.387   .     A
C75    C77     1.424   .     A
C75    S123    1.791   .     S
C76    S128    1.791   .     S
C76    C78     1.423   .     A
C77    C474    1.552   1_554 S
C78    C473    1.552   .     S
C79    C81     1.441   .     S
C79    O115    1.291   .     A
C79    O117    1.297   .     A
C80    O118    1.297   .     A
C80    C82     1.441   .     S
C80    O116    1.291   .     A
C82    C147    1.339   .     S
C82    H164    1.087   .     S
C83    C85     1.393   .     A
C83    C93     1.427   .     A
C83    I119    2.140   .     S
C84    C94     1.428   .     A
C84    C86     1.393   .     A
C84    I120    2.140   .     S
C85    H99     1.084   .     S
C85    C87     1.397   .     A
C86    H100    1.084   .     S
C86    C88     1.397   .     A
C87    C89     1.394   .     A
C88    C90     1.394   .     A
C89    H101    1.083   .     S
C89    C91     1.388   .     A
C90    H102    1.083   .     S
C90    C92     1.388   .     A
C91    C93     1.409   .     A
C91    H103    1.073   .     S
C92    C94     1.409   .     A
C92    H104    1.073   .     S
C93    C292    1.507   1_545 S
C94    C291    1.507   .     S
Cu95   Cu96    2.695   .     S
Cu95   O115    1.965   .     S
Cu95   N110    2.025   .     S
Cu95   O114    1.967   .     S
Cu95   O111    1.952   .     S
Cu95   O118    1.969   .     S
Cu96   O117    1.969   .     S
Cu96   O116    1.965   .     S
Cu96   N109    2.025   .     S
Cu96   O113    1.967   .     S
Cu96   O112    1.952   .     S
H97    C147    1.087   .     S
S123   O124    1.504   .     D
S123   O125    1.501   .     D
S123   O522    1.680   1_554 S
O126   H127    0.991   .     S
O126   S519    1.680   .     S
S128   O130    1.500   .     D
S128   O131    1.683   .     S
S128   O525    1.501   .     S
O129   S524    1.501   1_554 S
O131   H528    0.992   .     S
H132   O527    0.992   1_554 S
C133   C153    1.459   .     S
C133   O177    1.296   .     A
C133   O179    1.301   .     A
C134   C154    1.459   .     S
C134   O178    1.296   .     A
C134   O180    1.301   .     A
C135   C137    1.405   .     A
C135   H171    1.073   .     S
C135   C143    1.416   .     A
C136   H172    1.073   .     S
C136   C138    1.406   .     A
C136   C144    1.416   .     A
C137   N175    1.358   .     A
C137   H173    1.081   .     S
C138   H174    1.081   .     S
C138   N176    1.359   .     A
C139   N175    1.387   .     A
C139   I187    2.153   .     S
C139   C141    1.428   .     A
C140   I188    2.153   .     S
C140   C142    1.427   .     A
C140   N176    1.387   .     A
C141   C143    1.424   .     A
C141   S189    1.791   .     S
C142   S194    1.791   .     S
C142   C144    1.423   .     A
C143   C540    1.552   1_554 S
C144   C539    1.552   .     S
C145   C147    1.441   .     S
C145   O181    1.291   .     A
C145   O183    1.297   .     A
C146   O184    1.297   .     A
C146   C148    1.441   .     S
C146   O182    1.291   .     A
C148   C15     1.339   1_655 S
C148   H32     1.087   1_655 S
C149   C151    1.393   .     A
C149   C159    1.427   .     A
C149   I185    2.140   .     S
C150   C160    1.428   .     A
C150   C152    1.393   .     A
C150   I186    2.140   .     S
C151   H165    1.084   .     S
C151   C153    1.397   .     A
C152   H166    1.084   .     S
C152   C154    1.397   .     A
C153   C155    1.394   .     A
C154   C156    1.394   .     A
C155   H167    1.083   .     S
C155   C157    1.388   .     A
C156   H168    1.083   .     S
C156   C158    1.388   .     A
C157   C159    1.409   .     A
C157   H169    1.073   .     S
C158   C160    1.409   .     A
C158   H170    1.073   .     S
C159   C358    1.507   1_545 S
C160   C357    1.507   .     S
Cu161  Cu162   2.695   .     S
Cu161  O181    1.965   .     S
Cu161  N176    2.025   .     S
Cu161  O180    1.967   .     S
Cu161  O177    1.952   .     S
Cu161  O184    1.969   .     S
Cu162  O183    1.969   .     S
Cu162  O182    1.965   .     S
Cu162  N175    2.025   .     S
Cu162  O179    1.967   .     S
Cu162  O178    1.952   .     S
H163   C15     1.087   1_655 S
S189   O190    1.504   .     D
S189   O191    1.501   .     D
S189   O588    1.680   1_554 S
O192   H193    0.991   .     S
O192   S585    1.680   .     S
S194   O196    1.500   .     D
S194   O197    1.683   .     S
S194   O591    1.501   .     S
O195   S590    1.501   1_554 S
O197   H594    0.992   .     S
H198   O593    0.992   1_554 S
C199   C219    1.459   .     S
C199   O243    1.296   .     A
C199   O245    1.301   .     A
C200   C220    1.459   .     S
C200   O244    1.296   .     A
C200   O246    1.301   .     A
C201   C203    1.405   .     A
C201   H237    1.073   .     S
C201   C209    1.416   .     A
C202   H238    1.073   .     S
C202   C204    1.406   .     A
C202   C210    1.416   .     A
C203   N241    1.358   .     A
C203   H239    1.081   .     S
C204   H240    1.081   .     S
C204   N242    1.359   .     A
C205   N241    1.387   .     A
C205   I253    2.153   .     S
C205   C207    1.428   .     A
C206   I254    2.153   .     S
C206   C208    1.427   .     A
C206   N242    1.387   .     A
C207   C209    1.424   .     A
C207   S255    1.791   .     S
C208   S260    1.791   .     S
C208   C210    1.423   .     A
C209   C606    1.552   1_554 S
C210   C605    1.552   .     S
C211   C213    1.441   .     S
C211   O247    1.291   .     A
C211   O249    1.297   .     A
C212   O250    1.297   .     A
C212   C214    1.441   .     S
C212   O248    1.291   .     A
C213   C346    1.339   1_455 S
C213   H361    1.087   1_455 S
C214   C279    1.339   .     S
C214   H296    1.087   .     S
C215   C217    1.393   .     A
C215   C225    1.427   .     A
C215   I251    2.140   .     S
C216   C226    1.428   .     A
C216   C218    1.393   .     A
C216   I252    2.140   .     S
C217   H231    1.084   .     S
C217   C219    1.397   .     A
C218   H232    1.084   .     S
C218   C220    1.397   .     A
C219   C221    1.394   .     A
C220   C222    1.394   .     A
C221   H233    1.083   .     S
C221   C223    1.388   .     A
C222   H234    1.083   .     S
C222   C224    1.388   .     A
C223   C225    1.409   .     A
C223   H235    1.073   .     S
C224   C226    1.409   .     A
C224   H236    1.073   .     S
C226   C27     1.507   1_565 S
Cu227  Cu228   2.695   .     S
Cu227  O247    1.965   .     S
Cu227  N242    2.025   .     S
Cu227  O246    1.967   .     S
Cu227  O243    1.952   .     S
Cu227  O250    1.969   .     S
Cu228  O249    1.969   .     S
Cu228  O248    1.965   .     S
Cu228  N241    2.025   .     S
Cu228  O245    1.967   .     S
Cu228  O244    1.952   .     S
H229   C279    1.087   .     S
H230   C346    1.087   1_455 S
S255   O256    1.504   .     D
S255   O257    1.501   .     D
S255   O654    1.680   1_554 S
O258   H259    0.991   .     S
O258   S651    1.680   .     S
S260   O262    1.500   .     D
S260   O263    1.683   .     S
S260   O657    1.501   .     S
O261   S656    1.501   1_554 S
O263   H660    0.992   .     S
H264   O659    0.992   1_554 S
C265   C285    1.459   .     S
C265   O309    1.296   .     A
C265   O311    1.301   .     A
C266   C286    1.459   .     S
C266   O310    1.296   .     A
C266   O312    1.301   .     A
C267   C269    1.405   .     A
C267   H303    1.073   .     S
C267   C275    1.416   .     A
C268   H304    1.073   .     S
C268   C270    1.406   .     A
C268   C276    1.416   .     A
C269   N307    1.358   .     A
C269   H305    1.081   .     S
C270   H306    1.081   .     S
C270   N308    1.359   .     A
C271   N307    1.387   .     A
C271   I319    2.153   .     S
C271   C273    1.428   .     A
C272   I320    2.153   .     S
C272   C274    1.427   .     A
C272   N308    1.387   .     A
C273   C275    1.424   .     A
C273   S321    1.791   .     S
C274   S326    1.791   .     S
C274   C276    1.423   .     A
C275   C672    1.552   1_554 S
C276   C671    1.552   .     S
C277   C279    1.441   .     S
C277   O313    1.291   .     A
C277   O315    1.297   .     A
C278   O316    1.297   .     A
C278   C280    1.441   .     S
C278   O314    1.291   .     A
C280   C345    1.339   .     S
C280   H362    1.087   .     S
C281   C283    1.393   .     A
C281   C291    1.427   .     A
C281   I317    2.140   .     S
C282   C292    1.428   .     A
C282   C284    1.393   .     A
C282   I318    2.140   .     S
C283   H297    1.084   .     S
C283   C285    1.397   .     A
C284   H298    1.084   .     S
C284   C286    1.397   .     A
C285   C287    1.394   .     A
C286   C288    1.394   .     A
C287   H299    1.083   .     S
C287   C289    1.388   .     A
C288   H300    1.083   .     S
C288   C290    1.388   .     A
C289   C291    1.409   .     A
C289   H301    1.073   .     S
C290   C292    1.409   .     A
C290   H302    1.073   .     S
C292   C93     1.507   1_565 S
Cu293  Cu294   2.695   .     S
Cu293  O313    1.965   .     S
Cu293  N308    2.025   .     S
Cu293  O312    1.967   .     S
Cu293  O309    1.952   .     S
Cu293  O316    1.969   .     S
Cu294  O315    1.969   .     S
Cu294  O314    1.965   .     S
Cu294  N307    2.025   .     S
Cu294  O311    1.967   .     S
Cu294  O310    1.952   .     S
H295   C345    1.087   .     S
S321   O322    1.504   .     D
S321   O323    1.501   .     D
S321   O720    1.680   1_554 S
O324   H325    0.991   .     S
O324   S717    1.680   .     S
S326   O328    1.500   .     D
S326   O329    1.683   .     S
S326   O723    1.501   .     S
O327   S722    1.501   1_554 S
O329   H726    0.992   .     S
H330   O725    0.992   1_554 S
C331   C351    1.459   .     S
C331   O375    1.296   .     A
C331   O377    1.301   .     A
C332   C352    1.459   .     S
C332   O376    1.296   .     A
C332   O378    1.301   .     A
C333   C335    1.405   .     A
C333   H369    1.073   .     S
C333   C341    1.416   .     A
C334   H370    1.073   .     S
C334   C336    1.406   .     A
C334   C342    1.416   .     A
C335   N373    1.358   .     A
C335   H371    1.081   .     S
C336   H372    1.081   .     S
C336   N374    1.359   .     A
C337   N373    1.387   .     A
C337   I385    2.153   .     S
C337   C339    1.428   .     A
C338   I386    2.153   .     S
C338   C340    1.427   .     A
C338   N374    1.387   .     A
C339   C341    1.424   .     A
C339   S387    1.791   .     S
C340   S392    1.791   .     S
C340   C342    1.423   .     A
C341   C738    1.552   1_554 S
C342   C737    1.552   .     S
C343   C345    1.441   .     S
C343   O379    1.291   .     A
C343   O381    1.297   .     A
C344   O382    1.297   .     A
C344   C346    1.441   .     S
C344   O380    1.291   .     A
C346   C213    1.339   1_655 S
C346   H230    1.087   1_655 S
C347   C349    1.393   .     A
C347   C357    1.427   .     A
C347   I383    2.140   .     S
C348   C358    1.428   .     A
C348   C350    1.393   .     A
C348   I384    2.140   .     S
C349   H363    1.084   .     S
C349   C351    1.397   .     A
C350   H364    1.084   .     S
C350   C352    1.397   .     A
C351   C353    1.394   .     A
C352   C354    1.394   .     A
C353   H365    1.083   .     S
C353   C355    1.388   .     A
C354   H366    1.083   .     S
C354   C356    1.388   .     A
C355   C357    1.409   .     A
C355   H367    1.073   .     S
C356   C358    1.409   .     A
C356   H368    1.073   .     S
C358   C159    1.507   1_565 S
Cu359  Cu360   2.695   .     S
Cu359  O379    1.965   .     S
Cu359  N374    2.025   .     S
Cu359  O378    1.967   .     S
Cu359  O375    1.952   .     S
Cu359  O382    1.969   .     S
Cu360  O381    1.969   .     S
Cu360  O380    1.965   .     S
Cu360  N373    2.025   .     S
Cu360  O377    1.967   .     S
Cu360  O376    1.952   .     S
H361   C213    1.087   1_655 S
S387   O388    1.504   .     D
S387   O389    1.501   .     D
S387   O786    1.680   1_554 S
O390   H391    0.991   .     S
O390   S783    1.680   .     S
S392   O394    1.500   .     D
S392   O395    1.683   .     S
S392   O789    1.501   .     S
O393   S788    1.501   1_554 S
O395   H792    0.992   .     S
H396   O791    0.992   1_554 S
C397   C417    1.459   .     S
C397   O441    1.296   .     A
C397   O443    1.301   .     A
C398   C418    1.459   .     S
C398   O442    1.296   .     A
C398   O444    1.301   .     A
C399   C401    1.405   .     A
C399   H435    1.073   .     S
C399   C407    1.416   .     A
C400   H436    1.073   .     S
C400   C402    1.406   .     A
C400   C408    1.416   .     A
C401   N439    1.358   .     A
C401   H437    1.081   .     S
C402   H438    1.081   .     S
C402   N440    1.359   .     A
C403   N439    1.387   .     A
C403   I451    2.153   .     S
C403   C405    1.428   .     A
C404   I452    2.153   .     S
C404   C406    1.427   .     A
C404   N440    1.387   .     A
C405   C407    1.424   .     A
C405   S453    1.791   .     S
C406   S458    1.791   .     S
C406   C408    1.423   .     A
C408   C11     1.552   1_556 S
C409   C411    1.441   .     S
C409   O445    1.291   .     A
C409   O447    1.297   .     A
C410   O448    1.297   .     A
C410   C412    1.441   .     S
C410   O446    1.291   .     A
C411   C544    1.339   1_455 S
C411   H559    1.087   1_455 S
C412   C477    1.339   .     S
C412   H494    1.087   .     S
C413   C415    1.393   .     A
C413   C423    1.427   .     A
C413   I449    2.140   .     S
C414   C424    1.428   .     A
C414   C416    1.393   .     A
C414   I450    2.140   .     S
C415   H429    1.084   .     S
C415   C417    1.397   .     A
C416   H430    1.084   .     S
C416   C418    1.397   .     A
C417   C419    1.394   .     A
C418   C420    1.394   .     A
C419   H431    1.083   .     S
C419   C421    1.388   .     A
C420   H432    1.083   .     S
C420   C422    1.388   .     A
C421   C423    1.409   .     A
C421   H433    1.073   .     S
C422   C424    1.409   .     A
C422   H434    1.073   .     S
C423   C622    1.507   1_545 S
C424   C621    1.507   .     S
Cu425  Cu426   2.695   .     S
Cu425  O445    1.965   .     S
Cu425  N440    2.025   .     S
Cu425  O444    1.967   .     S
Cu425  O441    1.952   .     S
Cu425  O448    1.969   .     S
Cu426  O447    1.969   .     S
Cu426  O446    1.965   .     S
Cu426  N439    2.025   .     S
Cu426  O443    1.967   .     S
Cu426  O442    1.952   .     S
H427   C477    1.087   .     S
H428   C544    1.087   1_455 S
S453   O454    1.504   .     D
S453   O455    1.501   .     D
O456   H457    0.991   .     S
O456   S57     1.680   1_556 S
S458   O460    1.500   .     D
S458   O461    1.683   .     S
S458   O63     1.501   1_556 S
O461   H66     0.992   1_556 S
C463   C483    1.459   .     S
C463   O507    1.296   .     A
C463   O509    1.301   .     A
C464   C484    1.459   .     S
C464   O508    1.296   .     A
C464   O510    1.301   .     A
C465   C467    1.405   .     A
C465   H501    1.073   .     S
C465   C473    1.416   .     A
C466   H502    1.073   .     S
C466   C468    1.406   .     A
C466   C474    1.416   .     A
C467   N505    1.358   .     A
C467   H503    1.081   .     S
C468   H504    1.081   .     S
C468   N506    1.359   .     A
C469   N505    1.387   .     A
C469   I517    2.153   .     S
C469   C471    1.428   .     A
C470   I518    2.153   .     S
C470   C472    1.427   .     A
C470   N506    1.387   .     A
C471   C473    1.424   .     A
C471   S519    1.791   .     S
C472   S524    1.791   .     S
C472   C474    1.423   .     A
C474   C77     1.552   1_556 S
C475   C477    1.441   .     S
C475   O511    1.291   .     A
C475   O513    1.297   .     A
C476   O514    1.297   .     A
C476   C478    1.441   .     S
C476   O512    1.291   .     A
C478   C543    1.339   .     S
C478   H560    1.087   .     S
C479   C481    1.393   .     A
C479   C489    1.427   .     A
C479   I515    2.140   .     S
C480   C490    1.428   .     A
C480   C482    1.393   .     A
C480   I516    2.140   .     S
C481   H495    1.084   .     S
C481   C483    1.397   .     A
C482   H496    1.084   .     S
C482   C484    1.397   .     A
C483   C485    1.394   .     A
C484   C486    1.394   .     A
C485   H497    1.083   .     S
C485   C487    1.388   .     A
C486   H498    1.083   .     S
C486   C488    1.388   .     A
C487   C489    1.409   .     A
C487   H499    1.073   .     S
C488   C490    1.409   .     A
C488   H500    1.073   .     S
C489   C688    1.507   1_545 S
C490   C687    1.507   .     S
Cu491  Cu492   2.695   .     S
Cu491  O511    1.965   .     S
Cu491  N506    2.025   .     S
Cu491  O510    1.967   .     S
Cu491  O507    1.952   .     S
Cu491  O514    1.969   .     S
Cu492  O513    1.969   .     S
Cu492  O512    1.965   .     S
Cu492  N505    2.025   .     S
Cu492  O509    1.967   .     S
Cu492  O508    1.952   .     S
H493   C543    1.087   .     S
S519   O520    1.504   .     D
S519   O521    1.501   .     D
O522   H523    0.991   .     S
O522   S123    1.680   1_556 S
S524   O526    1.500   .     D
S524   O527    1.683   .     S
S524   O129    1.501   1_556 S
O527   H132    0.992   1_556 S
C529   C549    1.459   .     S
C529   O573    1.296   .     A
C529   O575    1.301   .     A
C530   C550    1.459   .     S
C530   O574    1.296   .     A
C530   O576    1.301   .     A
C531   C533    1.405   .     A
C531   H567    1.073   .     S
C531   C539    1.416   .     A
C532   H568    1.073   .     S
C532   C534    1.406   .     A
C532   C540    1.416   .     A
C533   N571    1.358   .     A
C533   H569    1.081   .     S
C534   H570    1.081   .     S
C534   N572    1.359   .     A
C535   N571    1.387   .     A
C535   I583    2.153   .     S
C535   C537    1.428   .     A
C536   I584    2.153   .     S
C536   C538    1.427   .     A
C536   N572    1.387   .     A
C537   C539    1.424   .     A
C537   S585    1.791   .     S
C538   S590    1.791   .     S
C538   C540    1.423   .     A
C540   C143    1.552   1_556 S
C541   C543    1.441   .     S
C541   O577    1.291   .     A
C541   O579    1.297   .     A
C542   O580    1.297   .     A
C542   C544    1.441   .     S
C542   O578    1.291   .     A
C544   C411    1.339   1_655 S
C544   H428    1.087   1_655 S
C545   C547    1.393   .     A
C545   C555    1.427   .     A
C545   I581    2.140   .     S
C546   C556    1.428   .     A
C546   C548    1.393   .     A
C546   I582    2.140   .     S
C547   H561    1.084   .     S
C547   C549    1.397   .     A
C548   H562    1.084   .     S
C548   C550    1.397   .     A
C549   C551    1.394   .     A
C550   C552    1.394   .     A
C551   H563    1.083   .     S
C551   C553    1.388   .     A
C552   H564    1.083   .     S
C552   C554    1.388   .     A
C553   C555    1.409   .     A
C553   H565    1.073   .     S
C554   C556    1.409   .     A
C554   H566    1.073   .     S
C555   C754    1.507   1_545 S
C556   C753    1.507   .     S
Cu557  Cu558   2.695   .     S
Cu557  O577    1.965   .     S
Cu557  N572    2.025   .     S
Cu557  O576    1.967   .     S
Cu557  O573    1.952   .     S
Cu557  O580    1.969   .     S
Cu558  O579    1.969   .     S
Cu558  O578    1.965   .     S
Cu558  N571    2.025   .     S
Cu558  O575    1.967   .     S
Cu558  O574    1.952   .     S
H559   C411    1.087   1_655 S
S585   O586    1.504   .     D
S585   O587    1.501   .     D
O588   H589    0.991   .     S
O588   S189    1.680   1_556 S
S590   O592    1.500   .     D
S590   O593    1.683   .     S
S590   O195    1.501   1_556 S
O593   H198    0.992   1_556 S
C595   C615    1.459   .     S
C595   O639    1.296   .     A
C595   O641    1.301   .     A
C596   C616    1.459   .     S
C596   O640    1.296   .     A
C596   O642    1.301   .     A
C597   C599    1.405   .     A
C597   H633    1.073   .     S
C597   C605    1.416   .     A
C598   H634    1.073   .     S
C598   C600    1.406   .     A
C598   C606    1.416   .     A
C599   N637    1.358   .     A
C599   H635    1.081   .     S
C600   H636    1.081   .     S
C600   N638    1.359   .     A
C601   N637    1.387   .     A
C601   I649    2.153   .     S
C601   C603    1.428   .     A
C602   I650    2.153   .     S
C602   C604    1.427   .     A
C602   N638    1.387   .     A
C603   C605    1.424   .     A
C603   S651    1.791   .     S
C604   S656    1.791   .     S
C604   C606    1.423   .     A
C606   C209    1.552   1_556 S
C607   C609    1.441   .     S
C607   O643    1.291   .     A
C607   O645    1.297   .     A
C608   O646    1.297   .     A
C608   C610    1.441   .     S
C608   O644    1.291   .     A
C609   C742    1.339   1_455 S
C609   H757    1.087   1_455 S
C610   C675    1.339   .     S
C610   H692    1.087   .     S
C611   C613    1.393   .     A
C611   C621    1.427   .     A
C611   I647    2.140   .     S
C612   C622    1.428   .     A
C612   C614    1.393   .     A
C612   I648    2.140   .     S
C613   H627    1.084   .     S
C613   C615    1.397   .     A
C614   H628    1.084   .     S
C614   C616    1.397   .     A
C615   C617    1.394   .     A
C616   C618    1.394   .     A
C617   H629    1.083   .     S
C617   C619    1.388   .     A
C618   H630    1.083   .     S
C618   C620    1.388   .     A
C619   C621    1.409   .     A
C619   H631    1.073   .     S
C620   C622    1.409   .     A
C620   H632    1.073   .     S
C622   C423    1.507   1_565 S
Cu623  Cu624   2.695   .     S
Cu623  O643    1.965   .     S
Cu623  N638    2.025   .     S
Cu623  O642    1.967   .     S
Cu623  O639    1.952   .     S
Cu623  O646    1.969   .     S
Cu624  O645    1.969   .     S
Cu624  O644    1.965   .     S
Cu624  N637    2.025   .     S
Cu624  O641    1.967   .     S
Cu624  O640    1.952   .     S
H625   C675    1.087   .     S
H626   C742    1.087   1_455 S
S651   O652    1.504   .     D
S651   O653    1.501   .     D
O654   H655    0.991   .     S
O654   S255    1.680   1_556 S
S656   O658    1.500   .     D
S656   O659    1.683   .     S
S656   O261    1.501   1_556 S
O659   H264    0.992   1_556 S
C661   C681    1.459   .     S
C661   O705    1.296   .     A
C661   O707    1.301   .     A
C662   C682    1.459   .     S
C662   O706    1.296   .     A
C662   O708    1.301   .     A
C663   C665    1.405   .     A
C663   H699    1.073   .     S
C663   C671    1.416   .     A
C664   H700    1.073   .     S
C664   C666    1.406   .     A
C664   C672    1.416   .     A
C665   N703    1.358   .     A
C665   H701    1.081   .     S
C666   H702    1.081   .     S
C666   N704    1.359   .     A
C667   N703    1.387   .     A
C667   I715    2.153   .     S
C667   C669    1.428   .     A
C668   I716    2.153   .     S
C668   C670    1.427   .     A
C668   N704    1.387   .     A
C669   C671    1.424   .     A
C669   S717    1.791   .     S
C670   S722    1.791   .     S
C670   C672    1.423   .     A
C672   C275    1.552   1_556 S
C673   C675    1.441   .     S
C673   O709    1.291   .     A
C673   O711    1.297   .     A
C674   O712    1.297   .     A
C674   C676    1.441   .     S
C674   O710    1.291   .     A
C676   C741    1.339   .     S
C676   H758    1.087   .     S
C677   C679    1.393   .     A
C677   C687    1.427   .     A
C677   I713    2.140   .     S
C678   C688    1.428   .     A
C678   C680    1.393   .     A
C678   I714    2.140   .     S
C679   H693    1.084   .     S
C679   C681    1.397   .     A
C680   H694    1.084   .     S
C680   C682    1.397   .     A
C681   C683    1.394   .     A
C682   C684    1.394   .     A
C683   H695    1.083   .     S
C683   C685    1.388   .     A
C684   H696    1.083   .     S
C684   C686    1.388   .     A
C685   C687    1.409   .     A
C685   H697    1.073   .     S
C686   C688    1.409   .     A
C686   H698    1.073   .     S
C688   C489    1.507   1_565 S
Cu689  Cu690   2.695   .     S
Cu689  O709    1.965   .     S
Cu689  N704    2.025   .     S
Cu689  O708    1.967   .     S
Cu689  O705    1.952   .     S
Cu689  O712    1.969   .     S
Cu690  O711    1.969   .     S
Cu690  O710    1.965   .     S
Cu690  N703    2.025   .     S
Cu690  O707    1.967   .     S
Cu690  O706    1.952   .     S
H691   C741    1.087   .     S
S717   O718    1.504   .     D
S717   O719    1.501   .     D
O720   H721    0.991   .     S
O720   S321    1.680   1_556 S
S722   O724    1.500   .     D
S722   O725    1.683   .     S
S722   O327    1.501   1_556 S
O725   H330    0.992   1_556 S
C727   C747    1.459   .     S
C727   O771    1.296   .     A
C727   O773    1.301   .     A
C728   C748    1.459   .     S
C728   O772    1.296   .     A
C728   O774    1.301   .     A
C729   C731    1.405   .     A
C729   H765    1.073   .     S
C729   C737    1.416   .     A
C730   H766    1.073   .     S
C730   C732    1.406   .     A
C730   C738    1.416   .     A
C731   N769    1.358   .     A
C731   H767    1.081   .     S
C732   H768    1.081   .     S
C732   N770    1.359   .     A
C733   N769    1.387   .     A
C733   I781    2.153   .     S
C733   C735    1.428   .     A
C734   I782    2.153   .     S
C734   C736    1.427   .     A
C734   N770    1.387   .     A
C735   C737    1.424   .     A
C735   S783    1.791   .     S
C736   S788    1.791   .     S
C736   C738    1.423   .     A
C738   C341    1.552   1_556 S
C739   C741    1.441   .     S
C739   O775    1.291   .     A
C739   O777    1.297   .     A
C740   O778    1.297   .     A
C740   C742    1.441   .     S
C740   O776    1.291   .     A
C742   C609    1.339   1_655 S
C742   H626    1.087   1_655 S
C743   C745    1.393   .     A
C743   C753    1.427   .     A
C743   I779    2.140   .     S
C744   C754    1.428   .     A
C744   C746    1.393   .     A
C744   I780    2.140   .     S
C745   H759    1.084   .     S
C745   C747    1.397   .     A
C746   H760    1.084   .     S
C746   C748    1.397   .     A
C747   C749    1.394   .     A
C748   C750    1.394   .     A
C749   H761    1.083   .     S
C749   C751    1.388   .     A
C750   H762    1.083   .     S
C750   C752    1.388   .     A
C751   C753    1.409   .     A
C751   H763    1.073   .     S
C752   C754    1.409   .     A
C752   H764    1.073   .     S
C754   C555    1.507   1_565 S
Cu755  Cu756   2.695   .     S
Cu755  O775    1.965   .     S
Cu755  N770    2.025   .     S
Cu755  O774    1.967   .     S
Cu755  O771    1.952   .     S
Cu755  O778    1.969   .     S
Cu756  O777    1.969   .     S
Cu756  O776    1.965   .     S
Cu756  N769    2.025   .     S
Cu756  O773    1.967   .     S
Cu756  O772    1.952   .     S
H757   C609    1.087   1_655 S
S783   O784    1.504   .     D
S783   O785    1.501   .     D
O786   H787    0.991   .     S
O786   S387    1.680   1_556 S
S788   O790    1.500   .     D
S788   O791    1.683   .     S
S788   O393    1.501   1_556 S
O791   H396    0.992   1_556 S
