data_str_m3_o1_o2_pcu_sym.121
_audit_creation_date              2020-01-03
_audit_creation_method            'Materials Studio'
_symmetry_space_group_name_H-M    'P1'
_symmetry_Int_Tables_number       1
_symmetry_cell_setting            triclinic
loop_
_symmetry_equiv_pos_as_xyz
  x,y,z
_cell_length_a                    31.8832
_cell_length_b                    29.5692
_cell_length_c                    29.9724
_cell_angle_alpha                 90.0463
_cell_angle_beta                  90.2524
_cell_angle_gamma                 90.1185
loop_
_atom_site_label
_atom_site_type_symbol
_atom_site_fract_x
_atom_site_fract_y
_atom_site_fract_z
_atom_site_U_iso_or_equiv
_atom_site_adp_type
_atom_site_occupancy
C1     C     0.08683   0.16661   0.25042   0.00000  Uiso   1.00
C2     C     0.24651   0.16673   0.24961   0.00000  Uiso   1.00
C3     C     0.16651   0.16667   0.16390   0.00000  Uiso   1.00
C4     C     0.16658   0.16668   0.33608   0.00000  Uiso   1.00
C5     C     0.19372   0.02404   0.27674   0.00000  Uiso   1.00
C6     C     0.13966   0.30928   0.22321   0.00000  Uiso   1.00
C7     C     0.13959   0.02388   0.22329   0.00000  Uiso   1.00
C8     C     0.19368   0.30944   0.27679   0.00000  Uiso   1.00
C9     C     0.02144   0.14952   0.28771   0.00000  Uiso   1.00
C10    C     0.31192   0.18386   0.21237   0.00000  Uiso   1.00
C11    C     0.31141   0.14971   0.28723   0.00000  Uiso   1.00
C12    C     0.02195   0.18360   0.21281   0.00000  Uiso   1.00
C13    C     0.18528   0.20170   0.04656   0.00000  Uiso   1.00
C14    C     0.18611   0.13269   0.45367   0.00000  Uiso   1.00
C15    C     0.14304   0.20067   0.45271   0.00000  Uiso   1.00
C16    C     0.14360   0.13254   0.04687   0.00000  Uiso   1.00
C17    C     0.18605   0.20164   0.09265   0.00000  Uiso   1.00
C18    C     0.18689   0.13259   0.40759   0.00000  Uiso   1.00
C19    C     0.14383   0.20075   0.40661   0.00000  Uiso   1.00
C20    C     0.14440   0.13228   0.09296   0.00000  Uiso   1.00
C21    C     0.16576   0.16678   0.11591   0.00000  Uiso   1.00
C22    C     0.16583   0.16672   0.38403   0.00000  Uiso   1.00
C23    C     0.16414   0.16713   0.02390   0.00000  Uiso   1.00
C24    C     0.16424   0.16672   0.47600   0.00000  Uiso   1.00
C25    C     0.29062   0.16685   0.24969   0.00000  Uiso   1.00
C26    C     0.04273   0.16649   0.25036   0.00000  Uiso   1.00
N27    N     0.16667   0.28573   0.25000   0.00000  Uiso   1.00
N28    N     0.16667   0.04760   0.25000   0.00000  Uiso   1.00
O29    O     0.10559   0.20487   0.25000   0.00000  Uiso   1.00
O30    O     0.22774   0.12846   0.25000   0.00000  Uiso   1.00
O31    O     0.22774   0.20487   0.25001   0.00000  Uiso   1.00
O32    O     0.10559   0.12846   0.25000   0.00000  Uiso   1.00
O33    O     0.16666   0.20489   0.18453   0.00000  Uiso   1.00
O34    O     0.16667   0.12845   0.31547   0.00000  Uiso   1.00
O35    O     0.16667   0.20489   0.31547   0.00000  Uiso   1.00
O36    O     0.16666   0.12845   0.18453   0.00000  Uiso   1.00
Zn37   Zn    0.16667   0.21771   0.25000   0.00000  Uiso   1.00
Zn38   Zn    0.16667   0.11563   0.25000   0.00000  Uiso   1.00
F39    F     0.22091   0.04674   0.30348   0.00000  Uiso   1.00
F40    F     0.11264   0.28655   0.19626   0.00000  Uiso   1.00
F41    F     0.11232   0.04642   0.19664   0.00000  Uiso   1.00
F42    F     0.22071   0.28687   0.30372   0.00000  Uiso   1.00
F43    F     0.20572   0.23481   0.02392   0.00000  Uiso   1.00
F44    F     0.20722   0.10026   0.47662   0.00000  Uiso   1.00
F45    F     0.12138   0.23325   0.47472   0.00000  Uiso   1.00
F46    F     0.12259   0.09946   0.02453   0.00000  Uiso   1.00
F47    F     0.20741   0.23484   0.11442   0.00000  Uiso   1.00
F48    F     0.20903   0.10005   0.38613   0.00000  Uiso   1.00
F49    F     0.12239   0.23328   0.38413   0.00000  Uiso   1.00
F50    F     0.12353   0.09914   0.11505   0.00000  Uiso   1.00
N51    N     0.04327   0.13321   0.32650   0.00000  Uiso   1.00
H52    H     0.06324   0.15872   0.33822   0.00000  Uiso   1.00
H53    H     0.06137   0.10528   0.31744   0.00000  Uiso   1.00
N54    N     0.29011   0.20033   0.17364   0.00000  Uiso   1.00
H55    H     0.27004   0.17492   0.16188   0.00000  Uiso   1.00
H56    H     0.27213   0.22831   0.18280   0.00000  Uiso   1.00
N57    N     0.28811   0.13337   0.32486   0.00000  Uiso   1.00
H58    H     0.29649   0.09969   0.33055   0.00000  Uiso   1.00
H59    H     0.29671   0.15235   0.35290   0.00000  Uiso   1.00
N60    N     0.04526   0.19986   0.17515   0.00000  Uiso   1.00
H61    H     0.03690   0.23354   0.16942   0.00000  Uiso   1.00
H62    H     0.03662   0.18084   0.14714   0.00000  Uiso   1.00
C63    C     0.42016   0.16661   0.25042   0.00000  Uiso   1.00
C64    C     0.57984   0.16673   0.24961   0.00000  Uiso   1.00
C65    C     0.49984   0.16667   0.16390   0.00000  Uiso   1.00
C66    C     0.49991   0.16668   0.33608   0.00000  Uiso   1.00
C67    C     0.52706   0.02404   0.27674   0.00000  Uiso   1.00
C68    C     0.47299   0.30928   0.22321   0.00000  Uiso   1.00
C69    C     0.47292   0.02388   0.22329   0.00000  Uiso   1.00
C70    C     0.52701   0.30944   0.27679   0.00000  Uiso   1.00
C71    C     0.35478   0.14952   0.28771   0.00000  Uiso   1.00
C72    C     0.64525   0.18386   0.21237   0.00000  Uiso   1.00
C73    C     0.64474   0.14971   0.28723   0.00000  Uiso   1.00
C74    C     0.35529   0.18360   0.21281   0.00000  Uiso   1.00
C75    C     0.51861   0.20170   0.04656   0.00000  Uiso   1.00
C76    C     0.51945   0.13269   0.45367   0.00000  Uiso   1.00
C77    C     0.47638   0.20067   0.45271   0.00000  Uiso   1.00
C78    C     0.47694   0.13254   0.04687   0.00000  Uiso   1.00
C79    C     0.51938   0.20164   0.09265   0.00000  Uiso   1.00
C80    C     0.52022   0.13259   0.40759   0.00000  Uiso   1.00
C81    C     0.47717   0.20075   0.40661   0.00000  Uiso   1.00
C82    C     0.47773   0.13228   0.09296   0.00000  Uiso   1.00
C83    C     0.49909   0.16678   0.11591   0.00000  Uiso   1.00
C84    C     0.49917   0.16672   0.38403   0.00000  Uiso   1.00
C85    C     0.49748   0.16713   0.02390   0.00000  Uiso   1.00
C86    C     0.49757   0.16672   0.47600   0.00000  Uiso   1.00
C87    C     0.62396   0.16685   0.24969   0.00000  Uiso   1.00
C88    C     0.37606   0.16649   0.25036   0.00000  Uiso   1.00
N89    N     0.50000   0.28573   0.25000   0.00000  Uiso   1.00
N90    N     0.50000   0.04760   0.25000   0.00000  Uiso   1.00
O91    O     0.43892   0.20487   0.25000   0.00000  Uiso   1.00
O92    O     0.56108   0.12846   0.25000   0.00000  Uiso   1.00
O93    O     0.56108   0.20487   0.25001   0.00000  Uiso   1.00
O94    O     0.43892   0.12846   0.25000   0.00000  Uiso   1.00
O95    O     0.50000   0.20489   0.18453   0.00000  Uiso   1.00
O96    O     0.50000   0.12845   0.31547   0.00000  Uiso   1.00
O97    O     0.50000   0.20489   0.31547   0.00000  Uiso   1.00
O98    O     0.50000   0.12845   0.18453   0.00000  Uiso   1.00
Zn99   Zn    0.50000   0.21771   0.25000   0.00000  Uiso   1.00
Zn100  Zn    0.50000   0.11563   0.25000   0.00000  Uiso   1.00
F101   F     0.55425   0.04674   0.30348   0.00000  Uiso   1.00
F102   F     0.44598   0.28655   0.19626   0.00000  Uiso   1.00
F103   F     0.44565   0.04642   0.19664   0.00000  Uiso   1.00
F104   F     0.55404   0.28687   0.30372   0.00000  Uiso   1.00
F105   F     0.53905   0.23481   0.02392   0.00000  Uiso   1.00
F106   F     0.54056   0.10026   0.47662   0.00000  Uiso   1.00
F107   F     0.45471   0.23325   0.47472   0.00000  Uiso   1.00
F108   F     0.45592   0.09946   0.02453   0.00000  Uiso   1.00
F109   F     0.54074   0.23484   0.11442   0.00000  Uiso   1.00
F110   F     0.54237   0.10005   0.38613   0.00000  Uiso   1.00
F111   F     0.45572   0.23328   0.38413   0.00000  Uiso   1.00
F112   F     0.45686   0.09914   0.11505   0.00000  Uiso   1.00
N113   N     0.37661   0.13321   0.32650   0.00000  Uiso   1.00
H114   H     0.39658   0.15872   0.33822   0.00000  Uiso   1.00
H115   H     0.39471   0.10528   0.31744   0.00000  Uiso   1.00
N116   N     0.62344   0.20033   0.17364   0.00000  Uiso   1.00
H117   H     0.60337   0.17492   0.16188   0.00000  Uiso   1.00
H118   H     0.60546   0.22831   0.18280   0.00000  Uiso   1.00
N119   N     0.62144   0.13337   0.32486   0.00000  Uiso   1.00
H120   H     0.62982   0.09969   0.33055   0.00000  Uiso   1.00
H121   H     0.63005   0.15235   0.35290   0.00000  Uiso   1.00
N122   N     0.37859   0.19986   0.17515   0.00000  Uiso   1.00
H123   H     0.37023   0.23354   0.16942   0.00000  Uiso   1.00
H124   H     0.36996   0.18084   0.14714   0.00000  Uiso   1.00
C125   C     0.75350   0.16661   0.25042   0.00000  Uiso   1.00
C126   C     0.91318   0.16673   0.24961   0.00000  Uiso   1.00
C127   C     0.83317   0.16667   0.16390   0.00000  Uiso   1.00
C128   C     0.83325   0.16668   0.33608   0.00000  Uiso   1.00
C129   C     0.86039   0.02404   0.27674   0.00000  Uiso   1.00
C130   C     0.80632   0.30928   0.22321   0.00000  Uiso   1.00
C131   C     0.80625   0.02388   0.22329   0.00000  Uiso   1.00
C132   C     0.86034   0.30944   0.27679   0.00000  Uiso   1.00
C133   C     0.68811   0.14952   0.28771   0.00000  Uiso   1.00
C134   C     0.97859   0.18386   0.21237   0.00000  Uiso   1.00
C135   C     0.97807   0.14971   0.28723   0.00000  Uiso   1.00
C136   C     0.68862   0.18360   0.21281   0.00000  Uiso   1.00
C137   C     0.85195   0.20170   0.04656   0.00000  Uiso   1.00
C138   C     0.85278   0.13269   0.45367   0.00000  Uiso   1.00
C139   C     0.80971   0.20067   0.45271   0.00000  Uiso   1.00
C140   C     0.81027   0.13254   0.04687   0.00000  Uiso   1.00
C141   C     0.85272   0.20164   0.09265   0.00000  Uiso   1.00
C142   C     0.85355   0.13259   0.40759   0.00000  Uiso   1.00
C143   C     0.81050   0.20075   0.40661   0.00000  Uiso   1.00
C144   C     0.81107   0.13228   0.09296   0.00000  Uiso   1.00
C145   C     0.83243   0.16678   0.11591   0.00000  Uiso   1.00
C146   C     0.83250   0.16672   0.38403   0.00000  Uiso   1.00
C147   C     0.83081   0.16713   0.02390   0.00000  Uiso   1.00
C148   C     0.83090   0.16672   0.47600   0.00000  Uiso   1.00
C149   C     0.95729   0.16685   0.24969   0.00000  Uiso   1.00
C150   C     0.70940   0.16649   0.25036   0.00000  Uiso   1.00
N151   N     0.83333   0.28573   0.25000   0.00000  Uiso   1.00
N152   N     0.83333   0.04760   0.25000   0.00000  Uiso   1.00
O153   O     0.77226   0.20487   0.25000   0.00000  Uiso   1.00
O154   O     0.89441   0.12846   0.25000   0.00000  Uiso   1.00
O155   O     0.89441   0.20487   0.25001   0.00000  Uiso   1.00
O156   O     0.77226   0.12846   0.25000   0.00000  Uiso   1.00
O157   O     0.83333   0.20489   0.18453   0.00000  Uiso   1.00
O158   O     0.83334   0.12845   0.31547   0.00000  Uiso   1.00
O159   O     0.83334   0.20489   0.31547   0.00000  Uiso   1.00
O160   O     0.83333   0.12845   0.18453   0.00000  Uiso   1.00
Zn161  Zn    0.83333   0.21771   0.25000   0.00000  Uiso   1.00
Zn162  Zn    0.83333   0.11563   0.25000   0.00000  Uiso   1.00
F163   F     0.88758   0.04674   0.30348   0.00000  Uiso   1.00
F164   F     0.77931   0.28655   0.19626   0.00000  Uiso   1.00
F165   F     0.77899   0.04642   0.19664   0.00000  Uiso   1.00
F166   F     0.88738   0.28687   0.30372   0.00000  Uiso   1.00
F167   F     0.87238   0.23481   0.02392   0.00000  Uiso   1.00
F168   F     0.87389   0.10026   0.47662   0.00000  Uiso   1.00
F169   F     0.78805   0.23325   0.47472   0.00000  Uiso   1.00
F170   F     0.78925   0.09946   0.02453   0.00000  Uiso   1.00
F171   F     0.87408   0.23484   0.11442   0.00000  Uiso   1.00
F172   F     0.87570   0.10005   0.38613   0.00000  Uiso   1.00
F173   F     0.78906   0.23328   0.38413   0.00000  Uiso   1.00
F174   F     0.79019   0.09914   0.11505   0.00000  Uiso   1.00
N175   N     0.70994   0.13321   0.32650   0.00000  Uiso   1.00
H176   H     0.72991   0.15872   0.33822   0.00000  Uiso   1.00
H177   H     0.72804   0.10528   0.31744   0.00000  Uiso   1.00
N178   N     0.95677   0.20033   0.17364   0.00000  Uiso   1.00
H179   H     0.93671   0.17492   0.16188   0.00000  Uiso   1.00
H180   H     0.93879   0.22831   0.18280   0.00000  Uiso   1.00
N181   N     0.95477   0.13337   0.32486   0.00000  Uiso   1.00
H182   H     0.96315   0.09969   0.33055   0.00000  Uiso   1.00
H183   H     0.96338   0.15235   0.35290   0.00000  Uiso   1.00
N184   N     0.71192   0.19986   0.17515   0.00000  Uiso   1.00
H185   H     0.70356   0.23354   0.16942   0.00000  Uiso   1.00
H186   H     0.70329   0.18084   0.14714   0.00000  Uiso   1.00
C187   C     0.08683   0.49994   0.25042   0.00000  Uiso   1.00
C188   C     0.24651   0.50006   0.24961   0.00000  Uiso   1.00
C189   C     0.16651   0.50001   0.16390   0.00000  Uiso   1.00
C190   C     0.16658   0.50002   0.33608   0.00000  Uiso   1.00
C191   C     0.19372   0.35737   0.27674   0.00000  Uiso   1.00
C192   C     0.13966   0.64261   0.22321   0.00000  Uiso   1.00
C193   C     0.13959   0.35721   0.22329   0.00000  Uiso   1.00
C194   C     0.19368   0.64277   0.27679   0.00000  Uiso   1.00
C195   C     0.02144   0.48285   0.28771   0.00000  Uiso   1.00
C196   C     0.31192   0.51719   0.21237   0.00000  Uiso   1.00
C197   C     0.31141   0.48304   0.28723   0.00000  Uiso   1.00
C198   C     0.02195   0.51693   0.21281   0.00000  Uiso   1.00
C199   C     0.18528   0.53503   0.04656   0.00000  Uiso   1.00
C200   C     0.18611   0.46602   0.45367   0.00000  Uiso   1.00
C201   C     0.14304   0.53401   0.45271   0.00000  Uiso   1.00
C202   C     0.14360   0.46587   0.04687   0.00000  Uiso   1.00
C203   C     0.18605   0.53497   0.09265   0.00000  Uiso   1.00
C204   C     0.18689   0.46593   0.40759   0.00000  Uiso   1.00
C205   C     0.14383   0.53409   0.40661   0.00000  Uiso   1.00
C206   C     0.14440   0.46562   0.09296   0.00000  Uiso   1.00
C207   C     0.16576   0.50011   0.11591   0.00000  Uiso   1.00
C208   C     0.16583   0.50005   0.38403   0.00000  Uiso   1.00
C209   C     0.16414   0.50046   0.02390   0.00000  Uiso   1.00
C210   C     0.16424   0.50005   0.47600   0.00000  Uiso   1.00
C211   C     0.29062   0.50018   0.24969   0.00000  Uiso   1.00
C212   C     0.04273   0.49982   0.25036   0.00000  Uiso   1.00
N213   N     0.16667   0.61907   0.25000   0.00000  Uiso   1.00
N214   N     0.16667   0.38093   0.25000   0.00000  Uiso   1.00
O215   O     0.10559   0.53821   0.25000   0.00000  Uiso   1.00
O216   O     0.22774   0.46179   0.25000   0.00000  Uiso   1.00
O217   O     0.22774   0.53821   0.25001   0.00000  Uiso   1.00
O218   O     0.10559   0.46179   0.25000   0.00000  Uiso   1.00
O219   O     0.16666   0.53822   0.18453   0.00000  Uiso   1.00
O220   O     0.16667   0.46178   0.31547   0.00000  Uiso   1.00
O221   O     0.16667   0.53822   0.31547   0.00000  Uiso   1.00
O222   O     0.16666   0.46178   0.18453   0.00000  Uiso   1.00
Zn223  Zn    0.16667   0.55104   0.25000   0.00000  Uiso   1.00
Zn224  Zn    0.16667   0.44896   0.25000   0.00000  Uiso   1.00
F225   F     0.22091   0.38008   0.30348   0.00000  Uiso   1.00
F226   F     0.11264   0.61988   0.19626   0.00000  Uiso   1.00
F227   F     0.11232   0.37975   0.19664   0.00000  Uiso   1.00
F228   F     0.22071   0.62020   0.30372   0.00000  Uiso   1.00
F229   F     0.20572   0.56814   0.02392   0.00000  Uiso   1.00
F230   F     0.20722   0.43359   0.47662   0.00000  Uiso   1.00
F231   F     0.12138   0.56658   0.47472   0.00000  Uiso   1.00
F232   F     0.12259   0.43280   0.02453   0.00000  Uiso   1.00
F233   F     0.20741   0.56817   0.11442   0.00000  Uiso   1.00
F234   F     0.20903   0.43338   0.38613   0.00000  Uiso   1.00
F235   F     0.12239   0.56661   0.38413   0.00000  Uiso   1.00
F236   F     0.12353   0.43247   0.11505   0.00000  Uiso   1.00
N237   N     0.04327   0.46654   0.32650   0.00000  Uiso   1.00
H238   H     0.06324   0.49206   0.33822   0.00000  Uiso   1.00
H239   H     0.06137   0.43861   0.31744   0.00000  Uiso   1.00
N240   N     0.29011   0.53366   0.17364   0.00000  Uiso   1.00
H241   H     0.27004   0.50825   0.16188   0.00000  Uiso   1.00
H242   H     0.27213   0.56165   0.18280   0.00000  Uiso   1.00
N243   N     0.28811   0.46670   0.32486   0.00000  Uiso   1.00
H244   H     0.29649   0.43302   0.33055   0.00000  Uiso   1.00
H245   H     0.29671   0.48568   0.35290   0.00000  Uiso   1.00
N246   N     0.04526   0.53320   0.17515   0.00000  Uiso   1.00
H247   H     0.03690   0.56687   0.16942   0.00000  Uiso   1.00
H248   H     0.03662   0.51418   0.14714   0.00000  Uiso   1.00
C249   C     0.42016   0.49994   0.25042   0.00000  Uiso   1.00
C250   C     0.57984   0.50006   0.24961   0.00000  Uiso   1.00
C251   C     0.49984   0.50001   0.16390   0.00000  Uiso   1.00
C252   C     0.49991   0.50002   0.33608   0.00000  Uiso   1.00
C253   C     0.52706   0.35737   0.27674   0.00000  Uiso   1.00
C254   C     0.47299   0.64261   0.22321   0.00000  Uiso   1.00
C255   C     0.47292   0.35721   0.22329   0.00000  Uiso   1.00
C256   C     0.52701   0.64277   0.27679   0.00000  Uiso   1.00
C257   C     0.35478   0.48285   0.28771   0.00000  Uiso   1.00
C258   C     0.64525   0.51719   0.21237   0.00000  Uiso   1.00
C259   C     0.64474   0.48304   0.28723   0.00000  Uiso   1.00
C260   C     0.35529   0.51693   0.21281   0.00000  Uiso   1.00
C261   C     0.51861   0.53503   0.04656   0.00000  Uiso   1.00
C262   C     0.51945   0.46602   0.45367   0.00000  Uiso   1.00
C263   C     0.47638   0.53401   0.45271   0.00000  Uiso   1.00
C264   C     0.47694   0.46587   0.04687   0.00000  Uiso   1.00
C265   C     0.51938   0.53497   0.09265   0.00000  Uiso   1.00
C266   C     0.52022   0.46593   0.40759   0.00000  Uiso   1.00
C267   C     0.47717   0.53409   0.40661   0.00000  Uiso   1.00
C268   C     0.47773   0.46562   0.09296   0.00000  Uiso   1.00
C269   C     0.49909   0.50011   0.11591   0.00000  Uiso   1.00
C270   C     0.49917   0.50005   0.38403   0.00000  Uiso   1.00
C271   C     0.49748   0.50046   0.02390   0.00000  Uiso   1.00
C272   C     0.49757   0.50005   0.47600   0.00000  Uiso   1.00
C273   C     0.62396   0.50018   0.24969   0.00000  Uiso   1.00
C274   C     0.37606   0.49982   0.25036   0.00000  Uiso   1.00
N275   N     0.50000   0.61907   0.25000   0.00000  Uiso   1.00
N276   N     0.50000   0.38093   0.25000   0.00000  Uiso   1.00
O277   O     0.43892   0.53821   0.25000   0.00000  Uiso   1.00
O278   O     0.56108   0.46179   0.25000   0.00000  Uiso   1.00
O279   O     0.56108   0.53821   0.25001   0.00000  Uiso   1.00
O280   O     0.43892   0.46179   0.25000   0.00000  Uiso   1.00
O281   O     0.50000   0.53822   0.18453   0.00000  Uiso   1.00
O282   O     0.50000   0.46178   0.31547   0.00000  Uiso   1.00
O283   O     0.50000   0.53822   0.31547   0.00000  Uiso   1.00
O284   O     0.50000   0.46178   0.18453   0.00000  Uiso   1.00
Zn285  Zn    0.50000   0.55104   0.25000   0.00000  Uiso   1.00
Zn286  Zn    0.50000   0.44896   0.25000   0.00000  Uiso   1.00
F287   F     0.55425   0.38008   0.30348   0.00000  Uiso   1.00
F288   F     0.44598   0.61988   0.19626   0.00000  Uiso   1.00
F289   F     0.44565   0.37975   0.19664   0.00000  Uiso   1.00
F290   F     0.55404   0.62020   0.30372   0.00000  Uiso   1.00
F291   F     0.53905   0.56814   0.02392   0.00000  Uiso   1.00
F292   F     0.54056   0.43359   0.47662   0.00000  Uiso   1.00
F293   F     0.45471   0.56658   0.47472   0.00000  Uiso   1.00
F294   F     0.45592   0.43280   0.02453   0.00000  Uiso   1.00
F295   F     0.54074   0.56817   0.11442   0.00000  Uiso   1.00
F296   F     0.54237   0.43338   0.38613   0.00000  Uiso   1.00
F297   F     0.45572   0.56661   0.38413   0.00000  Uiso   1.00
F298   F     0.45686   0.43247   0.11505   0.00000  Uiso   1.00
N299   N     0.37661   0.46654   0.32650   0.00000  Uiso   1.00
H300   H     0.39658   0.49206   0.33822   0.00000  Uiso   1.00
H301   H     0.39471   0.43861   0.31744   0.00000  Uiso   1.00
N302   N     0.62344   0.53366   0.17364   0.00000  Uiso   1.00
H303   H     0.60337   0.50825   0.16188   0.00000  Uiso   1.00
H304   H     0.60546   0.56165   0.18280   0.00000  Uiso   1.00
N305   N     0.62144   0.46670   0.32486   0.00000  Uiso   1.00
H306   H     0.62982   0.43302   0.33055   0.00000  Uiso   1.00
H307   H     0.63005   0.48568   0.35290   0.00000  Uiso   1.00
N308   N     0.37859   0.53320   0.17515   0.00000  Uiso   1.00
H309   H     0.37023   0.56687   0.16942   0.00000  Uiso   1.00
H310   H     0.36996   0.51418   0.14714   0.00000  Uiso   1.00
C311   C     0.75350   0.49994   0.25042   0.00000  Uiso   1.00
C312   C     0.91318   0.50006   0.24961   0.00000  Uiso   1.00
C313   C     0.83317   0.50001   0.16390   0.00000  Uiso   1.00
C314   C     0.83325   0.50002   0.33608   0.00000  Uiso   1.00
C315   C     0.86039   0.35737   0.27674   0.00000  Uiso   1.00
C316   C     0.80632   0.64261   0.22321   0.00000  Uiso   1.00
C317   C     0.80625   0.35721   0.22329   0.00000  Uiso   1.00
C318   C     0.86034   0.64277   0.27679   0.00000  Uiso   1.00
C319   C     0.68811   0.48285   0.28771   0.00000  Uiso   1.00
C320   C     0.97859   0.51719   0.21237   0.00000  Uiso   1.00
C321   C     0.97807   0.48304   0.28723   0.00000  Uiso   1.00
C322   C     0.68862   0.51693   0.21281   0.00000  Uiso   1.00
C323   C     0.85195   0.53503   0.04656   0.00000  Uiso   1.00
C324   C     0.85278   0.46602   0.45367   0.00000  Uiso   1.00
C325   C     0.80971   0.53401   0.45271   0.00000  Uiso   1.00
C326   C     0.81027   0.46587   0.04687   0.00000  Uiso   1.00
C327   C     0.85272   0.53497   0.09265   0.00000  Uiso   1.00
C328   C     0.85355   0.46593   0.40759   0.00000  Uiso   1.00
C329   C     0.81050   0.53409   0.40661   0.00000  Uiso   1.00
C330   C     0.81107   0.46562   0.09296   0.00000  Uiso   1.00
C331   C     0.83243   0.50011   0.11591   0.00000  Uiso   1.00
C332   C     0.83250   0.50005   0.38403   0.00000  Uiso   1.00
C333   C     0.83081   0.50046   0.02390   0.00000  Uiso   1.00
C334   C     0.83090   0.50005   0.47600   0.00000  Uiso   1.00
C335   C     0.95729   0.50018   0.24969   0.00000  Uiso   1.00
C336   C     0.70940   0.49982   0.25036   0.00000  Uiso   1.00
N337   N     0.83333   0.61907   0.25000   0.00000  Uiso   1.00
N338   N     0.83333   0.38093   0.25000   0.00000  Uiso   1.00
O339   O     0.77226   0.53821   0.25000   0.00000  Uiso   1.00
O340   O     0.89441   0.46179   0.25000   0.00000  Uiso   1.00
O341   O     0.89441   0.53821   0.25001   0.00000  Uiso   1.00
O342   O     0.77226   0.46179   0.25000   0.00000  Uiso   1.00
O343   O     0.83333   0.53822   0.18453   0.00000  Uiso   1.00
O344   O     0.83334   0.46178   0.31547   0.00000  Uiso   1.00
O345   O     0.83334   0.53822   0.31547   0.00000  Uiso   1.00
O346   O     0.83333   0.46178   0.18453   0.00000  Uiso   1.00
Zn347  Zn    0.83333   0.55104   0.25000   0.00000  Uiso   1.00
Zn348  Zn    0.83333   0.44896   0.25000   0.00000  Uiso   1.00
F349   F     0.88758   0.38008   0.30348   0.00000  Uiso   1.00
F350   F     0.77931   0.61988   0.19626   0.00000  Uiso   1.00
F351   F     0.77899   0.37975   0.19664   0.00000  Uiso   1.00
F352   F     0.88738   0.62020   0.30372   0.00000  Uiso   1.00
F353   F     0.87238   0.56814   0.02392   0.00000  Uiso   1.00
F354   F     0.87389   0.43359   0.47662   0.00000  Uiso   1.00
F355   F     0.78805   0.56658   0.47472   0.00000  Uiso   1.00
F356   F     0.78925   0.43280   0.02453   0.00000  Uiso   1.00
F357   F     0.87408   0.56817   0.11442   0.00000  Uiso   1.00
F358   F     0.87570   0.43338   0.38613   0.00000  Uiso   1.00
F359   F     0.78906   0.56661   0.38413   0.00000  Uiso   1.00
F360   F     0.79019   0.43247   0.11505   0.00000  Uiso   1.00
N361   N     0.70994   0.46654   0.32650   0.00000  Uiso   1.00
H362   H     0.72991   0.49206   0.33822   0.00000  Uiso   1.00
H363   H     0.72804   0.43861   0.31744   0.00000  Uiso   1.00
N364   N     0.95677   0.53366   0.17364   0.00000  Uiso   1.00
H365   H     0.93671   0.50825   0.16188   0.00000  Uiso   1.00
H366   H     0.93879   0.56165   0.18280   0.00000  Uiso   1.00
N367   N     0.95477   0.46670   0.32486   0.00000  Uiso   1.00
H368   H     0.96315   0.43302   0.33055   0.00000  Uiso   1.00
H369   H     0.96338   0.48568   0.35290   0.00000  Uiso   1.00
N370   N     0.71192   0.53320   0.17515   0.00000  Uiso   1.00
H371   H     0.70356   0.56687   0.16942   0.00000  Uiso   1.00
H372   H     0.70329   0.51418   0.14714   0.00000  Uiso   1.00
C373   C     0.08683   0.83327   0.25042   0.00000  Uiso   1.00
C374   C     0.24651   0.83339   0.24961   0.00000  Uiso   1.00
C375   C     0.16651   0.83334   0.16390   0.00000  Uiso   1.00
C376   C     0.16658   0.83335   0.33608   0.00000  Uiso   1.00
C377   C     0.19372   0.69071   0.27674   0.00000  Uiso   1.00
C378   C     0.13966   0.97595   0.22321   0.00000  Uiso   1.00
C379   C     0.13959   0.69054   0.22329   0.00000  Uiso   1.00
C380   C     0.19368   0.97611   0.27679   0.00000  Uiso   1.00
C381   C     0.02144   0.81619   0.28771   0.00000  Uiso   1.00
C382   C     0.31192   0.85052   0.21237   0.00000  Uiso   1.00
C383   C     0.31141   0.81637   0.28723   0.00000  Uiso   1.00
C384   C     0.02195   0.85027   0.21281   0.00000  Uiso   1.00
C385   C     0.18528   0.86836   0.04656   0.00000  Uiso   1.00
C386   C     0.18611   0.79936   0.45367   0.00000  Uiso   1.00
C387   C     0.14304   0.86734   0.45271   0.00000  Uiso   1.00
C388   C     0.14360   0.79920   0.04687   0.00000  Uiso   1.00
C389   C     0.18605   0.86830   0.09265   0.00000  Uiso   1.00
C390   C     0.18689   0.79926   0.40759   0.00000  Uiso   1.00
C391   C     0.14383   0.86742   0.40661   0.00000  Uiso   1.00
C392   C     0.14440   0.79895   0.09296   0.00000  Uiso   1.00
C393   C     0.16576   0.83344   0.11591   0.00000  Uiso   1.00
C394   C     0.16583   0.83338   0.38403   0.00000  Uiso   1.00
C395   C     0.16414   0.83380   0.02390   0.00000  Uiso   1.00
C396   C     0.16424   0.83338   0.47600   0.00000  Uiso   1.00
C397   C     0.29062   0.83351   0.24969   0.00000  Uiso   1.00
C398   C     0.04273   0.83315   0.25036   0.00000  Uiso   1.00
N399   N     0.16667   0.95240   0.25000   0.00000  Uiso   1.00
N400   N     0.16667   0.71427   0.25000   0.00000  Uiso   1.00
O401   O     0.10559   0.87154   0.25000   0.00000  Uiso   1.00
O402   O     0.22774   0.79513   0.25000   0.00000  Uiso   1.00
O403   O     0.22774   0.87154   0.25001   0.00000  Uiso   1.00
O404   O     0.10559   0.79513   0.25000   0.00000  Uiso   1.00
O405   O     0.16666   0.87155   0.18453   0.00000  Uiso   1.00
O406   O     0.16667   0.79511   0.31547   0.00000  Uiso   1.00
O407   O     0.16667   0.87155   0.31547   0.00000  Uiso   1.00
O408   O     0.16666   0.79511   0.18453   0.00000  Uiso   1.00
Zn409  Zn    0.16667   0.88437   0.25000   0.00000  Uiso   1.00
Zn410  Zn    0.16667   0.78229   0.25000   0.00000  Uiso   1.00
F411   F     0.22091   0.71341   0.30348   0.00000  Uiso   1.00
F412   F     0.11264   0.95322   0.19626   0.00000  Uiso   1.00
F413   F     0.11232   0.71309   0.19664   0.00000  Uiso   1.00
F414   F     0.22071   0.95353   0.30372   0.00000  Uiso   1.00
F415   F     0.20572   0.90147   0.02392   0.00000  Uiso   1.00
F416   F     0.20722   0.76692   0.47662   0.00000  Uiso   1.00
F417   F     0.12138   0.89991   0.47472   0.00000  Uiso   1.00
F418   F     0.12259   0.76613   0.02453   0.00000  Uiso   1.00
F419   F     0.20741   0.90151   0.11442   0.00000  Uiso   1.00
F420   F     0.20903   0.76671   0.38613   0.00000  Uiso   1.00
F421   F     0.12239   0.89994   0.38413   0.00000  Uiso   1.00
F422   F     0.12353   0.76580   0.11505   0.00000  Uiso   1.00
N423   N     0.04327   0.79988   0.32650   0.00000  Uiso   1.00
H424   H     0.06324   0.82539   0.33822   0.00000  Uiso   1.00
H425   H     0.06137   0.77195   0.31744   0.00000  Uiso   1.00
N426   N     0.29011   0.86700   0.17364   0.00000  Uiso   1.00
H427   H     0.27004   0.84159   0.16188   0.00000  Uiso   1.00
H428   H     0.27213   0.89498   0.18280   0.00000  Uiso   1.00
N429   N     0.28811   0.80003   0.32486   0.00000  Uiso   1.00
H430   H     0.29649   0.76635   0.33055   0.00000  Uiso   1.00
H431   H     0.29671   0.81901   0.35290   0.00000  Uiso   1.00
N432   N     0.04526   0.86653   0.17515   0.00000  Uiso   1.00
H433   H     0.03690   0.90021   0.16942   0.00000  Uiso   1.00
H434   H     0.03662   0.84751   0.14714   0.00000  Uiso   1.00
C435   C     0.42016   0.83327   0.25042   0.00000  Uiso   1.00
C436   C     0.57984   0.83339   0.24961   0.00000  Uiso   1.00
C437   C     0.49984   0.83334   0.16390   0.00000  Uiso   1.00
C438   C     0.49991   0.83335   0.33608   0.00000  Uiso   1.00
C439   C     0.52706   0.69071   0.27674   0.00000  Uiso   1.00
C440   C     0.47299   0.97595   0.22321   0.00000  Uiso   1.00
C441   C     0.47292   0.69054   0.22329   0.00000  Uiso   1.00
C442   C     0.52701   0.97611   0.27679   0.00000  Uiso   1.00
C443   C     0.35478   0.81619   0.28771   0.00000  Uiso   1.00
C444   C     0.64525   0.85052   0.21237   0.00000  Uiso   1.00
C445   C     0.64474   0.81637   0.28723   0.00000  Uiso   1.00
C446   C     0.35529   0.85027   0.21281   0.00000  Uiso   1.00
C447   C     0.51861   0.86836   0.04656   0.00000  Uiso   1.00
C448   C     0.51945   0.79936   0.45367   0.00000  Uiso   1.00
C449   C     0.47638   0.86734   0.45271   0.00000  Uiso   1.00
C450   C     0.47694   0.79920   0.04687   0.00000  Uiso   1.00
C451   C     0.51938   0.86830   0.09265   0.00000  Uiso   1.00
C452   C     0.52022   0.79926   0.40759   0.00000  Uiso   1.00
C453   C     0.47717   0.86742   0.40661   0.00000  Uiso   1.00
C454   C     0.47773   0.79895   0.09296   0.00000  Uiso   1.00
C455   C     0.49909   0.83344   0.11591   0.00000  Uiso   1.00
C456   C     0.49917   0.83338   0.38403   0.00000  Uiso   1.00
C457   C     0.49748   0.83380   0.02390   0.00000  Uiso   1.00
C458   C     0.49757   0.83338   0.47600   0.00000  Uiso   1.00
C459   C     0.62396   0.83351   0.24969   0.00000  Uiso   1.00
C460   C     0.37606   0.83315   0.25036   0.00000  Uiso   1.00
N461   N     0.50000   0.95240   0.25000   0.00000  Uiso   1.00
N462   N     0.50000   0.71427   0.25000   0.00000  Uiso   1.00
O463   O     0.43892   0.87154   0.25000   0.00000  Uiso   1.00
O464   O     0.56108   0.79513   0.25000   0.00000  Uiso   1.00
O465   O     0.56108   0.87154   0.25001   0.00000  Uiso   1.00
O466   O     0.43892   0.79513   0.25000   0.00000  Uiso   1.00
O467   O     0.50000   0.87155   0.18453   0.00000  Uiso   1.00
O468   O     0.50000   0.79511   0.31547   0.00000  Uiso   1.00
O469   O     0.50000   0.87155   0.31547   0.00000  Uiso   1.00
O470   O     0.50000   0.79511   0.18453   0.00000  Uiso   1.00
Zn471  Zn    0.50000   0.88437   0.25000   0.00000  Uiso   1.00
Zn472  Zn    0.50000   0.78229   0.25000   0.00000  Uiso   1.00
F473   F     0.55425   0.71341   0.30348   0.00000  Uiso   1.00
F474   F     0.44598   0.95322   0.19626   0.00000  Uiso   1.00
F475   F     0.44565   0.71309   0.19664   0.00000  Uiso   1.00
F476   F     0.55404   0.95353   0.30372   0.00000  Uiso   1.00
F477   F     0.53905   0.90147   0.02392   0.00000  Uiso   1.00
F478   F     0.54056   0.76692   0.47662   0.00000  Uiso   1.00
F479   F     0.45471   0.89991   0.47472   0.00000  Uiso   1.00
F480   F     0.45592   0.76613   0.02453   0.00000  Uiso   1.00
F481   F     0.54074   0.90151   0.11442   0.00000  Uiso   1.00
F482   F     0.54237   0.76671   0.38613   0.00000  Uiso   1.00
F483   F     0.45572   0.89994   0.38413   0.00000  Uiso   1.00
F484   F     0.45686   0.76580   0.11505   0.00000  Uiso   1.00
N485   N     0.37661   0.79988   0.32650   0.00000  Uiso   1.00
H486   H     0.39658   0.82539   0.33822   0.00000  Uiso   1.00
H487   H     0.39471   0.77195   0.31744   0.00000  Uiso   1.00
N488   N     0.62344   0.86700   0.17364   0.00000  Uiso   1.00
H489   H     0.60337   0.84159   0.16188   0.00000  Uiso   1.00
H490   H     0.60546   0.89498   0.18280   0.00000  Uiso   1.00
N491   N     0.62144   0.80003   0.32486   0.00000  Uiso   1.00
H492   H     0.62982   0.76635   0.33055   0.00000  Uiso   1.00
H493   H     0.63005   0.81901   0.35290   0.00000  Uiso   1.00
N494   N     0.37859   0.86653   0.17515   0.00000  Uiso   1.00
H495   H     0.37023   0.90021   0.16942   0.00000  Uiso   1.00
H496   H     0.36996   0.84751   0.14714   0.00000  Uiso   1.00
C497   C     0.75350   0.83327   0.25042   0.00000  Uiso   1.00
C498   C     0.91318   0.83339   0.24961   0.00000  Uiso   1.00
C499   C     0.83317   0.83334   0.16390   0.00000  Uiso   1.00
C500   C     0.83325   0.83335   0.33608   0.00000  Uiso   1.00
C501   C     0.86039   0.69071   0.27674   0.00000  Uiso   1.00
C502   C     0.80632   0.97595   0.22321   0.00000  Uiso   1.00
C503   C     0.80625   0.69054   0.22329   0.00000  Uiso   1.00
C504   C     0.86034   0.97611   0.27679   0.00000  Uiso   1.00
C505   C     0.68811   0.81619   0.28771   0.00000  Uiso   1.00
C506   C     0.97859   0.85052   0.21237   0.00000  Uiso   1.00
C507   C     0.97807   0.81637   0.28723   0.00000  Uiso   1.00
C508   C     0.68862   0.85027   0.21281   0.00000  Uiso   1.00
C509   C     0.85195   0.86836   0.04656   0.00000  Uiso   1.00
C510   C     0.85278   0.79936   0.45367   0.00000  Uiso   1.00
C511   C     0.80971   0.86734   0.45271   0.00000  Uiso   1.00
C512   C     0.81027   0.79920   0.04687   0.00000  Uiso   1.00
C513   C     0.85272   0.86830   0.09265   0.00000  Uiso   1.00
C514   C     0.85355   0.79926   0.40759   0.00000  Uiso   1.00
C515   C     0.81050   0.86742   0.40661   0.00000  Uiso   1.00
C516   C     0.81107   0.79895   0.09296   0.00000  Uiso   1.00
C517   C     0.83243   0.83344   0.11591   0.00000  Uiso   1.00
C518   C     0.83250   0.83338   0.38403   0.00000  Uiso   1.00
C519   C     0.83081   0.83380   0.02390   0.00000  Uiso   1.00
C520   C     0.83090   0.83338   0.47600   0.00000  Uiso   1.00
C521   C     0.95729   0.83351   0.24969   0.00000  Uiso   1.00
C522   C     0.70940   0.83315   0.25036   0.00000  Uiso   1.00
N523   N     0.83333   0.95240   0.25000   0.00000  Uiso   1.00
N524   N     0.83333   0.71427   0.25000   0.00000  Uiso   1.00
O525   O     0.77226   0.87154   0.25000   0.00000  Uiso   1.00
O526   O     0.89441   0.79513   0.25000   0.00000  Uiso   1.00
O527   O     0.89441   0.87154   0.25001   0.00000  Uiso   1.00
O528   O     0.77226   0.79513   0.25000   0.00000  Uiso   1.00
O529   O     0.83333   0.87155   0.18453   0.00000  Uiso   1.00
O530   O     0.83334   0.79511   0.31547   0.00000  Uiso   1.00
O531   O     0.83334   0.87155   0.31547   0.00000  Uiso   1.00
O532   O     0.83333   0.79511   0.18453   0.00000  Uiso   1.00
Zn533  Zn    0.83333   0.88437   0.25000   0.00000  Uiso   1.00
Zn534  Zn    0.83333   0.78229   0.25000   0.00000  Uiso   1.00
F535   F     0.88758   0.71341   0.30348   0.00000  Uiso   1.00
F536   F     0.77931   0.95322   0.19626   0.00000  Uiso   1.00
F537   F     0.77899   0.71309   0.19664   0.00000  Uiso   1.00
F538   F     0.88738   0.95353   0.30372   0.00000  Uiso   1.00
F539   F     0.87238   0.90147   0.02392   0.00000  Uiso   1.00
F540   F     0.87389   0.76692   0.47662   0.00000  Uiso   1.00
F541   F     0.78805   0.89991   0.47472   0.00000  Uiso   1.00
F542   F     0.78925   0.76613   0.02453   0.00000  Uiso   1.00
F543   F     0.87408   0.90151   0.11442   0.00000  Uiso   1.00
F544   F     0.87570   0.76671   0.38613   0.00000  Uiso   1.00
F545   F     0.78906   0.89994   0.38413   0.00000  Uiso   1.00
F546   F     0.79019   0.76580   0.11505   0.00000  Uiso   1.00
N547   N     0.70994   0.79988   0.32650   0.00000  Uiso   1.00
H548   H     0.72991   0.82539   0.33822   0.00000  Uiso   1.00
H549   H     0.72804   0.77195   0.31744   0.00000  Uiso   1.00
N550   N     0.95677   0.86700   0.17364   0.00000  Uiso   1.00
H551   H     0.93671   0.84159   0.16188   0.00000  Uiso   1.00
H552   H     0.93879   0.89498   0.18280   0.00000  Uiso   1.00
N553   N     0.95477   0.80003   0.32486   0.00000  Uiso   1.00
H554   H     0.96315   0.76635   0.33055   0.00000  Uiso   1.00
H555   H     0.96338   0.81901   0.35290   0.00000  Uiso   1.00
N556   N     0.71192   0.86653   0.17515   0.00000  Uiso   1.00
H557   H     0.70356   0.90021   0.16942   0.00000  Uiso   1.00
H558   H     0.70329   0.84751   0.14714   0.00000  Uiso   1.00
C559   C     0.08683   0.16661   0.75042   0.00000  Uiso   1.00
C560   C     0.24651   0.16673   0.74961   0.00000  Uiso   1.00
C561   C     0.16651   0.16667   0.66390   0.00000  Uiso   1.00
C562   C     0.16658   0.16668   0.83608   0.00000  Uiso   1.00
C563   C     0.19372   0.02404   0.77674   0.00000  Uiso   1.00
C564   C     0.13966   0.30928   0.72321   0.00000  Uiso   1.00
C565   C     0.13959   0.02388   0.72329   0.00000  Uiso   1.00
C566   C     0.19368   0.30944   0.77679   0.00000  Uiso   1.00
C567   C     0.02144   0.14952   0.78771   0.00000  Uiso   1.00
C568   C     0.31192   0.18386   0.71237   0.00000  Uiso   1.00
C569   C     0.31141   0.14971   0.78723   0.00000  Uiso   1.00
C570   C     0.02195   0.18360   0.71281   0.00000  Uiso   1.00
C571   C     0.18528   0.20170   0.54656   0.00000  Uiso   1.00
C572   C     0.18611   0.13269   0.95367   0.00000  Uiso   1.00
C573   C     0.14304   0.20067   0.95271   0.00000  Uiso   1.00
C574   C     0.14360   0.13254   0.54687   0.00000  Uiso   1.00
C575   C     0.18605   0.20164   0.59265   0.00000  Uiso   1.00
C576   C     0.18689   0.13259   0.90759   0.00000  Uiso   1.00
C577   C     0.14383   0.20075   0.90661   0.00000  Uiso   1.00
C578   C     0.14440   0.13228   0.59296   0.00000  Uiso   1.00
C579   C     0.16576   0.16678   0.61591   0.00000  Uiso   1.00
C580   C     0.16583   0.16672   0.88403   0.00000  Uiso   1.00
C581   C     0.16414   0.16713   0.52390   0.00000  Uiso   1.00
C582   C     0.16424   0.16672   0.97600   0.00000  Uiso   1.00
C583   C     0.29062   0.16685   0.74969   0.00000  Uiso   1.00
C584   C     0.04273   0.16649   0.75036   0.00000  Uiso   1.00
N585   N     0.16667   0.28573   0.75000   0.00000  Uiso   1.00
N586   N     0.16667   0.04760   0.75000   0.00000  Uiso   1.00
O587   O     0.10559   0.20487   0.75000   0.00000  Uiso   1.00
O588   O     0.22774   0.12846   0.75000   0.00000  Uiso   1.00
O589   O     0.22774   0.20487   0.75001   0.00000  Uiso   1.00
O590   O     0.10559   0.12846   0.75000   0.00000  Uiso   1.00
O591   O     0.16666   0.20489   0.68453   0.00000  Uiso   1.00
O592   O     0.16667   0.12845   0.81547   0.00000  Uiso   1.00
O593   O     0.16667   0.20489   0.81547   0.00000  Uiso   1.00
O594   O     0.16666   0.12845   0.68453   0.00000  Uiso   1.00
Zn595  Zn    0.16667   0.21771   0.75000   0.00000  Uiso   1.00
Zn596  Zn    0.16667   0.11563   0.75000   0.00000  Uiso   1.00
F597   F     0.22091   0.04674   0.80348   0.00000  Uiso   1.00
F598   F     0.11264   0.28655   0.69626   0.00000  Uiso   1.00
F599   F     0.11232   0.04642   0.69664   0.00000  Uiso   1.00
F600   F     0.22071   0.28687   0.80372   0.00000  Uiso   1.00
F601   F     0.20572   0.23481   0.52392   0.00000  Uiso   1.00
F602   F     0.20722   0.10026   0.97662   0.00000  Uiso   1.00
F603   F     0.12138   0.23325   0.97472   0.00000  Uiso   1.00
F604   F     0.12259   0.09946   0.52453   0.00000  Uiso   1.00
F605   F     0.20741   0.23484   0.61442   0.00000  Uiso   1.00
F606   F     0.20903   0.10005   0.88613   0.00000  Uiso   1.00
F607   F     0.12239   0.23328   0.88413   0.00000  Uiso   1.00
F608   F     0.12353   0.09914   0.61505   0.00000  Uiso   1.00
N609   N     0.04327   0.13321   0.82650   0.00000  Uiso   1.00
H610   H     0.06324   0.15872   0.83822   0.00000  Uiso   1.00
H611   H     0.06137   0.10528   0.81744   0.00000  Uiso   1.00
N612   N     0.29011   0.20033   0.67364   0.00000  Uiso   1.00
H613   H     0.27004   0.17492   0.66188   0.00000  Uiso   1.00
H614   H     0.27213   0.22831   0.68280   0.00000  Uiso   1.00
N615   N     0.28811   0.13337   0.82486   0.00000  Uiso   1.00
H616   H     0.29649   0.09969   0.83055   0.00000  Uiso   1.00
H617   H     0.29671   0.15235   0.85290   0.00000  Uiso   1.00
N618   N     0.04526   0.19986   0.67515   0.00000  Uiso   1.00
H619   H     0.03690   0.23354   0.66942   0.00000  Uiso   1.00
H620   H     0.03662   0.18084   0.64714   0.00000  Uiso   1.00
C621   C     0.42016   0.16661   0.75042   0.00000  Uiso   1.00
C622   C     0.57984   0.16673   0.74961   0.00000  Uiso   1.00
C623   C     0.49984   0.16667   0.66390   0.00000  Uiso   1.00
C624   C     0.49991   0.16668   0.83608   0.00000  Uiso   1.00
C625   C     0.52706   0.02404   0.77674   0.00000  Uiso   1.00
C626   C     0.47299   0.30928   0.72321   0.00000  Uiso   1.00
C627   C     0.47292   0.02388   0.72329   0.00000  Uiso   1.00
C628   C     0.52701   0.30944   0.77679   0.00000  Uiso   1.00
C629   C     0.35478   0.14952   0.78771   0.00000  Uiso   1.00
C630   C     0.64525   0.18386   0.71237   0.00000  Uiso   1.00
C631   C     0.64474   0.14971   0.78723   0.00000  Uiso   1.00
C632   C     0.35529   0.18360   0.71281   0.00000  Uiso   1.00
C633   C     0.51861   0.20170   0.54656   0.00000  Uiso   1.00
C634   C     0.51945   0.13269   0.95367   0.00000  Uiso   1.00
C635   C     0.47638   0.20067   0.95271   0.00000  Uiso   1.00
C636   C     0.47694   0.13254   0.54687   0.00000  Uiso   1.00
C637   C     0.51938   0.20164   0.59265   0.00000  Uiso   1.00
C638   C     0.52022   0.13259   0.90759   0.00000  Uiso   1.00
C639   C     0.47717   0.20075   0.90661   0.00000  Uiso   1.00
C640   C     0.47773   0.13228   0.59296   0.00000  Uiso   1.00
C641   C     0.49909   0.16678   0.61591   0.00000  Uiso   1.00
C642   C     0.49917   0.16672   0.88403   0.00000  Uiso   1.00
C643   C     0.49748   0.16713   0.52390   0.00000  Uiso   1.00
C644   C     0.49757   0.16672   0.97600   0.00000  Uiso   1.00
C645   C     0.62396   0.16685   0.74969   0.00000  Uiso   1.00
C646   C     0.37606   0.16649   0.75036   0.00000  Uiso   1.00
N647   N     0.50000   0.28573   0.75000   0.00000  Uiso   1.00
N648   N     0.50000   0.04760   0.75000   0.00000  Uiso   1.00
O649   O     0.43892   0.20487   0.75000   0.00000  Uiso   1.00
O650   O     0.56108   0.12846   0.75000   0.00000  Uiso   1.00
O651   O     0.56108   0.20487   0.75001   0.00000  Uiso   1.00
O652   O     0.43892   0.12846   0.75000   0.00000  Uiso   1.00
O653   O     0.50000   0.20489   0.68453   0.00000  Uiso   1.00
O654   O     0.50000   0.12845   0.81547   0.00000  Uiso   1.00
O655   O     0.50000   0.20489   0.81547   0.00000  Uiso   1.00
O656   O     0.50000   0.12845   0.68453   0.00000  Uiso   1.00
Zn657  Zn    0.50000   0.21771   0.75000   0.00000  Uiso   1.00
Zn658  Zn    0.50000   0.11563   0.75000   0.00000  Uiso   1.00
F659   F     0.55425   0.04674   0.80348   0.00000  Uiso   1.00
F660   F     0.44598   0.28655   0.69626   0.00000  Uiso   1.00
F661   F     0.44565   0.04642   0.69664   0.00000  Uiso   1.00
F662   F     0.55404   0.28687   0.80372   0.00000  Uiso   1.00
F663   F     0.53905   0.23481   0.52392   0.00000  Uiso   1.00
F664   F     0.54056   0.10026   0.97662   0.00000  Uiso   1.00
F665   F     0.45471   0.23325   0.97472   0.00000  Uiso   1.00
F666   F     0.45592   0.09946   0.52453   0.00000  Uiso   1.00
F667   F     0.54074   0.23484   0.61442   0.00000  Uiso   1.00
F668   F     0.54237   0.10005   0.88613   0.00000  Uiso   1.00
F669   F     0.45572   0.23328   0.88413   0.00000  Uiso   1.00
F670   F     0.45686   0.09914   0.61505   0.00000  Uiso   1.00
N671   N     0.37661   0.13321   0.82650   0.00000  Uiso   1.00
H672   H     0.39658   0.15872   0.83822   0.00000  Uiso   1.00
H673   H     0.39471   0.10528   0.81744   0.00000  Uiso   1.00
N674   N     0.62344   0.20033   0.67364   0.00000  Uiso   1.00
H675   H     0.60337   0.17492   0.66188   0.00000  Uiso   1.00
H676   H     0.60546   0.22831   0.68280   0.00000  Uiso   1.00
N677   N     0.62144   0.13337   0.82486   0.00000  Uiso   1.00
H678   H     0.62982   0.09969   0.83055   0.00000  Uiso   1.00
H679   H     0.63005   0.15235   0.85290   0.00000  Uiso   1.00
N680   N     0.37859   0.19986   0.67515   0.00000  Uiso   1.00
H681   H     0.37023   0.23354   0.66942   0.00000  Uiso   1.00
H682   H     0.36996   0.18084   0.64714   0.00000  Uiso   1.00
C683   C     0.75350   0.16661   0.75042   0.00000  Uiso   1.00
C684   C     0.91318   0.16673   0.74961   0.00000  Uiso   1.00
C685   C     0.83317   0.16667   0.66390   0.00000  Uiso   1.00
C686   C     0.83325   0.16668   0.83608   0.00000  Uiso   1.00
C687   C     0.86039   0.02404   0.77674   0.00000  Uiso   1.00
C688   C     0.80632   0.30928   0.72321   0.00000  Uiso   1.00
C689   C     0.80625   0.02388   0.72329   0.00000  Uiso   1.00
C690   C     0.86034   0.30944   0.77679   0.00000  Uiso   1.00
C691   C     0.68811   0.14952   0.78771   0.00000  Uiso   1.00
C692   C     0.97859   0.18386   0.71237   0.00000  Uiso   1.00
C693   C     0.97807   0.14971   0.78723   0.00000  Uiso   1.00
C694   C     0.68862   0.18360   0.71281   0.00000  Uiso   1.00
C695   C     0.85195   0.20170   0.54656   0.00000  Uiso   1.00
C696   C     0.85278   0.13269   0.95367   0.00000  Uiso   1.00
C697   C     0.80971   0.20067   0.95271   0.00000  Uiso   1.00
C698   C     0.81027   0.13254   0.54687   0.00000  Uiso   1.00
C699   C     0.85272   0.20164   0.59265   0.00000  Uiso   1.00
C700   C     0.85355   0.13259   0.90759   0.00000  Uiso   1.00
C701   C     0.81050   0.20075   0.90661   0.00000  Uiso   1.00
C702   C     0.81107   0.13228   0.59296   0.00000  Uiso   1.00
C703   C     0.83243   0.16678   0.61591   0.00000  Uiso   1.00
C704   C     0.83250   0.16672   0.88403   0.00000  Uiso   1.00
C705   C     0.83081   0.16713   0.52390   0.00000  Uiso   1.00
C706   C     0.83090   0.16672   0.97600   0.00000  Uiso   1.00
C707   C     0.95729   0.16685   0.74969   0.00000  Uiso   1.00
C708   C     0.70940   0.16649   0.75036   0.00000  Uiso   1.00
N709   N     0.83333   0.28573   0.75000   0.00000  Uiso   1.00
N710   N     0.83333   0.04760   0.75000   0.00000  Uiso   1.00
O711   O     0.77226   0.20487   0.75000   0.00000  Uiso   1.00
O712   O     0.89441   0.12846   0.75000   0.00000  Uiso   1.00
O713   O     0.89441   0.20487   0.75001   0.00000  Uiso   1.00
O714   O     0.77226   0.12846   0.75000   0.00000  Uiso   1.00
O715   O     0.83333   0.20489   0.68453   0.00000  Uiso   1.00
O716   O     0.83334   0.12845   0.81547   0.00000  Uiso   1.00
O717   O     0.83334   0.20489   0.81547   0.00000  Uiso   1.00
O718   O     0.83333   0.12845   0.68453   0.00000  Uiso   1.00
Zn719  Zn    0.83333   0.21771   0.75000   0.00000  Uiso   1.00
Zn720  Zn    0.83333   0.11563   0.75000   0.00000  Uiso   1.00
F721   F     0.88758   0.04674   0.80348   0.00000  Uiso   1.00
F722   F     0.77931   0.28655   0.69626   0.00000  Uiso   1.00
F723   F     0.77899   0.04642   0.69664   0.00000  Uiso   1.00
F724   F     0.88738   0.28687   0.80372   0.00000  Uiso   1.00
F725   F     0.87238   0.23481   0.52392   0.00000  Uiso   1.00
F726   F     0.87389   0.10026   0.97662   0.00000  Uiso   1.00
F727   F     0.78805   0.23325   0.97472   0.00000  Uiso   1.00
F728   F     0.78925   0.09946   0.52453   0.00000  Uiso   1.00
F729   F     0.87408   0.23484   0.61442   0.00000  Uiso   1.00
F730   F     0.87570   0.10005   0.88613   0.00000  Uiso   1.00
F731   F     0.78906   0.23328   0.88413   0.00000  Uiso   1.00
F732   F     0.79019   0.09914   0.61505   0.00000  Uiso   1.00
N733   N     0.70994   0.13321   0.82650   0.00000  Uiso   1.00
H734   H     0.72991   0.15872   0.83822   0.00000  Uiso   1.00
H735   H     0.72804   0.10528   0.81744   0.00000  Uiso   1.00
N736   N     0.95677   0.20033   0.67364   0.00000  Uiso   1.00
H737   H     0.93671   0.17492   0.66188   0.00000  Uiso   1.00
H738   H     0.93879   0.22831   0.68280   0.00000  Uiso   1.00
N739   N     0.95477   0.13337   0.82486   0.00000  Uiso   1.00
H740   H     0.96315   0.09969   0.83055   0.00000  Uiso   1.00
H741   H     0.96338   0.15235   0.85290   0.00000  Uiso   1.00
N742   N     0.71192   0.19986   0.67515   0.00000  Uiso   1.00
H743   H     0.70356   0.23354   0.66942   0.00000  Uiso   1.00
H744   H     0.70329   0.18084   0.64714   0.00000  Uiso   1.00
C745   C     0.08683   0.49994   0.75042   0.00000  Uiso   1.00
C746   C     0.24651   0.50006   0.74961   0.00000  Uiso   1.00
C747   C     0.16651   0.50001   0.66390   0.00000  Uiso   1.00
C748   C     0.16658   0.50002   0.83608   0.00000  Uiso   1.00
C749   C     0.19372   0.35737   0.77674   0.00000  Uiso   1.00
C750   C     0.13966   0.64261   0.72321   0.00000  Uiso   1.00
C751   C     0.13959   0.35721   0.72329   0.00000  Uiso   1.00
C752   C     0.19368   0.64277   0.77679   0.00000  Uiso   1.00
C753   C     0.02144   0.48285   0.78771   0.00000  Uiso   1.00
C754   C     0.31192   0.51719   0.71237   0.00000  Uiso   1.00
C755   C     0.31141   0.48304   0.78723   0.00000  Uiso   1.00
C756   C     0.02195   0.51693   0.71281   0.00000  Uiso   1.00
C757   C     0.18528   0.53503   0.54656   0.00000  Uiso   1.00
C758   C     0.18611   0.46602   0.95367   0.00000  Uiso   1.00
C759   C     0.14304   0.53401   0.95271   0.00000  Uiso   1.00
C760   C     0.14360   0.46587   0.54687   0.00000  Uiso   1.00
C761   C     0.18605   0.53497   0.59265   0.00000  Uiso   1.00
C762   C     0.18689   0.46593   0.90759   0.00000  Uiso   1.00
C763   C     0.14383   0.53409   0.90661   0.00000  Uiso   1.00
C764   C     0.14440   0.46562   0.59296   0.00000  Uiso   1.00
C765   C     0.16576   0.50011   0.61591   0.00000  Uiso   1.00
C766   C     0.16583   0.50005   0.88403   0.00000  Uiso   1.00
C767   C     0.16414   0.50046   0.52390   0.00000  Uiso   1.00
C768   C     0.16424   0.50005   0.97600   0.00000  Uiso   1.00
C769   C     0.29062   0.50018   0.74969   0.00000  Uiso   1.00
C770   C     0.04273   0.49982   0.75036   0.00000  Uiso   1.00
N771   N     0.16667   0.61907   0.75000   0.00000  Uiso   1.00
N772   N     0.16667   0.38093   0.75000   0.00000  Uiso   1.00
O773   O     0.10559   0.53821   0.75000   0.00000  Uiso   1.00
O774   O     0.22774   0.46179   0.75000   0.00000  Uiso   1.00
O775   O     0.22774   0.53821   0.75001   0.00000  Uiso   1.00
O776   O     0.10559   0.46179   0.75000   0.00000  Uiso   1.00
O777   O     0.16666   0.53822   0.68453   0.00000  Uiso   1.00
O778   O     0.16667   0.46178   0.81547   0.00000  Uiso   1.00
O779   O     0.16667   0.53822   0.81547   0.00000  Uiso   1.00
O780   O     0.16666   0.46178   0.68453   0.00000  Uiso   1.00
Zn781  Zn    0.16667   0.55104   0.75000   0.00000  Uiso   1.00
Zn782  Zn    0.16667   0.44896   0.75000   0.00000  Uiso   1.00
F783   F     0.22091   0.38008   0.80348   0.00000  Uiso   1.00
F784   F     0.11264   0.61988   0.69626   0.00000  Uiso   1.00
F785   F     0.11232   0.37975   0.69664   0.00000  Uiso   1.00
F786   F     0.22071   0.62020   0.80372   0.00000  Uiso   1.00
F787   F     0.20572   0.56814   0.52392   0.00000  Uiso   1.00
F788   F     0.20722   0.43359   0.97662   0.00000  Uiso   1.00
F789   F     0.12138   0.56658   0.97472   0.00000  Uiso   1.00
F790   F     0.12259   0.43280   0.52453   0.00000  Uiso   1.00
F791   F     0.20741   0.56817   0.61442   0.00000  Uiso   1.00
F792   F     0.20903   0.43338   0.88613   0.00000  Uiso   1.00
F793   F     0.12239   0.56661   0.88413   0.00000  Uiso   1.00
F794   F     0.12353   0.43247   0.61505   0.00000  Uiso   1.00
N795   N     0.04327   0.46654   0.82650   0.00000  Uiso   1.00
H796   H     0.06324   0.49206   0.83822   0.00000  Uiso   1.00
H797   H     0.06137   0.43861   0.81744   0.00000  Uiso   1.00
N798   N     0.29011   0.53366   0.67364   0.00000  Uiso   1.00
H799   H     0.27004   0.50825   0.66188   0.00000  Uiso   1.00
H800   H     0.27213   0.56165   0.68280   0.00000  Uiso   1.00
N801   N     0.28811   0.46670   0.82486   0.00000  Uiso   1.00
H802   H     0.29649   0.43302   0.83055   0.00000  Uiso   1.00
H803   H     0.29671   0.48568   0.85290   0.00000  Uiso   1.00
N804   N     0.04526   0.53320   0.67515   0.00000  Uiso   1.00
H805   H     0.03690   0.56687   0.66942   0.00000  Uiso   1.00
H806   H     0.03662   0.51418   0.64714   0.00000  Uiso   1.00
C807   C     0.42016   0.49994   0.75042   0.00000  Uiso   1.00
C808   C     0.57984   0.50006   0.74961   0.00000  Uiso   1.00
C809   C     0.49984   0.50001   0.66390   0.00000  Uiso   1.00
C810   C     0.49991   0.50002   0.83608   0.00000  Uiso   1.00
C811   C     0.52706   0.35737   0.77674   0.00000  Uiso   1.00
C812   C     0.47299   0.64261   0.72321   0.00000  Uiso   1.00
C813   C     0.47292   0.35721   0.72329   0.00000  Uiso   1.00
C814   C     0.52701   0.64277   0.77679   0.00000  Uiso   1.00
C815   C     0.35478   0.48285   0.78771   0.00000  Uiso   1.00
C816   C     0.64525   0.51719   0.71237   0.00000  Uiso   1.00
C817   C     0.64474   0.48304   0.78723   0.00000  Uiso   1.00
C818   C     0.35529   0.51693   0.71281   0.00000  Uiso   1.00
C819   C     0.51861   0.53503   0.54656   0.00000  Uiso   1.00
C820   C     0.51945   0.46602   0.95367   0.00000  Uiso   1.00
C821   C     0.47638   0.53401   0.95271   0.00000  Uiso   1.00
C822   C     0.47694   0.46587   0.54687   0.00000  Uiso   1.00
C823   C     0.51938   0.53497   0.59265   0.00000  Uiso   1.00
C824   C     0.52022   0.46593   0.90759   0.00000  Uiso   1.00
C825   C     0.47717   0.53409   0.90661   0.00000  Uiso   1.00
C826   C     0.47773   0.46562   0.59296   0.00000  Uiso   1.00
C827   C     0.49909   0.50011   0.61591   0.00000  Uiso   1.00
C828   C     0.49917   0.50005   0.88403   0.00000  Uiso   1.00
C829   C     0.49748   0.50046   0.52390   0.00000  Uiso   1.00
C830   C     0.49757   0.50005   0.97600   0.00000  Uiso   1.00
C831   C     0.62396   0.50018   0.74969   0.00000  Uiso   1.00
C832   C     0.37606   0.49982   0.75036   0.00000  Uiso   1.00
N833   N     0.50000   0.61907   0.75000   0.00000  Uiso   1.00
N834   N     0.50000   0.38093   0.75000   0.00000  Uiso   1.00
O835   O     0.43892   0.53821   0.75000   0.00000  Uiso   1.00
O836   O     0.56108   0.46179   0.75000   0.00000  Uiso   1.00
O837   O     0.56108   0.53821   0.75001   0.00000  Uiso   1.00
O838   O     0.43892   0.46179   0.75000   0.00000  Uiso   1.00
O839   O     0.50000   0.53822   0.68453   0.00000  Uiso   1.00
O840   O     0.50000   0.46178   0.81547   0.00000  Uiso   1.00
O841   O     0.50000   0.53822   0.81547   0.00000  Uiso   1.00
O842   O     0.50000   0.46178   0.68453   0.00000  Uiso   1.00
Zn843  Zn    0.50000   0.55104   0.75000   0.00000  Uiso   1.00
Zn844  Zn    0.50000   0.44896   0.75000   0.00000  Uiso   1.00
F845   F     0.55425   0.38008   0.80348   0.00000  Uiso   1.00
F846   F     0.44598   0.61988   0.69626   0.00000  Uiso   1.00
F847   F     0.44565   0.37975   0.69664   0.00000  Uiso   1.00
F848   F     0.55404   0.62020   0.80372   0.00000  Uiso   1.00
F849   F     0.53905   0.56814   0.52392   0.00000  Uiso   1.00
F850   F     0.54056   0.43359   0.97662   0.00000  Uiso   1.00
F851   F     0.45471   0.56658   0.97472   0.00000  Uiso   1.00
F852   F     0.45592   0.43280   0.52453   0.00000  Uiso   1.00
F853   F     0.54074   0.56817   0.61442   0.00000  Uiso   1.00
F854   F     0.54237   0.43338   0.88613   0.00000  Uiso   1.00
F855   F     0.45572   0.56661   0.88413   0.00000  Uiso   1.00
F856   F     0.45686   0.43247   0.61505   0.00000  Uiso   1.00
N857   N     0.37661   0.46654   0.82650   0.00000  Uiso   1.00
H858   H     0.39658   0.49206   0.83822   0.00000  Uiso   1.00
H859   H     0.39471   0.43861   0.81744   0.00000  Uiso   1.00
N860   N     0.62344   0.53366   0.67364   0.00000  Uiso   1.00
H861   H     0.60337   0.50825   0.66188   0.00000  Uiso   1.00
H862   H     0.60546   0.56165   0.68280   0.00000  Uiso   1.00
N863   N     0.62144   0.46670   0.82486   0.00000  Uiso   1.00
H864   H     0.62982   0.43302   0.83055   0.00000  Uiso   1.00
H865   H     0.63005   0.48568   0.85290   0.00000  Uiso   1.00
N866   N     0.37859   0.53320   0.67515   0.00000  Uiso   1.00
H867   H     0.37023   0.56687   0.66942   0.00000  Uiso   1.00
H868   H     0.36996   0.51418   0.64714   0.00000  Uiso   1.00
C869   C     0.75350   0.49994   0.75042   0.00000  Uiso   1.00
C870   C     0.91318   0.50006   0.74961   0.00000  Uiso   1.00
C871   C     0.83317   0.50001   0.66390   0.00000  Uiso   1.00
C872   C     0.83325   0.50002   0.83608   0.00000  Uiso   1.00
C873   C     0.86039   0.35737   0.77674   0.00000  Uiso   1.00
C874   C     0.80632   0.64261   0.72321   0.00000  Uiso   1.00
C875   C     0.80625   0.35721   0.72329   0.00000  Uiso   1.00
C876   C     0.86034   0.64277   0.77679   0.00000  Uiso   1.00
C877   C     0.68811   0.48285   0.78771   0.00000  Uiso   1.00
C878   C     0.97859   0.51719   0.71237   0.00000  Uiso   1.00
C879   C     0.97807   0.48304   0.78723   0.00000  Uiso   1.00
C880   C     0.68862   0.51693   0.71281   0.00000  Uiso   1.00
C881   C     0.85195   0.53503   0.54656   0.00000  Uiso   1.00
C882   C     0.85278   0.46602   0.95367   0.00000  Uiso   1.00
C883   C     0.80971   0.53401   0.95271   0.00000  Uiso   1.00
C884   C     0.81027   0.46587   0.54687   0.00000  Uiso   1.00
C885   C     0.85272   0.53497   0.59265   0.00000  Uiso   1.00
C886   C     0.85355   0.46593   0.90759   0.00000  Uiso   1.00
C887   C     0.81050   0.53409   0.90661   0.00000  Uiso   1.00
C888   C     0.81107   0.46562   0.59296   0.00000  Uiso   1.00
C889   C     0.83243   0.50011   0.61591   0.00000  Uiso   1.00
C890   C     0.83250   0.50005   0.88403   0.00000  Uiso   1.00
C891   C     0.83081   0.50046   0.52390   0.00000  Uiso   1.00
C892   C     0.83090   0.50005   0.97600   0.00000  Uiso   1.00
C893   C     0.95729   0.50018   0.74969   0.00000  Uiso   1.00
C894   C     0.70940   0.49982   0.75036   0.00000  Uiso   1.00
N895   N     0.83333   0.61907   0.75000   0.00000  Uiso   1.00
N896   N     0.83333   0.38093   0.75000   0.00000  Uiso   1.00
O897   O     0.77226   0.53821   0.75000   0.00000  Uiso   1.00
O898   O     0.89441   0.46179   0.75000   0.00000  Uiso   1.00
O899   O     0.89441   0.53821   0.75001   0.00000  Uiso   1.00
O900   O     0.77226   0.46179   0.75000   0.00000  Uiso   1.00
O901   O     0.83333   0.53822   0.68453   0.00000  Uiso   1.00
O902   O     0.83334   0.46178   0.81547   0.00000  Uiso   1.00
O903   O     0.83334   0.53822   0.81547   0.00000  Uiso   1.00
O904   O     0.83333   0.46178   0.68453   0.00000  Uiso   1.00
Zn905  Zn    0.83333   0.55104   0.75000   0.00000  Uiso   1.00
Zn906  Zn    0.83333   0.44896   0.75000   0.00000  Uiso   1.00
F907   F     0.88758   0.38008   0.80348   0.00000  Uiso   1.00
F908   F     0.77931   0.61988   0.69626   0.00000  Uiso   1.00
F909   F     0.77899   0.37975   0.69664   0.00000  Uiso   1.00
F910   F     0.88738   0.62020   0.80372   0.00000  Uiso   1.00
F911   F     0.87238   0.56814   0.52392   0.00000  Uiso   1.00
F912   F     0.87389   0.43359   0.97662   0.00000  Uiso   1.00
F913   F     0.78805   0.56658   0.97472   0.00000  Uiso   1.00
F914   F     0.78925   0.43280   0.52453   0.00000  Uiso   1.00
F915   F     0.87408   0.56817   0.61442   0.00000  Uiso   1.00
F916   F     0.87570   0.43338   0.88613   0.00000  Uiso   1.00
F917   F     0.78906   0.56661   0.88413   0.00000  Uiso   1.00
F918   F     0.79019   0.43247   0.61505   0.00000  Uiso   1.00
N919   N     0.70994   0.46654   0.82650   0.00000  Uiso   1.00
H920   H     0.72991   0.49206   0.83822   0.00000  Uiso   1.00
H921   H     0.72804   0.43861   0.81744   0.00000  Uiso   1.00
N922   N     0.95677   0.53366   0.67364   0.00000  Uiso   1.00
H923   H     0.93671   0.50825   0.66188   0.00000  Uiso   1.00
H924   H     0.93879   0.56165   0.68280   0.00000  Uiso   1.00
N925   N     0.95477   0.46670   0.82486   0.00000  Uiso   1.00
H926   H     0.96315   0.43302   0.83055   0.00000  Uiso   1.00
H927   H     0.96338   0.48568   0.85290   0.00000  Uiso   1.00
N928   N     0.71192   0.53320   0.67515   0.00000  Uiso   1.00
H929   H     0.70356   0.56687   0.66942   0.00000  Uiso   1.00
H930   H     0.70329   0.51418   0.64714   0.00000  Uiso   1.00
C931   C     0.08683   0.83327   0.75042   0.00000  Uiso   1.00
C932   C     0.24651   0.83339   0.74961   0.00000  Uiso   1.00
C933   C     0.16651   0.83334   0.66390   0.00000  Uiso   1.00
C934   C     0.16658   0.83335   0.83608   0.00000  Uiso   1.00
C935   C     0.19372   0.69071   0.77674   0.00000  Uiso   1.00
C936   C     0.13966   0.97595   0.72321   0.00000  Uiso   1.00
C937   C     0.13959   0.69054   0.72329   0.00000  Uiso   1.00
C938   C     0.19368   0.97611   0.77679   0.00000  Uiso   1.00
C939   C     0.02144   0.81619   0.78771   0.00000  Uiso   1.00
C940   C     0.31192   0.85052   0.71237   0.00000  Uiso   1.00
C941   C     0.31141   0.81637   0.78723   0.00000  Uiso   1.00
C942   C     0.02195   0.85027   0.71281   0.00000  Uiso   1.00
C943   C     0.18528   0.86836   0.54656   0.00000  Uiso   1.00
C944   C     0.18611   0.79936   0.95367   0.00000  Uiso   1.00
C945   C     0.14304   0.86734   0.95271   0.00000  Uiso   1.00
C946   C     0.14360   0.79920   0.54687   0.00000  Uiso   1.00
C947   C     0.18605   0.86830   0.59265   0.00000  Uiso   1.00
C948   C     0.18689   0.79926   0.90759   0.00000  Uiso   1.00
C949   C     0.14383   0.86742   0.90661   0.00000  Uiso   1.00
C950   C     0.14440   0.79895   0.59296   0.00000  Uiso   1.00
C951   C     0.16576   0.83344   0.61591   0.00000  Uiso   1.00
C952   C     0.16583   0.83338   0.88403   0.00000  Uiso   1.00
C953   C     0.16414   0.83380   0.52390   0.00000  Uiso   1.00
C954   C     0.16424   0.83338   0.97600   0.00000  Uiso   1.00
C955   C     0.29062   0.83351   0.74969   0.00000  Uiso   1.00
C956   C     0.04273   0.83315   0.75036   0.00000  Uiso   1.00
N957   N     0.16667   0.95240   0.75000   0.00000  Uiso   1.00
N958   N     0.16667   0.71427   0.75000   0.00000  Uiso   1.00
O959   O     0.10559   0.87154   0.75000   0.00000  Uiso   1.00
O960   O     0.22774   0.79513   0.75000   0.00000  Uiso   1.00
O961   O     0.22774   0.87154   0.75001   0.00000  Uiso   1.00
O962   O     0.10559   0.79513   0.75000   0.00000  Uiso   1.00
O963   O     0.16666   0.87155   0.68453   0.00000  Uiso   1.00
O964   O     0.16667   0.79511   0.81547   0.00000  Uiso   1.00
O965   O     0.16667   0.87155   0.81547   0.00000  Uiso   1.00
O966   O     0.16666   0.79511   0.68453   0.00000  Uiso   1.00
Zn967  Zn    0.16667   0.88437   0.75000   0.00000  Uiso   1.00
Zn968  Zn    0.16667   0.78229   0.75000   0.00000  Uiso   1.00
F969   F     0.22091   0.71341   0.80348   0.00000  Uiso   1.00
F970   F     0.11264   0.95322   0.69626   0.00000  Uiso   1.00
F971   F     0.11232   0.71309   0.69664   0.00000  Uiso   1.00
F972   F     0.22071   0.95353   0.80372   0.00000  Uiso   1.00
F973   F     0.20572   0.90147   0.52392   0.00000  Uiso   1.00
F974   F     0.20722   0.76692   0.97662   0.00000  Uiso   1.00
F975   F     0.12138   0.89991   0.97472   0.00000  Uiso   1.00
F976   F     0.12259   0.76613   0.52453   0.00000  Uiso   1.00
F977   F     0.20741   0.90151   0.61442   0.00000  Uiso   1.00
F978   F     0.20903   0.76671   0.88613   0.00000  Uiso   1.00
F979   F     0.12239   0.89994   0.88413   0.00000  Uiso   1.00
F980   F     0.12353   0.76580   0.61505   0.00000  Uiso   1.00
N981   N     0.04327   0.79988   0.82650   0.00000  Uiso   1.00
H982   H     0.06324   0.82539   0.83822   0.00000  Uiso   1.00
H983   H     0.06137   0.77195   0.81744   0.00000  Uiso   1.00
N984   N     0.29011   0.86700   0.67364   0.00000  Uiso   1.00
H985   H     0.27004   0.84159   0.66188   0.00000  Uiso   1.00
H986   H     0.27213   0.89498   0.68280   0.00000  Uiso   1.00
N987   N     0.28811   0.80003   0.82486   0.00000  Uiso   1.00
H988   H     0.29649   0.76635   0.83055   0.00000  Uiso   1.00
H989   H     0.29671   0.81901   0.85290   0.00000  Uiso   1.00
N990   N     0.04526   0.86653   0.67515   0.00000  Uiso   1.00
H991   H     0.03690   0.90021   0.66942   0.00000  Uiso   1.00
H992   H     0.03662   0.84751   0.64714   0.00000  Uiso   1.00
C993   C     0.42016   0.83327   0.75042   0.00000  Uiso   1.00
C994   C     0.57984   0.83339   0.74961   0.00000  Uiso   1.00
C995   C     0.49984   0.83334   0.66390   0.00000  Uiso   1.00
C996   C     0.49991   0.83335   0.83608   0.00000  Uiso   1.00
C997   C     0.52706   0.69071   0.77674   0.00000  Uiso   1.00
C998   C     0.47299   0.97595   0.72321   0.00000  Uiso   1.00
C999   C     0.47292   0.69054   0.72329   0.00000  Uiso   1.00
C1000  C     0.52701   0.97611   0.77679   0.00000  Uiso   1.00
C1001  C     0.35478   0.81619   0.78771   0.00000  Uiso   1.00
C1002  C     0.64525   0.85052   0.71237   0.00000  Uiso   1.00
C1003  C     0.64474   0.81637   0.78723   0.00000  Uiso   1.00
C1004  C     0.35529   0.85027   0.71281   0.00000  Uiso   1.00
C1005  C     0.51861   0.86836   0.54656   0.00000  Uiso   1.00
C1006  C     0.51945   0.79936   0.95367   0.00000  Uiso   1.00
C1007  C     0.47638   0.86734   0.95271   0.00000  Uiso   1.00
C1008  C     0.47694   0.79920   0.54687   0.00000  Uiso   1.00
C1009  C     0.51938   0.86830   0.59265   0.00000  Uiso   1.00
C1010  C     0.52022   0.79926   0.90759   0.00000  Uiso   1.00
C1011  C     0.47717   0.86742   0.90661   0.00000  Uiso   1.00
C1012  C     0.47773   0.79895   0.59296   0.00000  Uiso   1.00
C1013  C     0.49909   0.83344   0.61591   0.00000  Uiso   1.00
C1014  C     0.49917   0.83338   0.88403   0.00000  Uiso   1.00
C1015  C     0.49748   0.83380   0.52390   0.00000  Uiso   1.00
C1016  C     0.49757   0.83338   0.97600   0.00000  Uiso   1.00
C1017  C     0.62396   0.83351   0.74969   0.00000  Uiso   1.00
C1018  C     0.37606   0.83315   0.75036   0.00000  Uiso   1.00
N1019  N     0.50000   0.95240   0.75000   0.00000  Uiso   1.00
N1020  N     0.50000   0.71427   0.75000   0.00000  Uiso   1.00
O1021  O     0.43892   0.87154   0.75000   0.00000  Uiso   1.00
O1022  O     0.56108   0.79513   0.75000   0.00000  Uiso   1.00
O1023  O     0.56108   0.87154   0.75001   0.00000  Uiso   1.00
O1024  O     0.43892   0.79513   0.75000   0.00000  Uiso   1.00
O1025  O     0.50000   0.87155   0.68453   0.00000  Uiso   1.00
O1026  O     0.50000   0.79511   0.81547   0.00000  Uiso   1.00
O1027  O     0.50000   0.87155   0.81547   0.00000  Uiso   1.00
O1028  O     0.50000   0.79511   0.68453   0.00000  Uiso   1.00
Zn1029 Zn    0.50000   0.88437   0.75000   0.00000  Uiso   1.00
Zn1030 Zn    0.50000   0.78229   0.75000   0.00000  Uiso   1.00
F1031  F     0.55425   0.71341   0.80348   0.00000  Uiso   1.00
F1032  F     0.44598   0.95322   0.69626   0.00000  Uiso   1.00
F1033  F     0.44565   0.71309   0.69664   0.00000  Uiso   1.00
F1034  F     0.55404   0.95353   0.80372   0.00000  Uiso   1.00
F1035  F     0.53905   0.90147   0.52392   0.00000  Uiso   1.00
F1036  F     0.54056   0.76692   0.97662   0.00000  Uiso   1.00
F1037  F     0.45471   0.89991   0.97472   0.00000  Uiso   1.00
F1038  F     0.45592   0.76613   0.52453   0.00000  Uiso   1.00
F1039  F     0.54074   0.90151   0.61442   0.00000  Uiso   1.00
F1040  F     0.54237   0.76671   0.88613   0.00000  Uiso   1.00
F1041  F     0.45572   0.89994   0.88413   0.00000  Uiso   1.00
F1042  F     0.45686   0.76580   0.61505   0.00000  Uiso   1.00
N1043  N     0.37661   0.79988   0.82650   0.00000  Uiso   1.00
H1044  H     0.39658   0.82539   0.83822   0.00000  Uiso   1.00
H1045  H     0.39471   0.77195   0.81744   0.00000  Uiso   1.00
N1046  N     0.62344   0.86700   0.67364   0.00000  Uiso   1.00
H1047  H     0.60337   0.84159   0.66188   0.00000  Uiso   1.00
H1048  H     0.60546   0.89498   0.68280   0.00000  Uiso   1.00
N1049  N     0.62144   0.80003   0.82486   0.00000  Uiso   1.00
H1050  H     0.62982   0.76635   0.83055   0.00000  Uiso   1.00
H1051  H     0.63005   0.81901   0.85290   0.00000  Uiso   1.00
N1052  N     0.37859   0.86653   0.67515   0.00000  Uiso   1.00
H1053  H     0.37023   0.90021   0.66942   0.00000  Uiso   1.00
H1054  H     0.36996   0.84751   0.64714   0.00000  Uiso   1.00
C1055  C     0.75350   0.83327   0.75042   0.00000  Uiso   1.00
C1056  C     0.91318   0.83339   0.74961   0.00000  Uiso   1.00
C1057  C     0.83317   0.83334   0.66390   0.00000  Uiso   1.00
C1058  C     0.83325   0.83335   0.83608   0.00000  Uiso   1.00
C1059  C     0.86039   0.69071   0.77674   0.00000  Uiso   1.00
C1060  C     0.80632   0.97595   0.72321   0.00000  Uiso   1.00
C1061  C     0.80625   0.69054   0.72329   0.00000  Uiso   1.00
C1062  C     0.86034   0.97611   0.77679   0.00000  Uiso   1.00
C1063  C     0.68811   0.81619   0.78771   0.00000  Uiso   1.00
C1064  C     0.97859   0.85052   0.71237   0.00000  Uiso   1.00
C1065  C     0.97807   0.81637   0.78723   0.00000  Uiso   1.00
C1066  C     0.68862   0.85027   0.71281   0.00000  Uiso   1.00
C1067  C     0.85195   0.86836   0.54656   0.00000  Uiso   1.00
C1068  C     0.85278   0.79936   0.95367   0.00000  Uiso   1.00
C1069  C     0.80971   0.86734   0.95271   0.00000  Uiso   1.00
C1070  C     0.81027   0.79920   0.54687   0.00000  Uiso   1.00
C1071  C     0.85272   0.86830   0.59265   0.00000  Uiso   1.00
C1072  C     0.85355   0.79926   0.90759   0.00000  Uiso   1.00
C1073  C     0.81050   0.86742   0.90661   0.00000  Uiso   1.00
C1074  C     0.81107   0.79895   0.59296   0.00000  Uiso   1.00
C1075  C     0.83243   0.83344   0.61591   0.00000  Uiso   1.00
C1076  C     0.83250   0.83338   0.88403   0.00000  Uiso   1.00
C1077  C     0.83081   0.83380   0.52390   0.00000  Uiso   1.00
C1078  C     0.83090   0.83338   0.97600   0.00000  Uiso   1.00
C1079  C     0.95729   0.83351   0.74969   0.00000  Uiso   1.00
C1080  C     0.70940   0.83315   0.75036   0.00000  Uiso   1.00
N1081  N     0.83333   0.95240   0.75000   0.00000  Uiso   1.00
N1082  N     0.83333   0.71427   0.75000   0.00000  Uiso   1.00
O1083  O     0.77226   0.87154   0.75000   0.00000  Uiso   1.00
O1084  O     0.89441   0.79513   0.75000   0.00000  Uiso   1.00
O1085  O     0.89441   0.87154   0.75001   0.00000  Uiso   1.00
O1086  O     0.77226   0.79513   0.75000   0.00000  Uiso   1.00
O1087  O     0.83333   0.87155   0.68453   0.00000  Uiso   1.00
O1088  O     0.83334   0.79511   0.81547   0.00000  Uiso   1.00
O1089  O     0.83334   0.87155   0.81547   0.00000  Uiso   1.00
O1090  O     0.83333   0.79511   0.68453   0.00000  Uiso   1.00
Zn1091 Zn    0.83333   0.88437   0.75000   0.00000  Uiso   1.00
Zn1092 Zn    0.83333   0.78229   0.75000   0.00000  Uiso   1.00
F1093  F     0.88758   0.71341   0.80348   0.00000  Uiso   1.00
F1094  F     0.77931   0.95322   0.69626   0.00000  Uiso   1.00
F1095  F     0.77899   0.71309   0.69664   0.00000  Uiso   1.00
F1096  F     0.88738   0.95353   0.80372   0.00000  Uiso   1.00
F1097  F     0.87238   0.90147   0.52392   0.00000  Uiso   1.00
F1098  F     0.87389   0.76692   0.97662   0.00000  Uiso   1.00
F1099  F     0.78805   0.89991   0.97472   0.00000  Uiso   1.00
F1100  F     0.78925   0.76613   0.52453   0.00000  Uiso   1.00
F1101  F     0.87408   0.90151   0.61442   0.00000  Uiso   1.00
F1102  F     0.87570   0.76671   0.88613   0.00000  Uiso   1.00
F1103  F     0.78906   0.89994   0.88413   0.00000  Uiso   1.00
F1104  F     0.79019   0.76580   0.61505   0.00000  Uiso   1.00
N1105  N     0.70994   0.79988   0.82650   0.00000  Uiso   1.00
H1106  H     0.72991   0.82539   0.83822   0.00000  Uiso   1.00
H1107  H     0.72804   0.77195   0.81744   0.00000  Uiso   1.00
N1108  N     0.95677   0.86700   0.67364   0.00000  Uiso   1.00
H1109  H     0.93671   0.84159   0.66188   0.00000  Uiso   1.00
H1110  H     0.93879   0.89498   0.68280   0.00000  Uiso   1.00
N1111  N     0.95477   0.80003   0.82486   0.00000  Uiso   1.00
H1112  H     0.96315   0.76635   0.83055   0.00000  Uiso   1.00
H1113  H     0.96338   0.81901   0.85290   0.00000  Uiso   1.00
N1114  N     0.71192   0.86653   0.67515   0.00000  Uiso   1.00
H1115  H     0.70356   0.90021   0.66942   0.00000  Uiso   1.00
H1116  H     0.70329   0.84751   0.64714   0.00000  Uiso   1.00
loop_
_geom_bond_atom_site_label_1
_geom_bond_atom_site_label_2
_geom_bond_distance
_geom_bond_site_symmetry_2
_ccdc_geom_bond_type
C1     O29     1.279   .     A
C1     C26     1.406   .     S
C1     O32     1.278   .     A
C2     C25     1.406   .     S
C2     O30     1.279   .     A
C2     O31     1.278   .     A
C3     O33     1.288   .     A
C3     O36     1.289   .     A
C3     C21     1.439   .     S
C4     C22     1.438   .     S
C4     O35     1.288   .     A
C4     O34     1.288   .     A
C5     N28     1.367   .     A
C5     F39     1.355   .     S
C5     C380    1.417   1_545 S
C6     N27     1.367   .     A
C6     F40     1.355   .     S
C6     C193    1.417   .     S
C7     N28     1.367   .     A
C7     F41     1.355   .     S
C7     C378    1.417   1_545 S
C8     F42     1.355   .     S
C8     N27     1.367   .     A
C8     C191    1.417   .     S
C9     N51     1.437   .     S
C9     C26     1.404   .     A
C9     C135    1.383   1_455 S
C10    C25     1.404   .     A
C10    N54     1.437   .     S
C10    C74     1.383   .     S
C11    C25     1.399   .     A
C11    N57     1.437   .     S
C11    C71     1.383   .     S
C12    N60     1.437   .     S
C12    C26     1.399   .     A
C12    C134    1.383   1_455 S
C13    C17     1.382   .     A
C13    F43     1.359   .     S
C13    C23     1.397   .     A
C14    C18     1.381   .     A
C14    F44     1.359   .     S
C14    C24     1.397   .     A
C15    C19     1.382   .     A
C15    C24     1.397   .     A
C15    F45     1.359   .     S
C16    C23     1.397   .     A
C16    C20     1.382   .     A
C16    F46     1.359   .     S
C17    F47     1.359   .     S
C17    C21     1.403   .     A
C18    F48     1.358   .     S
C18    C22     1.403   .     A
C19    C22     1.403   .     A
C19    F49     1.359   .     S
C20    C21     1.403   .     A
C20    F50     1.358   .     S
C23    C582    1.436   1_554 S
C24    C581    1.436   .     S
N27    Zn37    2.011   .     S
N28    Zn38    2.011   .     S
O29    Zn37    1.983   .     S
O30    Zn38    1.983   .     S
O31    Zn37    1.985   .     S
O32    Zn38    1.985   .     S
O33    Zn37    1.998   .     S
O34    Zn38    1.998   .     S
O35    Zn37    1.999   .     S
O36    Zn38    1.999   .     S
N51    H52     1.046   .     S
N51    H53     1.045   .     S
N54    H56     1.045   .     S
N54    H55     1.046   .     S
N57    H58     1.046   .     S
N57    H59     1.046   .     S
N60    H62     1.046   .     S
N60    H61     1.046   .     S
C63    O91     1.279   .     A
C63    C88     1.406   .     S
C63    O94     1.278   .     A
C64    C87     1.406   .     S
C64    O92     1.279   .     A
C64    O93     1.278   .     A
C65    O95     1.288   .     A
C65    O98     1.289   .     A
C65    C83     1.439   .     S
C66    C84     1.438   .     S
C66    O97     1.288   .     A
C66    O96     1.288   .     A
C67    N90     1.367   .     A
C67    F101    1.355   .     S
C67    C442    1.417   1_545 S
C68    N89     1.367   .     A
C68    F102    1.355   .     S
C68    C255    1.417   .     S
C69    N90     1.367   .     A
C69    F103    1.355   .     S
C69    C440    1.417   1_545 S
C70    F104    1.355   .     S
C70    N89     1.367   .     A
C70    C253    1.417   .     S
C71    N113    1.437   .     S
C71    C88     1.404   .     A
C72    C87     1.404   .     A
C72    N116    1.437   .     S
C72    C136    1.383   .     S
C73    C87     1.399   .     A
C73    N119    1.437   .     S
C73    C133    1.383   .     S
C74    N122    1.437   .     S
C74    C88     1.399   .     A
C75    C79     1.382   .     A
C75    F105    1.359   .     S
C75    C85     1.397   .     A
C76    C80     1.381   .     A
C76    F106    1.359   .     S
C76    C86     1.397   .     A
C77    C81     1.382   .     A
C77    C86     1.397   .     A
C77    F107    1.359   .     S
C78    C85     1.397   .     A
C78    C82     1.382   .     A
C78    F108    1.359   .     S
C79    F109    1.359   .     S
C79    C83     1.403   .     A
C80    F110    1.358   .     S
C80    C84     1.403   .     A
C81    C84     1.403   .     A
C81    F111    1.359   .     S
C82    C83     1.403   .     A
C82    F112    1.358   .     S
C85    C644    1.436   1_554 S
C86    C643    1.436   .     S
N89    Zn99    2.011   .     S
N90    Zn100   2.011   .     S
O91    Zn99    1.983   .     S
O92    Zn100   1.983   .     S
O93    Zn99    1.985   .     S
O94    Zn100   1.985   .     S
O95    Zn99    1.998   .     S
O96    Zn100   1.998   .     S
O97    Zn99    1.999   .     S
O98    Zn100   1.999   .     S
N113   H114    1.046   .     S
N113   H115    1.045   .     S
N116   H118    1.045   .     S
N116   H117    1.046   .     S
N119   H120    1.046   .     S
N119   H121    1.046   .     S
N122   H124    1.046   .     S
N122   H123    1.046   .     S
C125   O153    1.279   .     A
C125   C150    1.406   .     S
C125   O156    1.278   .     A
C126   C149    1.406   .     S
C126   O154    1.279   .     A
C126   O155    1.278   .     A
C127   O157    1.288   .     A
C127   O160    1.289   .     A
C127   C145    1.439   .     S
C128   C146    1.438   .     S
C128   O159    1.288   .     A
C128   O158    1.288   .     A
C129   N152    1.367   .     A
C129   F163    1.355   .     S
C129   C504    1.417   1_545 S
C130   N151    1.367   .     A
C130   F164    1.355   .     S
C130   C317    1.417   .     S
C131   N152    1.367   .     A
C131   F165    1.355   .     S
C131   C502    1.417   1_545 S
C132   F166    1.355   .     S
C132   N151    1.367   .     A
C132   C315    1.417   .     S
C133   N175    1.437   .     S
C133   C150    1.404   .     A
C134   C149    1.404   .     A
C134   N178    1.437   .     S
C134   C12     1.383   1_655 S
C135   C149    1.399   .     A
C135   N181    1.437   .     S
C135   C9      1.383   1_655 S
C136   N184    1.437   .     S
C136   C150    1.399   .     A
C137   C141    1.382   .     A
C137   F167    1.359   .     S
C137   C147    1.397   .     A
C138   C142    1.381   .     A
C138   F168    1.359   .     S
C138   C148    1.397   .     A
C139   C143    1.382   .     A
C139   C148    1.397   .     A
C139   F169    1.359   .     S
C140   C147    1.397   .     A
C140   C144    1.382   .     A
C140   F170    1.359   .     S
C141   F171    1.359   .     S
C141   C145    1.403   .     A
C142   F172    1.358   .     S
C142   C146    1.403   .     A
C143   C146    1.403   .     A
C143   F173    1.359   .     S
C144   C145    1.403   .     A
C144   F174    1.358   .     S
C147   C706    1.436   1_554 S
C148   C705    1.436   .     S
N151   Zn161   2.011   .     S
N152   Zn162   2.011   .     S
O153   Zn161   1.983   .     S
O154   Zn162   1.983   .     S
O155   Zn161   1.985   .     S
O156   Zn162   1.985   .     S
O157   Zn161   1.998   .     S
O158   Zn162   1.998   .     S
O159   Zn161   1.999   .     S
O160   Zn162   1.999   .     S
N175   H176    1.046   .     S
N175   H177    1.045   .     S
N178   H180    1.045   .     S
N178   H179    1.046   .     S
N181   H182    1.046   .     S
N181   H183    1.046   .     S
N184   H186    1.046   .     S
N184   H185    1.046   .     S
C187   O215    1.279   .     A
C187   C212    1.406   .     S
C187   O218    1.278   .     A
C188   C211    1.406   .     S
C188   O216    1.279   .     A
C188   O217    1.278   .     A
C189   O219    1.288   .     A
C189   O222    1.289   .     A
C189   C207    1.439   .     S
C190   C208    1.438   .     S
C190   O221    1.288   .     A
C190   O220    1.288   .     A
C191   N214    1.367   .     A
C191   F225    1.355   .     S
C192   N213    1.367   .     A
C192   F226    1.355   .     S
C192   C379    1.417   .     S
C193   N214    1.367   .     A
C193   F227    1.355   .     S
C194   F228    1.355   .     S
C194   N213    1.367   .     A
C194   C377    1.417   .     S
C195   N237    1.437   .     S
C195   C212    1.404   .     A
C195   C321    1.383   1_455 S
C196   C211    1.404   .     A
C196   N240    1.437   .     S
C196   C260    1.383   .     S
C197   C211    1.399   .     A
C197   N243    1.437   .     S
C197   C257    1.383   .     S
C198   N246    1.437   .     S
C198   C212    1.399   .     A
C198   C320    1.383   1_455 S
C199   C203    1.382   .     A
C199   F229    1.359   .     S
C199   C209    1.397   .     A
C200   C204    1.381   .     A
C200   F230    1.359   .     S
C200   C210    1.397   .     A
C201   C205    1.382   .     A
C201   C210    1.397   .     A
C201   F231    1.359   .     S
C202   C209    1.397   .     A
C202   C206    1.382   .     A
C202   F232    1.359   .     S
C203   F233    1.359   .     S
C203   C207    1.403   .     A
C204   F234    1.358   .     S
C204   C208    1.403   .     A
C205   C208    1.403   .     A
C205   F235    1.359   .     S
C206   C207    1.403   .     A
C206   F236    1.358   .     S
C209   C768    1.436   1_554 S
C210   C767    1.436   .     S
N213   Zn223   2.011   .     S
N214   Zn224   2.011   .     S
O215   Zn223   1.983   .     S
O216   Zn224   1.983   .     S
O217   Zn223   1.985   .     S
O218   Zn224   1.985   .     S
O219   Zn223   1.998   .     S
O220   Zn224   1.998   .     S
O221   Zn223   1.999   .     S
O222   Zn224   1.999   .     S
N237   H238    1.046   .     S
N237   H239    1.045   .     S
N240   H242    1.045   .     S
N240   H241    1.046   .     S
N243   H244    1.046   .     S
N243   H245    1.046   .     S
N246   H248    1.046   .     S
N246   H247    1.046   .     S
C249   O277    1.279   .     A
C249   C274    1.406   .     S
C249   O280    1.278   .     A
C250   C273    1.406   .     S
C250   O278    1.279   .     A
C250   O279    1.278   .     A
C251   O281    1.288   .     A
C251   O284    1.289   .     A
C251   C269    1.439   .     S
C252   C270    1.438   .     S
C252   O283    1.288   .     A
C252   O282    1.288   .     A
C253   N276    1.367   .     A
C253   F287    1.355   .     S
C254   N275    1.367   .     A
C254   F288    1.355   .     S
C254   C441    1.417   .     S
C255   N276    1.367   .     A
C255   F289    1.355   .     S
C256   F290    1.355   .     S
C256   N275    1.367   .     A
C256   C439    1.417   .     S
C257   N299    1.437   .     S
C257   C274    1.404   .     A
C258   C273    1.404   .     A
C258   N302    1.437   .     S
C258   C322    1.383   .     S
C259   C273    1.399   .     A
C259   N305    1.437   .     S
C259   C319    1.383   .     S
C260   N308    1.437   .     S
C260   C274    1.399   .     A
C261   C265    1.382   .     A
C261   F291    1.359   .     S
C261   C271    1.397   .     A
C262   C266    1.381   .     A
C262   F292    1.359   .     S
C262   C272    1.397   .     A
C263   C267    1.382   .     A
C263   C272    1.397   .     A
C263   F293    1.359   .     S
C264   C271    1.397   .     A
C264   C268    1.382   .     A
C264   F294    1.359   .     S
C265   F295    1.359   .     S
C265   C269    1.403   .     A
C266   F296    1.358   .     S
C266   C270    1.403   .     A
C267   C270    1.403   .     A
C267   F297    1.359   .     S
C268   C269    1.403   .     A
C268   F298    1.358   .     S
C271   C830    1.436   1_554 S
C272   C829    1.436   .     S
N275   Zn285   2.011   .     S
N276   Zn286   2.011   .     S
O277   Zn285   1.983   .     S
O278   Zn286   1.983   .     S
O279   Zn285   1.985   .     S
O280   Zn286   1.985   .     S
O281   Zn285   1.998   .     S
O282   Zn286   1.998   .     S
O283   Zn285   1.999   .     S
O284   Zn286   1.999   .     S
N299   H300    1.046   .     S
N299   H301    1.045   .     S
N302   H304    1.045   .     S
N302   H303    1.046   .     S
N305   H306    1.046   .     S
N305   H307    1.046   .     S
N308   H310    1.046   .     S
N308   H309    1.046   .     S
C311   O339    1.279   .     A
C311   C336    1.406   .     S
C311   O342    1.278   .     A
C312   C335    1.406   .     S
C312   O340    1.279   .     A
C312   O341    1.278   .     A
C313   O343    1.288   .     A
C313   O346    1.289   .     A
C313   C331    1.439   .     S
C314   C332    1.438   .     S
C314   O345    1.288   .     A
C314   O344    1.288   .     A
C315   N338    1.367   .     A
C315   F349    1.355   .     S
C316   N337    1.367   .     A
C316   F350    1.355   .     S
C316   C503    1.417   .     S
C317   N338    1.367   .     A
C317   F351    1.355   .     S
C318   F352    1.355   .     S
C318   N337    1.367   .     A
C318   C501    1.417   .     S
C319   N361    1.437   .     S
C319   C336    1.404   .     A
C320   C335    1.404   .     A
C320   N364    1.437   .     S
C320   C198    1.383   1_655 S
C321   C335    1.399   .     A
C321   N367    1.437   .     S
C321   C195    1.383   1_655 S
C322   N370    1.437   .     S
C322   C336    1.399   .     A
C323   C327    1.382   .     A
C323   F353    1.359   .     S
C323   C333    1.397   .     A
C324   C328    1.381   .     A
C324   F354    1.359   .     S
C324   C334    1.397   .     A
C325   C329    1.382   .     A
C325   C334    1.397   .     A
C325   F355    1.359   .     S
C326   C333    1.397   .     A
C326   C330    1.382   .     A
C326   F356    1.359   .     S
C327   F357    1.359   .     S
C327   C331    1.403   .     A
C328   F358    1.358   .     S
C328   C332    1.403   .     A
C329   C332    1.403   .     A
C329   F359    1.359   .     S
C330   C331    1.403   .     A
C330   F360    1.358   .     S
C333   C892    1.436   1_554 S
C334   C891    1.436   .     S
N337   Zn347   2.011   .     S
N338   Zn348   2.011   .     S
O339   Zn347   1.983   .     S
O340   Zn348   1.983   .     S
O341   Zn347   1.985   .     S
O342   Zn348   1.985   .     S
O343   Zn347   1.998   .     S
O344   Zn348   1.998   .     S
O345   Zn347   1.999   .     S
O346   Zn348   1.999   .     S
N361   H362    1.046   .     S
N361   H363    1.045   .     S
N364   H366    1.045   .     S
N364   H365    1.046   .     S
N367   H368    1.046   .     S
N367   H369    1.046   .     S
N370   H372    1.046   .     S
N370   H371    1.046   .     S
C373   O401    1.279   .     A
C373   C398    1.406   .     S
C373   O404    1.278   .     A
C374   C397    1.406   .     S
C374   O402    1.279   .     A
C374   O403    1.278   .     A
C375   O405    1.288   .     A
C375   O408    1.289   .     A
C375   C393    1.439   .     S
C376   C394    1.438   .     S
C376   O407    1.288   .     A
C376   O406    1.288   .     A
C377   N400    1.367   .     A
C377   F411    1.355   .     S
C378   N399    1.367   .     A
C378   F412    1.355   .     S
C378   C7      1.417   1_565 S
C379   N400    1.367   .     A
C379   F413    1.355   .     S
C380   F414    1.355   .     S
C380   N399    1.367   .     A
C380   C5      1.417   1_565 S
C381   N423    1.437   .     S
C381   C398    1.404   .     A
C381   C507    1.383   1_455 S
C382   C397    1.404   .     A
C382   N426    1.437   .     S
C382   C446    1.383   .     S
C383   C397    1.399   .     A
C383   N429    1.437   .     S
C383   C443    1.383   .     S
C384   N432    1.437   .     S
C384   C398    1.399   .     A
C384   C506    1.383   1_455 S
C385   C389    1.382   .     A
C385   F415    1.359   .     S
C385   C395    1.397   .     A
C386   C390    1.381   .     A
C386   F416    1.359   .     S
C386   C396    1.397   .     A
C387   C391    1.382   .     A
C387   C396    1.397   .     A
C387   F417    1.359   .     S
C388   C395    1.397   .     A
C388   C392    1.382   .     A
C388   F418    1.359   .     S
C389   F419    1.359   .     S
C389   C393    1.403   .     A
C390   F420    1.358   .     S
C390   C394    1.403   .     A
C391   C394    1.403   .     A
C391   F421    1.359   .     S
C392   C393    1.403   .     A
C392   F422    1.358   .     S
C395   C954    1.436   1_554 S
C396   C953    1.436   .     S
N399   Zn409   2.011   .     S
N400   Zn410   2.011   .     S
O401   Zn409   1.983   .     S
O402   Zn410   1.983   .     S
O403   Zn409   1.985   .     S
O404   Zn410   1.985   .     S
O405   Zn409   1.998   .     S
O406   Zn410   1.998   .     S
O407   Zn409   1.999   .     S
O408   Zn410   1.999   .     S
N423   H424    1.046   .     S
N423   H425    1.045   .     S
N426   H428    1.045   .     S
N426   H427    1.046   .     S
N429   H430    1.046   .     S
N429   H431    1.046   .     S
N432   H434    1.046   .     S
N432   H433    1.046   .     S
C435   O463    1.279   .     A
C435   C460    1.406   .     S
C435   O466    1.278   .     A
C436   C459    1.406   .     S
C436   O464    1.279   .     A
C436   O465    1.278   .     A
C437   O467    1.288   .     A
C437   O470    1.289   .     A
C437   C455    1.439   .     S
C438   C456    1.438   .     S
C438   O469    1.288   .     A
C438   O468    1.288   .     A
C439   N462    1.367   .     A
C439   F473    1.355   .     S
C440   N461    1.367   .     A
C440   F474    1.355   .     S
C440   C69     1.417   1_565 S
C441   N462    1.367   .     A
C441   F475    1.355   .     S
C442   F476    1.355   .     S
C442   N461    1.367   .     A
C442   C67     1.417   1_565 S
C443   N485    1.437   .     S
C443   C460    1.404   .     A
C444   C459    1.404   .     A
C444   N488    1.437   .     S
C444   C508    1.383   .     S
C445   C459    1.399   .     A
C445   N491    1.437   .     S
C445   C505    1.383   .     S
C446   N494    1.437   .     S
C446   C460    1.399   .     A
C447   C451    1.382   .     A
C447   F477    1.359   .     S
C447   C457    1.397   .     A
C448   C452    1.381   .     A
C448   F478    1.359   .     S
C448   C458    1.397   .     A
C449   C453    1.382   .     A
C449   C458    1.397   .     A
C449   F479    1.359   .     S
C450   C457    1.397   .     A
C450   C454    1.382   .     A
C450   F480    1.359   .     S
C451   F481    1.359   .     S
C451   C455    1.403   .     A
C452   F482    1.358   .     S
C452   C456    1.403   .     A
C453   C456    1.403   .     A
C453   F483    1.359   .     S
C454   C455    1.403   .     A
C454   F484    1.358   .     S
C457   C1016   1.436   1_554 S
C458   C1015   1.436   .     S
N461   Zn471   2.011   .     S
N462   Zn472   2.011   .     S
O463   Zn471   1.983   .     S
O464   Zn472   1.983   .     S
O465   Zn471   1.985   .     S
O466   Zn472   1.985   .     S
O467   Zn471   1.998   .     S
O468   Zn472   1.998   .     S
O469   Zn471   1.999   .     S
O470   Zn472   1.999   .     S
N485   H486    1.046   .     S
N485   H487    1.045   .     S
N488   H490    1.045   .     S
N488   H489    1.046   .     S
N491   H492    1.046   .     S
N491   H493    1.046   .     S
N494   H496    1.046   .     S
N494   H495    1.046   .     S
C497   O525    1.279   .     A
C497   C522    1.406   .     S
C497   O528    1.278   .     A
C498   C521    1.406   .     S
C498   O526    1.279   .     A
C498   O527    1.278   .     A
C499   O529    1.288   .     A
C499   O532    1.289   .     A
C499   C517    1.439   .     S
C500   C518    1.438   .     S
C500   O531    1.288   .     A
C500   O530    1.288   .     A
C501   N524    1.367   .     A
C501   F535    1.355   .     S
C502   N523    1.367   .     A
C502   F536    1.355   .     S
C502   C131    1.417   1_565 S
C503   N524    1.367   .     A
C503   F537    1.355   .     S
C504   F538    1.355   .     S
C504   N523    1.367   .     A
C504   C129    1.417   1_565 S
C505   N547    1.437   .     S
C505   C522    1.404   .     A
C506   C521    1.404   .     A
C506   N550    1.437   .     S
C506   C384    1.383   1_655 S
C507   C521    1.399   .     A
C507   N553    1.437   .     S
C507   C381    1.383   1_655 S
C508   N556    1.437   .     S
C508   C522    1.399   .     A
C509   C513    1.382   .     A
C509   F539    1.359   .     S
C509   C519    1.397   .     A
C510   C514    1.381   .     A
C510   F540    1.359   .     S
C510   C520    1.397   .     A
C511   C515    1.382   .     A
C511   C520    1.397   .     A
C511   F541    1.359   .     S
C512   C519    1.397   .     A
C512   C516    1.382   .     A
C512   F542    1.359   .     S
C513   F543    1.359   .     S
C513   C517    1.403   .     A
C514   F544    1.358   .     S
C514   C518    1.403   .     A
C515   C518    1.403   .     A
C515   F545    1.359   .     S
C516   C517    1.403   .     A
C516   F546    1.358   .     S
C519   C1078   1.436   1_554 S
C520   C1077   1.436   .     S
N523   Zn533   2.011   .     S
N524   Zn534   2.011   .     S
O525   Zn533   1.983   .     S
O526   Zn534   1.983   .     S
O527   Zn533   1.985   .     S
O528   Zn534   1.985   .     S
O529   Zn533   1.998   .     S
O530   Zn534   1.998   .     S
O531   Zn533   1.999   .     S
O532   Zn534   1.999   .     S
N547   H548    1.046   .     S
N547   H549    1.045   .     S
N550   H552    1.045   .     S
N550   H551    1.046   .     S
N553   H554    1.046   .     S
N553   H555    1.046   .     S
N556   H558    1.046   .     S
N556   H557    1.046   .     S
C559   O587    1.279   .     A
C559   C584    1.406   .     S
C559   O590    1.278   .     A
C560   C583    1.406   .     S
C560   O588    1.279   .     A
C560   O589    1.278   .     A
C561   O591    1.288   .     A
C561   O594    1.289   .     A
C561   C579    1.439   .     S
C562   C580    1.438   .     S
C562   O593    1.288   .     A
C562   O592    1.288   .     A
C563   N586    1.367   .     A
C563   F597    1.355   .     S
C563   C938    1.417   1_545 S
C564   N585    1.367   .     A
C564   F598    1.355   .     S
C564   C751    1.417   .     S
C565   N586    1.367   .     A
C565   F599    1.355   .     S
C565   C936    1.417   1_545 S
C566   F600    1.355   .     S
C566   N585    1.367   .     A
C566   C749    1.417   .     S
C567   N609    1.437   .     S
C567   C584    1.404   .     A
C567   C693    1.383   1_455 S
C568   C583    1.404   .     A
C568   N612    1.437   .     S
C568   C632    1.383   .     S
C569   C583    1.399   .     A
C569   N615    1.437   .     S
C569   C629    1.383   .     S
C570   N618    1.437   .     S
C570   C584    1.399   .     A
C570   C692    1.383   1_455 S
C571   C575    1.382   .     A
C571   F601    1.359   .     S
C571   C581    1.397   .     A
C572   C576    1.381   .     A
C572   F602    1.359   .     S
C572   C582    1.397   .     A
C573   C577    1.382   .     A
C573   C582    1.397   .     A
C573   F603    1.359   .     S
C574   C581    1.397   .     A
C574   C578    1.382   .     A
C574   F604    1.359   .     S
C575   F605    1.359   .     S
C575   C579    1.403   .     A
C576   F606    1.358   .     S
C576   C580    1.403   .     A
C577   C580    1.403   .     A
C577   F607    1.359   .     S
C578   C579    1.403   .     A
C578   F608    1.358   .     S
C582   C23     1.436   1_556 S
N585   Zn595   2.011   .     S
N586   Zn596   2.011   .     S
O587   Zn595   1.983   .     S
O588   Zn596   1.983   .     S
O589   Zn595   1.985   .     S
O590   Zn596   1.985   .     S
O591   Zn595   1.998   .     S
O592   Zn596   1.998   .     S
O593   Zn595   1.999   .     S
O594   Zn596   1.999   .     S
N609   H610    1.046   .     S
N609   H611    1.045   .     S
N612   H614    1.045   .     S
N612   H613    1.046   .     S
N615   H616    1.046   .     S
N615   H617    1.046   .     S
N618   H620    1.046   .     S
N618   H619    1.046   .     S
C621   O649    1.279   .     A
C621   C646    1.406   .     S
C621   O652    1.278   .     A
C622   C645    1.406   .     S
C622   O650    1.279   .     A
C622   O651    1.278   .     A
C623   O653    1.288   .     A
C623   O656    1.289   .     A
C623   C641    1.439   .     S
C624   C642    1.438   .     S
C624   O655    1.288   .     A
C624   O654    1.288   .     A
C625   N648    1.367   .     A
C625   F659    1.355   .     S
C625   C1000   1.417   1_545 S
C626   N647    1.367   .     A
C626   F660    1.355   .     S
C626   C813    1.417   .     S
C627   N648    1.367   .     A
C627   F661    1.355   .     S
C627   C998    1.417   1_545 S
C628   F662    1.355   .     S
C628   N647    1.367   .     A
C628   C811    1.417   .     S
C629   N671    1.437   .     S
C629   C646    1.404   .     A
C630   C645    1.404   .     A
C630   N674    1.437   .     S
C630   C694    1.383   .     S
C631   C645    1.399   .     A
C631   N677    1.437   .     S
C631   C691    1.383   .     S
C632   N680    1.437   .     S
C632   C646    1.399   .     A
C633   C637    1.382   .     A
C633   F663    1.359   .     S
C633   C643    1.397   .     A
C634   C638    1.381   .     A
C634   F664    1.359   .     S
C634   C644    1.397   .     A
C635   C639    1.382   .     A
C635   C644    1.397   .     A
C635   F665    1.359   .     S
C636   C643    1.397   .     A
C636   C640    1.382   .     A
C636   F666    1.359   .     S
C637   F667    1.359   .     S
C637   C641    1.403   .     A
C638   F668    1.358   .     S
C638   C642    1.403   .     A
C639   C642    1.403   .     A
C639   F669    1.359   .     S
C640   C641    1.403   .     A
C640   F670    1.358   .     S
C644   C85     1.436   1_556 S
N647   Zn657   2.011   .     S
N648   Zn658   2.011   .     S
O649   Zn657   1.983   .     S
O650   Zn658   1.983   .     S
O651   Zn657   1.985   .     S
O652   Zn658   1.985   .     S
O653   Zn657   1.998   .     S
O654   Zn658   1.998   .     S
O655   Zn657   1.999   .     S
O656   Zn658   1.999   .     S
N671   H672    1.046   .     S
N671   H673    1.045   .     S
N674   H676    1.045   .     S
N674   H675    1.046   .     S
N677   H678    1.046   .     S
N677   H679    1.046   .     S
N680   H682    1.046   .     S
N680   H681    1.046   .     S
C683   O711    1.279   .     A
C683   C708    1.406   .     S
C683   O714    1.278   .     A
C684   C707    1.406   .     S
C684   O712    1.279   .     A
C684   O713    1.278   .     A
C685   O715    1.288   .     A
C685   O718    1.289   .     A
C685   C703    1.439   .     S
C686   C704    1.438   .     S
C686   O717    1.288   .     A
C686   O716    1.288   .     A
C687   N710    1.367   .     A
C687   F721    1.355   .     S
C687   C1062   1.417   1_545 S
C688   N709    1.367   .     A
C688   F722    1.355   .     S
C688   C875    1.417   .     S
C689   N710    1.367   .     A
C689   F723    1.355   .     S
C689   C1060   1.417   1_545 S
C690   F724    1.355   .     S
C690   N709    1.367   .     A
C690   C873    1.417   .     S
C691   N733    1.437   .     S
C691   C708    1.404   .     A
C692   C707    1.404   .     A
C692   N736    1.437   .     S
C692   C570    1.383   1_655 S
C693   C707    1.399   .     A
C693   N739    1.437   .     S
C693   C567    1.383   1_655 S
C694   N742    1.437   .     S
C694   C708    1.399   .     A
C695   C699    1.382   .     A
C695   F725    1.359   .     S
C695   C705    1.397   .     A
C696   C700    1.381   .     A
C696   F726    1.359   .     S
C696   C706    1.397   .     A
C697   C701    1.382   .     A
C697   C706    1.397   .     A
C697   F727    1.359   .     S
C698   C705    1.397   .     A
C698   C702    1.382   .     A
C698   F728    1.359   .     S
C699   F729    1.359   .     S
C699   C703    1.403   .     A
C700   F730    1.358   .     S
C700   C704    1.403   .     A
C701   C704    1.403   .     A
C701   F731    1.359   .     S
C702   C703    1.403   .     A
C702   F732    1.358   .     S
C706   C147    1.436   1_556 S
N709   Zn719   2.011   .     S
N710   Zn720   2.011   .     S
O711   Zn719   1.983   .     S
O712   Zn720   1.983   .     S
O713   Zn719   1.985   .     S
O714   Zn720   1.985   .     S
O715   Zn719   1.998   .     S
O716   Zn720   1.998   .     S
O717   Zn719   1.999   .     S
O718   Zn720   1.999   .     S
N733   H734    1.046   .     S
N733   H735    1.045   .     S
N736   H738    1.045   .     S
N736   H737    1.046   .     S
N739   H740    1.046   .     S
N739   H741    1.046   .     S
N742   H744    1.046   .     S
N742   H743    1.046   .     S
C745   O773    1.279   .     A
C745   C770    1.406   .     S
C745   O776    1.278   .     A
C746   C769    1.406   .     S
C746   O774    1.279   .     A
C746   O775    1.278   .     A
C747   O777    1.288   .     A
C747   O780    1.289   .     A
C747   C765    1.439   .     S
C748   C766    1.438   .     S
C748   O779    1.288   .     A
C748   O778    1.288   .     A
C749   N772    1.367   .     A
C749   F783    1.355   .     S
C750   N771    1.367   .     A
C750   F784    1.355   .     S
C750   C937    1.417   .     S
C751   N772    1.367   .     A
C751   F785    1.355   .     S
C752   F786    1.355   .     S
C752   N771    1.367   .     A
C752   C935    1.417   .     S
C753   N795    1.437   .     S
C753   C770    1.404   .     A
C753   C879    1.383   1_455 S
C754   C769    1.404   .     A
C754   N798    1.437   .     S
C754   C818    1.383   .     S
C755   C769    1.399   .     A
C755   N801    1.437   .     S
C755   C815    1.383   .     S
C756   N804    1.437   .     S
C756   C770    1.399   .     A
C756   C878    1.383   1_455 S
C757   C761    1.382   .     A
C757   F787    1.359   .     S
C757   C767    1.397   .     A
C758   C762    1.381   .     A
C758   F788    1.359   .     S
C758   C768    1.397   .     A
C759   C763    1.382   .     A
C759   C768    1.397   .     A
C759   F789    1.359   .     S
C760   C767    1.397   .     A
C760   C764    1.382   .     A
C760   F790    1.359   .     S
C761   F791    1.359   .     S
C761   C765    1.403   .     A
C762   F792    1.358   .     S
C762   C766    1.403   .     A
C763   C766    1.403   .     A
C763   F793    1.359   .     S
C764   C765    1.403   .     A
C764   F794    1.358   .     S
C768   C209    1.436   1_556 S
N771   Zn781   2.011   .     S
N772   Zn782   2.011   .     S
O773   Zn781   1.983   .     S
O774   Zn782   1.983   .     S
O775   Zn781   1.985   .     S
O776   Zn782   1.985   .     S
O777   Zn781   1.998   .     S
O778   Zn782   1.998   .     S
O779   Zn781   1.999   .     S
O780   Zn782   1.999   .     S
N795   H796    1.046   .     S
N795   H797    1.045   .     S
N798   H800    1.045   .     S
N798   H799    1.046   .     S
N801   H802    1.046   .     S
N801   H803    1.046   .     S
N804   H806    1.046   .     S
N804   H805    1.046   .     S
C807   O835    1.279   .     A
C807   C832    1.406   .     S
C807   O838    1.278   .     A
C808   C831    1.406   .     S
C808   O836    1.279   .     A
C808   O837    1.278   .     A
C809   O839    1.288   .     A
C809   O842    1.289   .     A
C809   C827    1.439   .     S
C810   C828    1.438   .     S
C810   O841    1.288   .     A
C810   O840    1.288   .     A
C811   N834    1.367   .     A
C811   F845    1.355   .     S
C812   N833    1.367   .     A
C812   F846    1.355   .     S
C812   C999    1.417   .     S
C813   N834    1.367   .     A
C813   F847    1.355   .     S
C814   F848    1.355   .     S
C814   N833    1.367   .     A
C814   C997    1.417   .     S
C815   N857    1.437   .     S
C815   C832    1.404   .     A
C816   C831    1.404   .     A
C816   N860    1.437   .     S
C816   C880    1.383   .     S
C817   C831    1.399   .     A
C817   N863    1.437   .     S
C817   C877    1.383   .     S
C818   N866    1.437   .     S
C818   C832    1.399   .     A
C819   C823    1.382   .     A
C819   F849    1.359   .     S
C819   C829    1.397   .     A
C820   C824    1.381   .     A
C820   F850    1.359   .     S
C820   C830    1.397   .     A
C821   C825    1.382   .     A
C821   C830    1.397   .     A
C821   F851    1.359   .     S
C822   C829    1.397   .     A
C822   C826    1.382   .     A
C822   F852    1.359   .     S
C823   F853    1.359   .     S
C823   C827    1.403   .     A
C824   F854    1.358   .     S
C824   C828    1.403   .     A
C825   C828    1.403   .     A
C825   F855    1.359   .     S
C826   C827    1.403   .     A
C826   F856    1.358   .     S
C830   C271    1.436   1_556 S
N833   Zn843   2.011   .     S
N834   Zn844   2.011   .     S
O835   Zn843   1.983   .     S
O836   Zn844   1.983   .     S
O837   Zn843   1.985   .     S
O838   Zn844   1.985   .     S
O839   Zn843   1.998   .     S
O840   Zn844   1.998   .     S
O841   Zn843   1.999   .     S
O842   Zn844   1.999   .     S
N857   H858    1.046   .     S
N857   H859    1.045   .     S
N860   H862    1.045   .     S
N860   H861    1.046   .     S
N863   H864    1.046   .     S
N863   H865    1.046   .     S
N866   H868    1.046   .     S
N866   H867    1.046   .     S
C869   O897    1.279   .     A
C869   C894    1.406   .     S
C869   O900    1.278   .     A
C870   C893    1.406   .     S
C870   O898    1.279   .     A
C870   O899    1.278   .     A
C871   O901    1.288   .     A
C871   O904    1.289   .     A
C871   C889    1.439   .     S
C872   C890    1.438   .     S
C872   O903    1.288   .     A
C872   O902    1.288   .     A
C873   N896    1.367   .     A
C873   F907    1.355   .     S
C874   N895    1.367   .     A
C874   F908    1.355   .     S
C874   C1061   1.417   .     S
C875   N896    1.367   .     A
C875   F909    1.355   .     S
C876   F910    1.355   .     S
C876   N895    1.367   .     A
C876   C1059   1.417   .     S
C877   N919    1.437   .     S
C877   C894    1.404   .     A
C878   C893    1.404   .     A
C878   N922    1.437   .     S
C878   C756    1.383   1_655 S
C879   C893    1.399   .     A
C879   N925    1.437   .     S
C879   C753    1.383   1_655 S
C880   N928    1.437   .     S
C880   C894    1.399   .     A
C881   C885    1.382   .     A
C881   F911    1.359   .     S
C881   C891    1.397   .     A
C882   C886    1.381   .     A
C882   F912    1.359   .     S
C882   C892    1.397   .     A
C883   C887    1.382   .     A
C883   C892    1.397   .     A
C883   F913    1.359   .     S
C884   C891    1.397   .     A
C884   C888    1.382   .     A
C884   F914    1.359   .     S
C885   F915    1.359   .     S
C885   C889    1.403   .     A
C886   F916    1.358   .     S
C886   C890    1.403   .     A
C887   C890    1.403   .     A
C887   F917    1.359   .     S
C888   C889    1.403   .     A
C888   F918    1.358   .     S
C892   C333    1.436   1_556 S
N895   Zn905   2.011   .     S
N896   Zn906   2.011   .     S
O897   Zn905   1.983   .     S
O898   Zn906   1.983   .     S
O899   Zn905   1.985   .     S
O900   Zn906   1.985   .     S
O901   Zn905   1.998   .     S
O902   Zn906   1.998   .     S
O903   Zn905   1.999   .     S
O904   Zn906   1.999   .     S
N919   H920    1.046   .     S
N919   H921    1.045   .     S
N922   H924    1.045   .     S
N922   H923    1.046   .     S
N925   H926    1.046   .     S
N925   H927    1.046   .     S
N928   H930    1.046   .     S
N928   H929    1.046   .     S
C931   O959    1.279   .     A
C931   C956    1.406   .     S
C931   O962    1.278   .     A
C932   C955    1.406   .     S
C932   O960    1.279   .     A
C932   O961    1.278   .     A
C933   O963    1.288   .     A
C933   O966    1.289   .     A
C933   C951    1.439   .     S
C934   C952    1.438   .     S
C934   O965    1.288   .     A
C934   O964    1.288   .     A
C935   N958    1.367   .     A
C935   F969    1.355   .     S
C936   N957    1.367   .     A
C936   F970    1.355   .     S
C936   C565    1.417   1_565 S
C937   N958    1.367   .     A
C937   F971    1.355   .     S
C938   F972    1.355   .     S
C938   N957    1.367   .     A
C938   C563    1.417   1_565 S
C939   N981    1.437   .     S
C939   C956    1.404   .     A
C939   C1065   1.383   1_455 S
C940   C955    1.404   .     A
C940   N984    1.437   .     S
C940   C1004   1.383   .     S
C941   C955    1.399   .     A
C941   N987    1.437   .     S
C941   C1001   1.383   .     S
C942   N990    1.437   .     S
C942   C956    1.399   .     A
C942   C1064   1.383   1_455 S
C943   C947    1.382   .     A
C943   F973    1.359   .     S
C943   C953    1.397   .     A
C944   C948    1.381   .     A
C944   F974    1.359   .     S
C944   C954    1.397   .     A
C945   C949    1.382   .     A
C945   C954    1.397   .     A
C945   F975    1.359   .     S
C946   C953    1.397   .     A
C946   C950    1.382   .     A
C946   F976    1.359   .     S
C947   F977    1.359   .     S
C947   C951    1.403   .     A
C948   F978    1.358   .     S
C948   C952    1.403   .     A
C949   C952    1.403   .     A
C949   F979    1.359   .     S
C950   C951    1.403   .     A
C950   F980    1.358   .     S
C954   C395    1.436   1_556 S
N957   Zn967   2.011   .     S
N958   Zn968   2.011   .     S
O959   Zn967   1.983   .     S
O960   Zn968   1.983   .     S
O961   Zn967   1.985   .     S
O962   Zn968   1.985   .     S
O963   Zn967   1.998   .     S
O964   Zn968   1.998   .     S
O965   Zn967   1.999   .     S
O966   Zn968   1.999   .     S
N981   H982    1.046   .     S
N981   H983    1.045   .     S
N984   H986    1.045   .     S
N984   H985    1.046   .     S
N987   H988    1.046   .     S
N987   H989    1.046   .     S
N990   H992    1.046   .     S
N990   H991    1.046   .     S
C993   O1021   1.279   .     A
C993   C1018   1.406   .     S
C993   O1024   1.278   .     A
C994   C1017   1.406   .     S
C994   O1022   1.279   .     A
C994   O1023   1.278   .     A
C995   O1025   1.288   .     A
C995   O1028   1.289   .     A
C995   C1013   1.439   .     S
C996   C1014   1.438   .     S
C996   O1027   1.288   .     A
C996   O1026   1.288   .     A
C997   N1020   1.367   .     A
C997   F1031   1.355   .     S
C998   N1019   1.367   .     A
C998   F1032   1.355   .     S
C998   C627    1.417   1_565 S
C999   N1020   1.367   .     A
C999   F1033   1.355   .     S
C1000  F1034   1.355   .     S
C1000  N1019   1.367   .     A
C1000  C625    1.417   1_565 S
C1001  N1043   1.437   .     S
C1001  C1018   1.404   .     A
C1002  C1017   1.404   .     A
C1002  N1046   1.437   .     S
C1002  C1066   1.383   .     S
C1003  C1017   1.399   .     A
C1003  N1049   1.437   .     S
C1003  C1063   1.383   .     S
C1004  N1052   1.437   .     S
C1004  C1018   1.399   .     A
C1005  C1009   1.382   .     A
C1005  F1035   1.359   .     S
C1005  C1015   1.397   .     A
C1006  C1010   1.381   .     A
C1006  F1036   1.359   .     S
C1006  C1016   1.397   .     A
C1007  C1011   1.382   .     A
C1007  C1016   1.397   .     A
C1007  F1037   1.359   .     S
C1008  C1015   1.397   .     A
C1008  C1012   1.382   .     A
C1008  F1038   1.359   .     S
C1009  F1039   1.359   .     S
C1009  C1013   1.403   .     A
C1010  F1040   1.358   .     S
C1010  C1014   1.403   .     A
C1011  C1014   1.403   .     A
C1011  F1041   1.359   .     S
C1012  C1013   1.403   .     A
C1012  F1042   1.358   .     S
C1016  C457    1.436   1_556 S
N1019  Zn1029  2.011   .     S
N1020  Zn1030  2.011   .     S
O1021  Zn1029  1.983   .     S
O1022  Zn1030  1.983   .     S
O1023  Zn1029  1.985   .     S
O1024  Zn1030  1.985   .     S
O1025  Zn1029  1.998   .     S
O1026  Zn1030  1.998   .     S
O1027  Zn1029  1.999   .     S
O1028  Zn1030  1.999   .     S
N1043  H1044   1.046   .     S
N1043  H1045   1.045   .     S
N1046  H1048   1.045   .     S
N1046  H1047   1.046   .     S
N1049  H1050   1.046   .     S
N1049  H1051   1.046   .     S
N1052  H1054   1.046   .     S
N1052  H1053   1.046   .     S
C1055  O1083   1.279   .     A
C1055  C1080   1.406   .     S
C1055  O1086   1.278   .     A
C1056  C1079   1.406   .     S
C1056  O1084   1.279   .     A
C1056  O1085   1.278   .     A
C1057  O1087   1.288   .     A
C1057  O1090   1.289   .     A
C1057  C1075   1.439   .     S
C1058  C1076   1.438   .     S
C1058  O1089   1.288   .     A
C1058  O1088   1.288   .     A
C1059  N1082   1.367   .     A
C1059  F1093   1.355   .     S
C1060  N1081   1.367   .     A
C1060  F1094   1.355   .     S
C1060  C689    1.417   1_565 S
C1061  N1082   1.367   .     A
C1061  F1095   1.355   .     S
C1062  F1096   1.355   .     S
C1062  N1081   1.367   .     A
C1062  C687    1.417   1_565 S
C1063  N1105   1.437   .     S
C1063  C1080   1.404   .     A
C1064  C1079   1.404   .     A
C1064  N1108   1.437   .     S
C1064  C942    1.383   1_655 S
C1065  C1079   1.399   .     A
C1065  N1111   1.437   .     S
C1065  C939    1.383   1_655 S
C1066  N1114   1.437   .     S
C1066  C1080   1.399   .     A
C1067  C1071   1.382   .     A
C1067  F1097   1.359   .     S
C1067  C1077   1.397   .     A
C1068  C1072   1.381   .     A
C1068  F1098   1.359   .     S
C1068  C1078   1.397   .     A
C1069  C1073   1.382   .     A
C1069  C1078   1.397   .     A
C1069  F1099   1.359   .     S
C1070  C1077   1.397   .     A
C1070  C1074   1.382   .     A
C1070  F1100   1.359   .     S
C1071  F1101   1.359   .     S
C1071  C1075   1.403   .     A
C1072  F1102   1.358   .     S
C1072  C1076   1.403   .     A
C1073  C1076   1.403   .     A
C1073  F1103   1.359   .     S
C1074  C1075   1.403   .     A
C1074  F1104   1.358   .     S
C1078  C519    1.436   1_556 S
N1081  Zn1091  2.011   .     S
N1082  Zn1092  2.011   .     S
O1083  Zn1091  1.983   .     S
O1084  Zn1092  1.983   .     S
O1085  Zn1091  1.985   .     S
O1086  Zn1092  1.985   .     S
O1087  Zn1091  1.998   .     S
O1088  Zn1092  1.998   .     S
O1089  Zn1091  1.999   .     S
O1090  Zn1092  1.999   .     S
N1105  H1106   1.046   .     S
N1105  H1107   1.045   .     S
N1108  H1110   1.045   .     S
N1108  H1109   1.046   .     S
N1111  H1112   1.046   .     S
N1111  H1113   1.046   .     S
N1114  H1116   1.046   .     S
N1114  H1115   1.046   .     S
