data_str_m3_o1_o17_pcu_sym.170
_audit_creation_date              2020-01-03
_audit_creation_method            'Materials Studio'
_symmetry_space_group_name_H-M    'P1'
_symmetry_Int_Tables_number       1
_symmetry_cell_setting            triclinic
loop_
_symmetry_equiv_pos_as_xyz
  x,y,z
_cell_length_a                    32.1431
_cell_length_b                    29.5024
_cell_length_c                    29.8286
_cell_angle_alpha                 89.6482
_cell_angle_beta                  88.6718
_cell_angle_gamma                 90.6385
loop_
_atom_site_label
_atom_site_type_symbol
_atom_site_fract_x
_atom_site_fract_y
_atom_site_fract_z
_atom_site_U_iso_or_equiv
_atom_site_adp_type
_atom_site_occupancy
O1     O     0.10559   0.20487   0.24999   0.00000  Uiso   1.00
O2     O     0.22774   0.12846   0.25001   0.00000  Uiso   1.00
O3     O     0.22774   0.20487   0.25001   0.00000  Uiso   1.00
O4     O     0.10559   0.12846   0.25000   0.00000  Uiso   1.00
C5     C     0.08671   0.16627   0.24946   0.00000  Uiso   1.00
C6     C     0.24662   0.16706   0.25054   0.00000  Uiso   1.00
O7     O     0.16666   0.20489   0.18393   0.00000  Uiso   1.00
O8     O     0.16667   0.12844   0.31608   0.00000  Uiso   1.00
O9     O     0.16667   0.20489   0.31608   0.00000  Uiso   1.00
O10    O     0.16666   0.12844   0.18393   0.00000  Uiso   1.00
C11    C     0.16753   0.16677   0.16346   0.00000  Uiso   1.00
C12    C     0.16579   0.16657   0.33654   0.00000  Uiso   1.00
Zn13   Zn    0.16667   0.21771   0.25000   0.00000  Uiso   1.00
Zn14   Zn    0.16667   0.11563   0.25000   0.00000  Uiso   1.00
C15    C     0.19986   0.18445   0.40548   0.00000  Uiso   1.00
C16    C     0.13346   0.14890   0.09452   0.00000  Uiso   1.00
C17    C     0.16552   0.16663   0.38419   0.00000  Uiso   1.00
C18    C     0.16779   0.16671   0.11581   0.00000  Uiso   1.00
C19    C     0.13085   0.14987   0.40798   0.00000  Uiso   1.00
C20    C     0.20247   0.18348   0.09202   0.00000  Uiso   1.00
C21    C     0.13003   0.15086   0.45473   0.00000  Uiso   1.00
C22    C     0.20328   0.18250   0.04527   0.00000  Uiso   1.00
C23    C     0.16599   0.16702   0.47665   0.00000  Uiso   1.00
C24    C     0.16731   0.16633   0.02335   0.00000  Uiso   1.00
C25    C     0.20067   0.18409   0.45178   0.00000  Uiso   1.00
C26    C     0.13264   0.14926   0.04822   0.00000  Uiso   1.00
C27    C     0.09493   0.13529   0.48022   0.00000  Uiso   1.00
C28    C     0.23837   0.19808   0.01978   0.00000  Uiso   1.00
C29    C     0.09721   0.13367   0.02679   0.00000  Uiso   1.00
C30    C     0.23610   0.19970   0.47321   0.00000  Uiso   1.00
H31    H     0.22628   0.19746   0.38583   0.00000  Uiso   1.00
H32    H     0.10704   0.13588   0.11418   0.00000  Uiso   1.00
H33    H     0.10486   0.13635   0.38973   0.00000  Uiso   1.00
H34    H     0.22845   0.19699   0.11027   0.00000  Uiso   1.00
H35    H     0.07064   0.12133   0.04653   0.00000  Uiso   1.00
H36    H     0.26266   0.21205   0.45347   0.00000  Uiso   1.00
C37    C     0.02049   0.13266   0.27418   0.00000  Uiso   1.00
C38    C     0.31284   0.20067   0.22584   0.00000  Uiso   1.00
C39    C     0.31093   0.13480   0.27707   0.00000  Uiso   1.00
C40    C     0.02240   0.19853   0.22294   0.00000  Uiso   1.00
C41    C     0.29077   0.16816   0.25199   0.00000  Uiso   1.00
C42    C     0.04256   0.16517   0.24802   0.00000  Uiso   1.00
C43    C     0.18934   0.02407   0.28034   0.00000  Uiso   1.00
C44    C     0.14399   0.30926   0.21966   0.00000  Uiso   1.00
C45    C     0.14395   0.02390   0.21969   0.00000  Uiso   1.00
C46    C     0.18938   0.30943   0.28031   0.00000  Uiso   1.00
H47    H     0.20740   0.04232   0.30463   0.00000  Uiso   1.00
H48    H     0.12594   0.29101   0.19537   0.00000  Uiso   1.00
H49    H     0.12575   0.04202   0.19550   0.00000  Uiso   1.00
H50    H     0.20758   0.29132   0.30450   0.00000  Uiso   1.00
N51    N     0.16667   0.28573   0.25000   0.00000  Uiso   1.00
N52    N     0.16667   0.04760   0.25000   0.00000  Uiso   1.00
C53    C     0.05450   0.12317   0.46028   0.00000  Uiso   1.00
C54    C     0.03233   0.15576   0.43629   0.00000  Uiso   1.00
C55    C     0.32575   0.14570   0.42123   0.00000  Uiso   1.00
C56    C     0.30748   0.10338   0.43056   0.00000  Uiso   1.00
C57    C     0.32933   0.07077   0.45433   0.00000  Uiso   1.00
C58    C     0.03599   0.08059   0.46925   0.00000  Uiso   1.00
H59    H     0.04568   0.18911   0.42989   0.00000  Uiso   1.00
H60    H     0.30893   0.17080   0.40250   0.00000  Uiso   1.00
H61    H     0.27634   0.09584   0.41954   0.00000  Uiso   1.00
H62    H     0.31513   0.03802   0.46158   0.00000  Uiso   1.00
H63    H     0.05231   0.05527   0.48829   0.00000  Uiso   1.00
C64    C     0.27879   0.21024   0.03972   0.00000  Uiso   1.00
C65    C     0.29725   0.25285   0.03079   0.00000  Uiso   1.00
C66    C     0.00389   0.26272   0.04573   0.00000  Uiso   1.00
C67    C     0.02578   0.23013   0.06948   0.00000  Uiso   1.00
C68    C     0.00756   0.18776   0.07876   0.00000  Uiso   1.00
C69    C     0.30100   0.17766   0.06369   0.00000  Uiso   1.00
H70    H     0.28090   0.27816   0.01177   0.00000  Uiso   1.00
H71    H     0.01806   0.29550   0.03851   0.00000  Uiso   1.00
H72    H     0.05690   0.23769   0.08052   0.00000  Uiso   1.00
H73    H     0.02440   0.16267   0.09747   0.00000  Uiso   1.00
H74    H     0.28769   0.14428   0.07006   0.00000  Uiso   1.00
N75    N     0.04159   0.09882   0.29952   0.00000  Uiso   1.00
O76    O     0.04400   0.10266   0.34275   0.00000  Uiso   1.00
O77    O     0.05188   0.06081   0.28059   0.00000  Uiso   1.00
N78    N     0.29174   0.23452   0.20051   0.00000  Uiso   1.00
O79    O     0.28924   0.23064   0.15728   0.00000  Uiso   1.00
O80    O     0.28150   0.27255   0.21942   0.00000  Uiso   1.00
N81    N     0.28809   0.10431   0.30668   0.00000  Uiso   1.00
O82    O     0.29486   0.06092   0.30560   0.00000  Uiso   1.00
O83    O     0.26092   0.12003   0.33542   0.00000  Uiso   1.00
N84    N     0.04524   0.22901   0.19332   0.00000  Uiso   1.00
O85    O     0.03848   0.27240   0.19438   0.00000  Uiso   1.00
O86    O     0.07240   0.21328   0.16457   0.00000  Uiso   1.00
O87    O     0.43892   0.20487   0.24999   0.00000  Uiso   1.00
O88    O     0.56108   0.12846   0.25001   0.00000  Uiso   1.00
O89    O     0.56108   0.20487   0.25001   0.00000  Uiso   1.00
O90    O     0.43892   0.12846   0.25000   0.00000  Uiso   1.00
C91    C     0.42004   0.16627   0.24946   0.00000  Uiso   1.00
C92    C     0.57996   0.16706   0.25054   0.00000  Uiso   1.00
O93    O     0.49999   0.20489   0.18393   0.00000  Uiso   1.00
O94    O     0.50001   0.12844   0.31608   0.00000  Uiso   1.00
O95    O     0.50001   0.20489   0.31608   0.00000  Uiso   1.00
O96    O     0.49999   0.12844   0.18393   0.00000  Uiso   1.00
C97    C     0.50087   0.16677   0.16346   0.00000  Uiso   1.00
C98    C     0.49913   0.16657   0.33654   0.00000  Uiso   1.00
Zn99   Zn    0.50000   0.21771   0.25000   0.00000  Uiso   1.00
Zn100  Zn    0.50000   0.11563   0.25000   0.00000  Uiso   1.00
C101   C     0.53319   0.18445   0.40548   0.00000  Uiso   1.00
C102   C     0.46679   0.14890   0.09452   0.00000  Uiso   1.00
C103   C     0.49886   0.16663   0.38419   0.00000  Uiso   1.00
C104   C     0.50113   0.16671   0.11581   0.00000  Uiso   1.00
C105   C     0.46418   0.14987   0.40798   0.00000  Uiso   1.00
C106   C     0.53580   0.18348   0.09202   0.00000  Uiso   1.00
C107   C     0.46336   0.15086   0.45473   0.00000  Uiso   1.00
C108   C     0.53661   0.18250   0.04527   0.00000  Uiso   1.00
C109   C     0.49933   0.16702   0.47665   0.00000  Uiso   1.00
C110   C     0.50065   0.16633   0.02335   0.00000  Uiso   1.00
C111   C     0.53401   0.18409   0.45178   0.00000  Uiso   1.00
C112   C     0.46597   0.14926   0.04822   0.00000  Uiso   1.00
C113   C     0.42826   0.13529   0.48022   0.00000  Uiso   1.00
C114   C     0.57170   0.19808   0.01978   0.00000  Uiso   1.00
C115   C     0.43054   0.13367   0.02679   0.00000  Uiso   1.00
C116   C     0.56943   0.19970   0.47321   0.00000  Uiso   1.00
H117   H     0.55961   0.19746   0.38583   0.00000  Uiso   1.00
H118   H     0.44037   0.13588   0.11418   0.00000  Uiso   1.00
H119   H     0.43819   0.13635   0.38973   0.00000  Uiso   1.00
H120   H     0.56178   0.19699   0.11027   0.00000  Uiso   1.00
H121   H     0.40397   0.12133   0.04653   0.00000  Uiso   1.00
H122   H     0.59600   0.21205   0.45347   0.00000  Uiso   1.00
C123   C     0.35382   0.13266   0.27418   0.00000  Uiso   1.00
C124   C     0.64618   0.20067   0.22584   0.00000  Uiso   1.00
C125   C     0.64427   0.13480   0.27707   0.00000  Uiso   1.00
C126   C     0.35573   0.19853   0.22294   0.00000  Uiso   1.00
C127   C     0.62410   0.16816   0.25199   0.00000  Uiso   1.00
C128   C     0.37590   0.16517   0.24802   0.00000  Uiso   1.00
C129   C     0.52267   0.02407   0.28034   0.00000  Uiso   1.00
C130   C     0.47733   0.30926   0.21966   0.00000  Uiso   1.00
C131   C     0.47729   0.02390   0.21969   0.00000  Uiso   1.00
C132   C     0.52271   0.30943   0.28031   0.00000  Uiso   1.00
H133   H     0.54073   0.04232   0.30463   0.00000  Uiso   1.00
H134   H     0.45927   0.29101   0.19537   0.00000  Uiso   1.00
H135   H     0.45909   0.04202   0.19550   0.00000  Uiso   1.00
H136   H     0.54091   0.29132   0.30450   0.00000  Uiso   1.00
N137   N     0.50000   0.28573   0.25000   0.00000  Uiso   1.00
N138   N     0.50000   0.04760   0.25000   0.00000  Uiso   1.00
C139   C     0.38784   0.12317   0.46028   0.00000  Uiso   1.00
C140   C     0.36566   0.15576   0.43629   0.00000  Uiso   1.00
C141   C     0.65909   0.14570   0.42123   0.00000  Uiso   1.00
C142   C     0.64081   0.10338   0.43056   0.00000  Uiso   1.00
C143   C     0.66266   0.07077   0.45433   0.00000  Uiso   1.00
C144   C     0.36932   0.08059   0.46925   0.00000  Uiso   1.00
H145   H     0.37901   0.18911   0.42989   0.00000  Uiso   1.00
H146   H     0.64227   0.17080   0.40250   0.00000  Uiso   1.00
H147   H     0.60968   0.09584   0.41954   0.00000  Uiso   1.00
H148   H     0.64846   0.03802   0.46158   0.00000  Uiso   1.00
H149   H     0.38565   0.05527   0.48829   0.00000  Uiso   1.00
C150   C     0.61212   0.21024   0.03972   0.00000  Uiso   1.00
C151   C     0.63059   0.25285   0.03079   0.00000  Uiso   1.00
C152   C     0.33723   0.26272   0.04573   0.00000  Uiso   1.00
C153   C     0.35911   0.23013   0.06948   0.00000  Uiso   1.00
C154   C     0.34089   0.18776   0.07876   0.00000  Uiso   1.00
C155   C     0.63433   0.17766   0.06369   0.00000  Uiso   1.00
H156   H     0.61423   0.27816   0.01177   0.00000  Uiso   1.00
H157   H     0.35139   0.29550   0.03851   0.00000  Uiso   1.00
H158   H     0.39023   0.23769   0.08052   0.00000  Uiso   1.00
H159   H     0.35774   0.16267   0.09747   0.00000  Uiso   1.00
H160   H     0.62102   0.14428   0.07006   0.00000  Uiso   1.00
N161   N     0.37493   0.09882   0.29952   0.00000  Uiso   1.00
O162   O     0.37734   0.10266   0.34275   0.00000  Uiso   1.00
O163   O     0.38522   0.06081   0.28059   0.00000  Uiso   1.00
N164   N     0.62507   0.23452   0.20051   0.00000  Uiso   1.00
O165   O     0.62257   0.23064   0.15728   0.00000  Uiso   1.00
O166   O     0.61483   0.27255   0.21942   0.00000  Uiso   1.00
N167   N     0.62142   0.10431   0.30668   0.00000  Uiso   1.00
O168   O     0.62819   0.06092   0.30560   0.00000  Uiso   1.00
O169   O     0.59425   0.12003   0.33542   0.00000  Uiso   1.00
N170   N     0.37857   0.22901   0.19332   0.00000  Uiso   1.00
O171   O     0.37181   0.27240   0.19438   0.00000  Uiso   1.00
O172   O     0.40574   0.21328   0.16457   0.00000  Uiso   1.00
O173   O     0.77226   0.20487   0.24999   0.00000  Uiso   1.00
O174   O     0.89441   0.12846   0.25001   0.00000  Uiso   1.00
O175   O     0.89441   0.20487   0.25001   0.00000  Uiso   1.00
O176   O     0.77226   0.12846   0.25000   0.00000  Uiso   1.00
C177   C     0.75338   0.16627   0.24946   0.00000  Uiso   1.00
C178   C     0.91329   0.16706   0.25054   0.00000  Uiso   1.00
O179   O     0.83333   0.20489   0.18393   0.00000  Uiso   1.00
O180   O     0.83334   0.12844   0.31608   0.00000  Uiso   1.00
O181   O     0.83334   0.20489   0.31608   0.00000  Uiso   1.00
O182   O     0.83333   0.12844   0.18393   0.00000  Uiso   1.00
C183   C     0.83420   0.16677   0.16346   0.00000  Uiso   1.00
C184   C     0.83246   0.16657   0.33654   0.00000  Uiso   1.00
Zn185  Zn    0.83333   0.21771   0.25000   0.00000  Uiso   1.00
Zn186  Zn    0.83333   0.11563   0.25000   0.00000  Uiso   1.00
C187   C     0.86652   0.18445   0.40548   0.00000  Uiso   1.00
C188   C     0.80012   0.14890   0.09452   0.00000  Uiso   1.00
C189   C     0.83219   0.16663   0.38419   0.00000  Uiso   1.00
C190   C     0.83446   0.16671   0.11581   0.00000  Uiso   1.00
C191   C     0.79751   0.14987   0.40798   0.00000  Uiso   1.00
C192   C     0.86913   0.18348   0.09202   0.00000  Uiso   1.00
C193   C     0.79669   0.15086   0.45473   0.00000  Uiso   1.00
C194   C     0.86995   0.18250   0.04527   0.00000  Uiso   1.00
C195   C     0.83266   0.16702   0.47665   0.00000  Uiso   1.00
C196   C     0.83398   0.16633   0.02335   0.00000  Uiso   1.00
C197   C     0.86734   0.18409   0.45178   0.00000  Uiso   1.00
C198   C     0.79930   0.14926   0.04822   0.00000  Uiso   1.00
C199   C     0.76160   0.13529   0.48022   0.00000  Uiso   1.00
C200   C     0.90504   0.19808   0.01978   0.00000  Uiso   1.00
C201   C     0.76387   0.13367   0.02679   0.00000  Uiso   1.00
C202   C     0.90276   0.19970   0.47321   0.00000  Uiso   1.00
H203   H     0.89294   0.19746   0.38583   0.00000  Uiso   1.00
H204   H     0.77371   0.13588   0.11418   0.00000  Uiso   1.00
H205   H     0.77153   0.13635   0.38973   0.00000  Uiso   1.00
H206   H     0.89512   0.19699   0.11027   0.00000  Uiso   1.00
H207   H     0.73730   0.12133   0.04653   0.00000  Uiso   1.00
H208   H     0.92933   0.21205   0.45347   0.00000  Uiso   1.00
C209   C     0.68716   0.13266   0.27418   0.00000  Uiso   1.00
C210   C     0.97951   0.20067   0.22584   0.00000  Uiso   1.00
C211   C     0.97760   0.13480   0.27707   0.00000  Uiso   1.00
C212   C     0.68906   0.19853   0.22294   0.00000  Uiso   1.00
C213   C     0.95744   0.16816   0.25199   0.00000  Uiso   1.00
C214   C     0.70923   0.16517   0.24802   0.00000  Uiso   1.00
C215   C     0.85601   0.02407   0.28034   0.00000  Uiso   1.00
C216   C     0.81066   0.30926   0.21966   0.00000  Uiso   1.00
C217   C     0.81062   0.02390   0.21969   0.00000  Uiso   1.00
C218   C     0.85605   0.30943   0.28031   0.00000  Uiso   1.00
H219   H     0.87406   0.04232   0.30463   0.00000  Uiso   1.00
H220   H     0.79260   0.29101   0.19537   0.00000  Uiso   1.00
H221   H     0.79242   0.04202   0.19550   0.00000  Uiso   1.00
H222   H     0.87425   0.29132   0.30450   0.00000  Uiso   1.00
N223   N     0.83333   0.28573   0.25000   0.00000  Uiso   1.00
N224   N     0.83333   0.04760   0.25000   0.00000  Uiso   1.00
C225   C     0.72117   0.12317   0.46028   0.00000  Uiso   1.00
C226   C     0.69900   0.15576   0.43629   0.00000  Uiso   1.00
C227   C     0.99242   0.14570   0.42123   0.00000  Uiso   1.00
C228   C     0.97415   0.10338   0.43056   0.00000  Uiso   1.00
C229   C     0.99600   0.07077   0.45433   0.00000  Uiso   1.00
C230   C     0.70265   0.08059   0.46925   0.00000  Uiso   1.00
H231   H     0.71234   0.18911   0.42989   0.00000  Uiso   1.00
H232   H     0.97560   0.17080   0.40250   0.00000  Uiso   1.00
H233   H     0.94301   0.09584   0.41954   0.00000  Uiso   1.00
H234   H     0.98179   0.03802   0.46158   0.00000  Uiso   1.00
H235   H     0.71898   0.05527   0.48829   0.00000  Uiso   1.00
C236   C     0.94545   0.21024   0.03972   0.00000  Uiso   1.00
C237   C     0.96392   0.25285   0.03079   0.00000  Uiso   1.00
C238   C     0.67056   0.26272   0.04573   0.00000  Uiso   1.00
C239   C     0.69244   0.23013   0.06948   0.00000  Uiso   1.00
C240   C     0.67422   0.18776   0.07876   0.00000  Uiso   1.00
C241   C     0.96766   0.17766   0.06369   0.00000  Uiso   1.00
H242   H     0.94756   0.27816   0.01177   0.00000  Uiso   1.00
H243   H     0.68472   0.29550   0.03851   0.00000  Uiso   1.00
H244   H     0.72357   0.23769   0.08052   0.00000  Uiso   1.00
H245   H     0.69107   0.16267   0.09747   0.00000  Uiso   1.00
H246   H     0.95435   0.14428   0.07006   0.00000  Uiso   1.00
N247   N     0.70826   0.09882   0.29952   0.00000  Uiso   1.00
O248   O     0.71067   0.10266   0.34275   0.00000  Uiso   1.00
O249   O     0.71855   0.06081   0.28059   0.00000  Uiso   1.00
N250   N     0.95841   0.23452   0.20051   0.00000  Uiso   1.00
O251   O     0.95591   0.23064   0.15728   0.00000  Uiso   1.00
O252   O     0.94817   0.27255   0.21942   0.00000  Uiso   1.00
N253   N     0.95476   0.10431   0.30668   0.00000  Uiso   1.00
O254   O     0.96152   0.06092   0.30560   0.00000  Uiso   1.00
O255   O     0.92759   0.12003   0.33542   0.00000  Uiso   1.00
N256   N     0.71191   0.22901   0.19332   0.00000  Uiso   1.00
O257   O     0.70515   0.27240   0.19438   0.00000  Uiso   1.00
O258   O     0.73907   0.21328   0.16457   0.00000  Uiso   1.00
O259   O     0.10559   0.53821   0.24999   0.00000  Uiso   1.00
O260   O     0.22774   0.46179   0.25001   0.00000  Uiso   1.00
O261   O     0.22774   0.53821   0.25001   0.00000  Uiso   1.00
O262   O     0.10559   0.46179   0.25000   0.00000  Uiso   1.00
C263   C     0.08671   0.49961   0.24946   0.00000  Uiso   1.00
C264   C     0.24662   0.50039   0.25054   0.00000  Uiso   1.00
O265   O     0.16666   0.53823   0.18393   0.00000  Uiso   1.00
O266   O     0.16667   0.46177   0.31608   0.00000  Uiso   1.00
O267   O     0.16667   0.53823   0.31608   0.00000  Uiso   1.00
O268   O     0.16666   0.46177   0.18393   0.00000  Uiso   1.00
C269   C     0.16753   0.50010   0.16346   0.00000  Uiso   1.00
C270   C     0.16579   0.49990   0.33654   0.00000  Uiso   1.00
Zn271  Zn    0.16667   0.55104   0.25000   0.00000  Uiso   1.00
Zn272  Zn    0.16667   0.44896   0.25000   0.00000  Uiso   1.00
C273   C     0.19986   0.51778   0.40548   0.00000  Uiso   1.00
C274   C     0.13346   0.48223   0.09452   0.00000  Uiso   1.00
C275   C     0.16552   0.49996   0.38419   0.00000  Uiso   1.00
C276   C     0.16779   0.50004   0.11581   0.00000  Uiso   1.00
C277   C     0.13085   0.48321   0.40798   0.00000  Uiso   1.00
C278   C     0.20247   0.51681   0.09202   0.00000  Uiso   1.00
C279   C     0.13003   0.48419   0.45473   0.00000  Uiso   1.00
C280   C     0.20328   0.51584   0.04527   0.00000  Uiso   1.00
C281   C     0.16599   0.50036   0.47665   0.00000  Uiso   1.00
C282   C     0.16731   0.49967   0.02335   0.00000  Uiso   1.00
C283   C     0.20067   0.51743   0.45178   0.00000  Uiso   1.00
C284   C     0.13264   0.48260   0.04822   0.00000  Uiso   1.00
C285   C     0.09493   0.46863   0.48022   0.00000  Uiso   1.00
C286   C     0.23837   0.53141   0.01978   0.00000  Uiso   1.00
C287   C     0.09721   0.46700   0.02679   0.00000  Uiso   1.00
C288   C     0.23610   0.53303   0.47321   0.00000  Uiso   1.00
H289   H     0.22628   0.53080   0.38583   0.00000  Uiso   1.00
H290   H     0.10704   0.46921   0.11418   0.00000  Uiso   1.00
H291   H     0.10486   0.46969   0.38973   0.00000  Uiso   1.00
H292   H     0.22845   0.53033   0.11027   0.00000  Uiso   1.00
H293   H     0.07064   0.45467   0.04653   0.00000  Uiso   1.00
H294   H     0.26266   0.54538   0.45347   0.00000  Uiso   1.00
C295   C     0.02049   0.46600   0.27418   0.00000  Uiso   1.00
C296   C     0.31284   0.53401   0.22584   0.00000  Uiso   1.00
C297   C     0.31093   0.46814   0.27707   0.00000  Uiso   1.00
C298   C     0.02240   0.53186   0.22294   0.00000  Uiso   1.00
C299   C     0.29077   0.50149   0.25199   0.00000  Uiso   1.00
C300   C     0.04256   0.49851   0.24802   0.00000  Uiso   1.00
C301   C     0.18934   0.35741   0.28034   0.00000  Uiso   1.00
C302   C     0.14399   0.64259   0.21966   0.00000  Uiso   1.00
C303   C     0.14395   0.35724   0.21969   0.00000  Uiso   1.00
C304   C     0.18938   0.64277   0.28031   0.00000  Uiso   1.00
H305   H     0.20740   0.37566   0.30463   0.00000  Uiso   1.00
H306   H     0.12594   0.62434   0.19537   0.00000  Uiso   1.00
H307   H     0.12575   0.37535   0.19550   0.00000  Uiso   1.00
H308   H     0.20758   0.62465   0.30450   0.00000  Uiso   1.00
N309   N     0.16667   0.61907   0.25000   0.00000  Uiso   1.00
N310   N     0.16667   0.38093   0.25000   0.00000  Uiso   1.00
C311   C     0.05450   0.45651   0.46028   0.00000  Uiso   1.00
C312   C     0.03233   0.48910   0.43629   0.00000  Uiso   1.00
C313   C     0.32575   0.47904   0.42123   0.00000  Uiso   1.00
C314   C     0.30748   0.43671   0.43056   0.00000  Uiso   1.00
C315   C     0.32933   0.40410   0.45433   0.00000  Uiso   1.00
C316   C     0.03599   0.41392   0.46925   0.00000  Uiso   1.00
H317   H     0.04568   0.52245   0.42989   0.00000  Uiso   1.00
H318   H     0.30893   0.50413   0.40250   0.00000  Uiso   1.00
H319   H     0.27634   0.42918   0.41954   0.00000  Uiso   1.00
H320   H     0.31513   0.37135   0.46158   0.00000  Uiso   1.00
H321   H     0.05231   0.38860   0.48829   0.00000  Uiso   1.00
C322   C     0.27879   0.54357   0.03972   0.00000  Uiso   1.00
C323   C     0.29725   0.58619   0.03079   0.00000  Uiso   1.00
C324   C     0.00389   0.59605   0.04573   0.00000  Uiso   1.00
C325   C     0.02578   0.56346   0.06948   0.00000  Uiso   1.00
C326   C     0.00756   0.52110   0.07876   0.00000  Uiso   1.00
C327   C     0.30100   0.51099   0.06369   0.00000  Uiso   1.00
H328   H     0.28090   0.61150   0.01177   0.00000  Uiso   1.00
H329   H     0.01806   0.62883   0.03851   0.00000  Uiso   1.00
H330   H     0.05690   0.57103   0.08052   0.00000  Uiso   1.00
H331   H     0.02440   0.49601   0.09747   0.00000  Uiso   1.00
H332   H     0.28769   0.47762   0.07006   0.00000  Uiso   1.00
N333   N     0.04159   0.43216   0.29952   0.00000  Uiso   1.00
O334   O     0.04400   0.43599   0.34275   0.00000  Uiso   1.00
O335   O     0.05188   0.39415   0.28059   0.00000  Uiso   1.00
N336   N     0.29174   0.56785   0.20051   0.00000  Uiso   1.00
O337   O     0.28924   0.56397   0.15728   0.00000  Uiso   1.00
O338   O     0.28150   0.60588   0.21942   0.00000  Uiso   1.00
N339   N     0.28809   0.43764   0.30668   0.00000  Uiso   1.00
O340   O     0.29486   0.39426   0.30560   0.00000  Uiso   1.00
O341   O     0.26092   0.45336   0.33542   0.00000  Uiso   1.00
N342   N     0.04524   0.56235   0.19332   0.00000  Uiso   1.00
O343   O     0.03848   0.60573   0.19438   0.00000  Uiso   1.00
O344   O     0.07240   0.54662   0.16457   0.00000  Uiso   1.00
O345   O     0.43892   0.53821   0.24999   0.00000  Uiso   1.00
O346   O     0.56108   0.46179   0.25001   0.00000  Uiso   1.00
O347   O     0.56108   0.53821   0.25001   0.00000  Uiso   1.00
O348   O     0.43892   0.46179   0.25000   0.00000  Uiso   1.00
C349   C     0.42004   0.49961   0.24946   0.00000  Uiso   1.00
C350   C     0.57996   0.50039   0.25054   0.00000  Uiso   1.00
O351   O     0.49999   0.53823   0.18393   0.00000  Uiso   1.00
O352   O     0.50001   0.46177   0.31608   0.00000  Uiso   1.00
O353   O     0.50001   0.53823   0.31608   0.00000  Uiso   1.00
O354   O     0.49999   0.46177   0.18393   0.00000  Uiso   1.00
C355   C     0.50087   0.50010   0.16346   0.00000  Uiso   1.00
C356   C     0.49913   0.49990   0.33654   0.00000  Uiso   1.00
Zn357  Zn    0.50000   0.55104   0.25000   0.00000  Uiso   1.00
Zn358  Zn    0.50000   0.44896   0.25000   0.00000  Uiso   1.00
C359   C     0.53319   0.51778   0.40548   0.00000  Uiso   1.00
C360   C     0.46679   0.48223   0.09452   0.00000  Uiso   1.00
C361   C     0.49886   0.49996   0.38419   0.00000  Uiso   1.00
C362   C     0.50113   0.50004   0.11581   0.00000  Uiso   1.00
C363   C     0.46418   0.48321   0.40798   0.00000  Uiso   1.00
C364   C     0.53580   0.51681   0.09202   0.00000  Uiso   1.00
C365   C     0.46336   0.48419   0.45473   0.00000  Uiso   1.00
C366   C     0.53661   0.51584   0.04527   0.00000  Uiso   1.00
C367   C     0.49933   0.50036   0.47665   0.00000  Uiso   1.00
C368   C     0.50065   0.49967   0.02335   0.00000  Uiso   1.00
C369   C     0.53401   0.51743   0.45178   0.00000  Uiso   1.00
C370   C     0.46597   0.48260   0.04822   0.00000  Uiso   1.00
C371   C     0.42826   0.46863   0.48022   0.00000  Uiso   1.00
C372   C     0.57170   0.53141   0.01978   0.00000  Uiso   1.00
C373   C     0.43054   0.46700   0.02679   0.00000  Uiso   1.00
C374   C     0.56943   0.53303   0.47321   0.00000  Uiso   1.00
H375   H     0.55961   0.53080   0.38583   0.00000  Uiso   1.00
H376   H     0.44037   0.46921   0.11418   0.00000  Uiso   1.00
H377   H     0.43819   0.46969   0.38973   0.00000  Uiso   1.00
H378   H     0.56178   0.53033   0.11027   0.00000  Uiso   1.00
H379   H     0.40397   0.45467   0.04653   0.00000  Uiso   1.00
H380   H     0.59600   0.54538   0.45347   0.00000  Uiso   1.00
C381   C     0.35382   0.46600   0.27418   0.00000  Uiso   1.00
C382   C     0.64618   0.53401   0.22584   0.00000  Uiso   1.00
C383   C     0.64427   0.46814   0.27707   0.00000  Uiso   1.00
C384   C     0.35573   0.53186   0.22294   0.00000  Uiso   1.00
C385   C     0.62410   0.50149   0.25199   0.00000  Uiso   1.00
C386   C     0.37590   0.49851   0.24802   0.00000  Uiso   1.00
C387   C     0.52267   0.35741   0.28034   0.00000  Uiso   1.00
C388   C     0.47733   0.64259   0.21966   0.00000  Uiso   1.00
C389   C     0.47729   0.35724   0.21969   0.00000  Uiso   1.00
C390   C     0.52271   0.64277   0.28031   0.00000  Uiso   1.00
H391   H     0.54073   0.37566   0.30463   0.00000  Uiso   1.00
H392   H     0.45927   0.62434   0.19537   0.00000  Uiso   1.00
H393   H     0.45909   0.37535   0.19550   0.00000  Uiso   1.00
H394   H     0.54091   0.62465   0.30450   0.00000  Uiso   1.00
N395   N     0.50000   0.61907   0.25000   0.00000  Uiso   1.00
N396   N     0.50000   0.38093   0.25000   0.00000  Uiso   1.00
C397   C     0.38784   0.45651   0.46028   0.00000  Uiso   1.00
C398   C     0.36566   0.48910   0.43629   0.00000  Uiso   1.00
C399   C     0.65909   0.47904   0.42123   0.00000  Uiso   1.00
C400   C     0.64081   0.43671   0.43056   0.00000  Uiso   1.00
C401   C     0.66266   0.40410   0.45433   0.00000  Uiso   1.00
C402   C     0.36932   0.41392   0.46925   0.00000  Uiso   1.00
H403   H     0.37901   0.52245   0.42989   0.00000  Uiso   1.00
H404   H     0.64227   0.50413   0.40250   0.00000  Uiso   1.00
H405   H     0.60968   0.42918   0.41954   0.00000  Uiso   1.00
H406   H     0.64846   0.37135   0.46158   0.00000  Uiso   1.00
H407   H     0.38565   0.38860   0.48829   0.00000  Uiso   1.00
C408   C     0.61212   0.54357   0.03972   0.00000  Uiso   1.00
C409   C     0.63059   0.58619   0.03079   0.00000  Uiso   1.00
C410   C     0.33723   0.59605   0.04573   0.00000  Uiso   1.00
C411   C     0.35911   0.56346   0.06948   0.00000  Uiso   1.00
C412   C     0.34089   0.52110   0.07876   0.00000  Uiso   1.00
C413   C     0.63433   0.51099   0.06369   0.00000  Uiso   1.00
H414   H     0.61423   0.61150   0.01177   0.00000  Uiso   1.00
H415   H     0.35139   0.62883   0.03851   0.00000  Uiso   1.00
H416   H     0.39023   0.57103   0.08052   0.00000  Uiso   1.00
H417   H     0.35774   0.49601   0.09747   0.00000  Uiso   1.00
H418   H     0.62102   0.47762   0.07006   0.00000  Uiso   1.00
N419   N     0.37493   0.43216   0.29952   0.00000  Uiso   1.00
O420   O     0.37734   0.43599   0.34275   0.00000  Uiso   1.00
O421   O     0.38522   0.39415   0.28059   0.00000  Uiso   1.00
N422   N     0.62507   0.56785   0.20051   0.00000  Uiso   1.00
O423   O     0.62257   0.56397   0.15728   0.00000  Uiso   1.00
O424   O     0.61483   0.60588   0.21942   0.00000  Uiso   1.00
N425   N     0.62142   0.43764   0.30668   0.00000  Uiso   1.00
O426   O     0.62819   0.39426   0.30560   0.00000  Uiso   1.00
O427   O     0.59425   0.45336   0.33542   0.00000  Uiso   1.00
N428   N     0.37857   0.56235   0.19332   0.00000  Uiso   1.00
O429   O     0.37181   0.60573   0.19438   0.00000  Uiso   1.00
O430   O     0.40574   0.54662   0.16457   0.00000  Uiso   1.00
O431   O     0.77226   0.53821   0.24999   0.00000  Uiso   1.00
O432   O     0.89441   0.46179   0.25001   0.00000  Uiso   1.00
O433   O     0.89441   0.53821   0.25001   0.00000  Uiso   1.00
O434   O     0.77226   0.46179   0.25000   0.00000  Uiso   1.00
C435   C     0.75338   0.49961   0.24946   0.00000  Uiso   1.00
C436   C     0.91329   0.50039   0.25054   0.00000  Uiso   1.00
O437   O     0.83333   0.53823   0.18393   0.00000  Uiso   1.00
O438   O     0.83334   0.46177   0.31608   0.00000  Uiso   1.00
O439   O     0.83334   0.53823   0.31608   0.00000  Uiso   1.00
O440   O     0.83333   0.46177   0.18393   0.00000  Uiso   1.00
C441   C     0.83420   0.50010   0.16346   0.00000  Uiso   1.00
C442   C     0.83246   0.49990   0.33654   0.00000  Uiso   1.00
Zn443  Zn    0.83333   0.55104   0.25000   0.00000  Uiso   1.00
Zn444  Zn    0.83333   0.44896   0.25000   0.00000  Uiso   1.00
C445   C     0.86652   0.51778   0.40548   0.00000  Uiso   1.00
C446   C     0.80012   0.48223   0.09452   0.00000  Uiso   1.00
C447   C     0.83219   0.49996   0.38419   0.00000  Uiso   1.00
C448   C     0.83446   0.50004   0.11581   0.00000  Uiso   1.00
C449   C     0.79751   0.48321   0.40798   0.00000  Uiso   1.00
C450   C     0.86913   0.51681   0.09202   0.00000  Uiso   1.00
C451   C     0.79669   0.48419   0.45473   0.00000  Uiso   1.00
C452   C     0.86995   0.51584   0.04527   0.00000  Uiso   1.00
C453   C     0.83266   0.50036   0.47665   0.00000  Uiso   1.00
C454   C     0.83398   0.49967   0.02335   0.00000  Uiso   1.00
C455   C     0.86734   0.51743   0.45178   0.00000  Uiso   1.00
C456   C     0.79930   0.48260   0.04822   0.00000  Uiso   1.00
C457   C     0.76160   0.46863   0.48022   0.00000  Uiso   1.00
C458   C     0.90504   0.53141   0.01978   0.00000  Uiso   1.00
C459   C     0.76387   0.46700   0.02679   0.00000  Uiso   1.00
C460   C     0.90276   0.53303   0.47321   0.00000  Uiso   1.00
H461   H     0.89294   0.53080   0.38583   0.00000  Uiso   1.00
H462   H     0.77371   0.46921   0.11418   0.00000  Uiso   1.00
H463   H     0.77153   0.46969   0.38973   0.00000  Uiso   1.00
H464   H     0.89512   0.53033   0.11027   0.00000  Uiso   1.00
H465   H     0.73730   0.45467   0.04653   0.00000  Uiso   1.00
H466   H     0.92933   0.54538   0.45347   0.00000  Uiso   1.00
C467   C     0.68716   0.46600   0.27418   0.00000  Uiso   1.00
C468   C     0.97951   0.53401   0.22584   0.00000  Uiso   1.00
C469   C     0.97760   0.46814   0.27707   0.00000  Uiso   1.00
C470   C     0.68906   0.53186   0.22294   0.00000  Uiso   1.00
C471   C     0.95744   0.50149   0.25199   0.00000  Uiso   1.00
C472   C     0.70923   0.49851   0.24802   0.00000  Uiso   1.00
C473   C     0.85601   0.35741   0.28034   0.00000  Uiso   1.00
C474   C     0.81066   0.64259   0.21966   0.00000  Uiso   1.00
C475   C     0.81062   0.35724   0.21969   0.00000  Uiso   1.00
C476   C     0.85605   0.64277   0.28031   0.00000  Uiso   1.00
H477   H     0.87406   0.37566   0.30463   0.00000  Uiso   1.00
H478   H     0.79260   0.62434   0.19537   0.00000  Uiso   1.00
H479   H     0.79242   0.37535   0.19550   0.00000  Uiso   1.00
H480   H     0.87425   0.62465   0.30450   0.00000  Uiso   1.00
N481   N     0.83333   0.61907   0.25000   0.00000  Uiso   1.00
N482   N     0.83333   0.38093   0.25000   0.00000  Uiso   1.00
C483   C     0.72117   0.45651   0.46028   0.00000  Uiso   1.00
C484   C     0.69900   0.48910   0.43629   0.00000  Uiso   1.00
C485   C     0.99242   0.47904   0.42123   0.00000  Uiso   1.00
C486   C     0.97415   0.43671   0.43056   0.00000  Uiso   1.00
C487   C     0.99600   0.40410   0.45433   0.00000  Uiso   1.00
C488   C     0.70265   0.41392   0.46925   0.00000  Uiso   1.00
H489   H     0.71234   0.52245   0.42989   0.00000  Uiso   1.00
H490   H     0.97560   0.50413   0.40250   0.00000  Uiso   1.00
H491   H     0.94301   0.42918   0.41954   0.00000  Uiso   1.00
H492   H     0.98179   0.37135   0.46158   0.00000  Uiso   1.00
H493   H     0.71898   0.38860   0.48829   0.00000  Uiso   1.00
C494   C     0.94545   0.54357   0.03972   0.00000  Uiso   1.00
C495   C     0.96392   0.58619   0.03079   0.00000  Uiso   1.00
C496   C     0.67056   0.59605   0.04573   0.00000  Uiso   1.00
C497   C     0.69244   0.56346   0.06948   0.00000  Uiso   1.00
C498   C     0.67422   0.52110   0.07876   0.00000  Uiso   1.00
C499   C     0.96766   0.51099   0.06369   0.00000  Uiso   1.00
H500   H     0.94756   0.61150   0.01177   0.00000  Uiso   1.00
H501   H     0.68472   0.62883   0.03851   0.00000  Uiso   1.00
H502   H     0.72357   0.57103   0.08052   0.00000  Uiso   1.00
H503   H     0.69107   0.49601   0.09747   0.00000  Uiso   1.00
H504   H     0.95435   0.47762   0.07006   0.00000  Uiso   1.00
N505   N     0.70826   0.43216   0.29952   0.00000  Uiso   1.00
O506   O     0.71067   0.43599   0.34275   0.00000  Uiso   1.00
O507   O     0.71855   0.39415   0.28059   0.00000  Uiso   1.00
N508   N     0.95841   0.56785   0.20051   0.00000  Uiso   1.00
O509   O     0.95591   0.56397   0.15728   0.00000  Uiso   1.00
O510   O     0.94817   0.60588   0.21942   0.00000  Uiso   1.00
N511   N     0.95476   0.43764   0.30668   0.00000  Uiso   1.00
O512   O     0.96152   0.39426   0.30560   0.00000  Uiso   1.00
O513   O     0.92759   0.45336   0.33542   0.00000  Uiso   1.00
N514   N     0.71191   0.56235   0.19332   0.00000  Uiso   1.00
O515   O     0.70515   0.60573   0.19438   0.00000  Uiso   1.00
O516   O     0.73907   0.54662   0.16457   0.00000  Uiso   1.00
O517   O     0.10559   0.87154   0.24999   0.00000  Uiso   1.00
O518   O     0.22774   0.79513   0.25001   0.00000  Uiso   1.00
O519   O     0.22774   0.87154   0.25001   0.00000  Uiso   1.00
O520   O     0.10559   0.79513   0.25000   0.00000  Uiso   1.00
C521   C     0.08671   0.83294   0.24946   0.00000  Uiso   1.00
C522   C     0.24662   0.83373   0.25054   0.00000  Uiso   1.00
O523   O     0.16666   0.87156   0.18393   0.00000  Uiso   1.00
O524   O     0.16667   0.79511   0.31608   0.00000  Uiso   1.00
O525   O     0.16667   0.87156   0.31608   0.00000  Uiso   1.00
O526   O     0.16666   0.79511   0.18393   0.00000  Uiso   1.00
C527   C     0.16753   0.83343   0.16346   0.00000  Uiso   1.00
C528   C     0.16579   0.83323   0.33654   0.00000  Uiso   1.00
Zn529  Zn    0.16667   0.88437   0.25000   0.00000  Uiso   1.00
Zn530  Zn    0.16667   0.78229   0.25000   0.00000  Uiso   1.00
C531   C     0.19986   0.85111   0.40548   0.00000  Uiso   1.00
C532   C     0.13346   0.81556   0.09452   0.00000  Uiso   1.00
C533   C     0.16552   0.83329   0.38419   0.00000  Uiso   1.00
C534   C     0.16779   0.83338   0.11581   0.00000  Uiso   1.00
C535   C     0.13085   0.81654   0.40798   0.00000  Uiso   1.00
C536   C     0.20247   0.85014   0.09202   0.00000  Uiso   1.00
C537   C     0.13003   0.81752   0.45473   0.00000  Uiso   1.00
C538   C     0.20328   0.84917   0.04527   0.00000  Uiso   1.00
C539   C     0.16599   0.83369   0.47665   0.00000  Uiso   1.00
C540   C     0.16731   0.83300   0.02335   0.00000  Uiso   1.00
C541   C     0.20067   0.85076   0.45178   0.00000  Uiso   1.00
C542   C     0.13264   0.81593   0.04822   0.00000  Uiso   1.00
C543   C     0.09493   0.80196   0.48022   0.00000  Uiso   1.00
C544   C     0.23837   0.86475   0.01978   0.00000  Uiso   1.00
C545   C     0.09721   0.80034   0.02679   0.00000  Uiso   1.00
C546   C     0.23610   0.86637   0.47321   0.00000  Uiso   1.00
H547   H     0.22628   0.86413   0.38583   0.00000  Uiso   1.00
H548   H     0.10704   0.80255   0.11418   0.00000  Uiso   1.00
H549   H     0.10486   0.80302   0.38973   0.00000  Uiso   1.00
H550   H     0.22845   0.86366   0.11027   0.00000  Uiso   1.00
H551   H     0.07064   0.78800   0.04653   0.00000  Uiso   1.00
H552   H     0.26266   0.87872   0.45347   0.00000  Uiso   1.00
C553   C     0.02049   0.79933   0.27418   0.00000  Uiso   1.00
C554   C     0.31284   0.86734   0.22584   0.00000  Uiso   1.00
C555   C     0.31093   0.80147   0.27707   0.00000  Uiso   1.00
C556   C     0.02240   0.86519   0.22294   0.00000  Uiso   1.00
C557   C     0.29077   0.83483   0.25199   0.00000  Uiso   1.00
C558   C     0.04256   0.83184   0.24802   0.00000  Uiso   1.00
C559   C     0.18934   0.69074   0.28034   0.00000  Uiso   1.00
C560   C     0.14399   0.97593   0.21966   0.00000  Uiso   1.00
C561   C     0.14395   0.69057   0.21969   0.00000  Uiso   1.00
C562   C     0.18938   0.97610   0.28031   0.00000  Uiso   1.00
H563   H     0.20740   0.70899   0.30463   0.00000  Uiso   1.00
H564   H     0.12594   0.95768   0.19537   0.00000  Uiso   1.00
H565   H     0.12575   0.70868   0.19550   0.00000  Uiso   1.00
H566   H     0.20758   0.95798   0.30450   0.00000  Uiso   1.00
N567   N     0.16667   0.95240   0.25000   0.00000  Uiso   1.00
N568   N     0.16667   0.71427   0.25000   0.00000  Uiso   1.00
C569   C     0.05450   0.78984   0.46028   0.00000  Uiso   1.00
C570   C     0.03233   0.82243   0.43629   0.00000  Uiso   1.00
C571   C     0.32575   0.81237   0.42123   0.00000  Uiso   1.00
C572   C     0.30748   0.77004   0.43056   0.00000  Uiso   1.00
C573   C     0.32933   0.73744   0.45433   0.00000  Uiso   1.00
C574   C     0.03599   0.74726   0.46925   0.00000  Uiso   1.00
H575   H     0.04568   0.85578   0.42989   0.00000  Uiso   1.00
H576   H     0.30893   0.83747   0.40250   0.00000  Uiso   1.00
H577   H     0.27634   0.76251   0.41954   0.00000  Uiso   1.00
H578   H     0.31513   0.70468   0.46158   0.00000  Uiso   1.00
H579   H     0.05231   0.72194   0.48829   0.00000  Uiso   1.00
C580   C     0.27879   0.87690   0.03972   0.00000  Uiso   1.00
C581   C     0.29725   0.91952   0.03079   0.00000  Uiso   1.00
C582   C     0.00389   0.92939   0.04573   0.00000  Uiso   1.00
C583   C     0.02578   0.89679   0.06948   0.00000  Uiso   1.00
C584   C     0.00756   0.85443   0.07876   0.00000  Uiso   1.00
C585   C     0.30100   0.84432   0.06369   0.00000  Uiso   1.00
H586   H     0.28090   0.94483   0.01177   0.00000  Uiso   1.00
H587   H     0.01806   0.96216   0.03851   0.00000  Uiso   1.00
H588   H     0.05690   0.90436   0.08052   0.00000  Uiso   1.00
H589   H     0.02440   0.82934   0.09747   0.00000  Uiso   1.00
H590   H     0.28769   0.81095   0.07006   0.00000  Uiso   1.00
N591   N     0.04159   0.76549   0.29952   0.00000  Uiso   1.00
O592   O     0.04400   0.76932   0.34275   0.00000  Uiso   1.00
O593   O     0.05188   0.72748   0.28059   0.00000  Uiso   1.00
N594   N     0.29174   0.90118   0.20051   0.00000  Uiso   1.00
O595   O     0.28924   0.89731   0.15728   0.00000  Uiso   1.00
O596   O     0.28150   0.93922   0.21942   0.00000  Uiso   1.00
N597   N     0.28809   0.77098   0.30668   0.00000  Uiso   1.00
O598   O     0.29486   0.72759   0.30560   0.00000  Uiso   1.00
O599   O     0.26092   0.78669   0.33542   0.00000  Uiso   1.00
N600   N     0.04524   0.89568   0.19332   0.00000  Uiso   1.00
O601   O     0.03848   0.93907   0.19438   0.00000  Uiso   1.00
O602   O     0.07240   0.87995   0.16457   0.00000  Uiso   1.00
O603   O     0.43892   0.87154   0.24999   0.00000  Uiso   1.00
O604   O     0.56108   0.79513   0.25001   0.00000  Uiso   1.00
O605   O     0.56108   0.87154   0.25001   0.00000  Uiso   1.00
O606   O     0.43892   0.79513   0.25000   0.00000  Uiso   1.00
C607   C     0.42004   0.83294   0.24946   0.00000  Uiso   1.00
C608   C     0.57996   0.83373   0.25054   0.00000  Uiso   1.00
O609   O     0.49999   0.87156   0.18393   0.00000  Uiso   1.00
O610   O     0.50001   0.79511   0.31608   0.00000  Uiso   1.00
O611   O     0.50001   0.87156   0.31608   0.00000  Uiso   1.00
O612   O     0.49999   0.79511   0.18393   0.00000  Uiso   1.00
C613   C     0.50087   0.83343   0.16346   0.00000  Uiso   1.00
C614   C     0.49913   0.83323   0.33654   0.00000  Uiso   1.00
Zn615  Zn    0.50000   0.88437   0.25000   0.00000  Uiso   1.00
Zn616  Zn    0.50000   0.78229   0.25000   0.00000  Uiso   1.00
C617   C     0.53319   0.85111   0.40548   0.00000  Uiso   1.00
C618   C     0.46679   0.81556   0.09452   0.00000  Uiso   1.00
C619   C     0.49886   0.83329   0.38419   0.00000  Uiso   1.00
C620   C     0.50113   0.83338   0.11581   0.00000  Uiso   1.00
C621   C     0.46418   0.81654   0.40798   0.00000  Uiso   1.00
C622   C     0.53580   0.85014   0.09202   0.00000  Uiso   1.00
C623   C     0.46336   0.81752   0.45473   0.00000  Uiso   1.00
C624   C     0.53661   0.84917   0.04527   0.00000  Uiso   1.00
C625   C     0.49933   0.83369   0.47665   0.00000  Uiso   1.00
C626   C     0.50065   0.83300   0.02335   0.00000  Uiso   1.00
C627   C     0.53401   0.85076   0.45178   0.00000  Uiso   1.00
C628   C     0.46597   0.81593   0.04822   0.00000  Uiso   1.00
C629   C     0.42826   0.80196   0.48022   0.00000  Uiso   1.00
C630   C     0.57170   0.86475   0.01978   0.00000  Uiso   1.00
C631   C     0.43054   0.80034   0.02679   0.00000  Uiso   1.00
C632   C     0.56943   0.86637   0.47321   0.00000  Uiso   1.00
H633   H     0.55961   0.86413   0.38583   0.00000  Uiso   1.00
H634   H     0.44037   0.80255   0.11418   0.00000  Uiso   1.00
H635   H     0.43819   0.80302   0.38973   0.00000  Uiso   1.00
H636   H     0.56178   0.86366   0.11027   0.00000  Uiso   1.00
H637   H     0.40397   0.78800   0.04653   0.00000  Uiso   1.00
H638   H     0.59600   0.87872   0.45347   0.00000  Uiso   1.00
C639   C     0.35382   0.79933   0.27418   0.00000  Uiso   1.00
C640   C     0.64618   0.86734   0.22584   0.00000  Uiso   1.00
C641   C     0.64427   0.80147   0.27707   0.00000  Uiso   1.00
C642   C     0.35573   0.86519   0.22294   0.00000  Uiso   1.00
C643   C     0.62410   0.83483   0.25199   0.00000  Uiso   1.00
C644   C     0.37590   0.83184   0.24802   0.00000  Uiso   1.00
C645   C     0.52267   0.69074   0.28034   0.00000  Uiso   1.00
C646   C     0.47733   0.97593   0.21966   0.00000  Uiso   1.00
C647   C     0.47729   0.69057   0.21969   0.00000  Uiso   1.00
C648   C     0.52271   0.97610   0.28031   0.00000  Uiso   1.00
H649   H     0.54073   0.70899   0.30463   0.00000  Uiso   1.00
H650   H     0.45927   0.95768   0.19537   0.00000  Uiso   1.00
H651   H     0.45909   0.70868   0.19550   0.00000  Uiso   1.00
H652   H     0.54091   0.95798   0.30450   0.00000  Uiso   1.00
N653   N     0.50000   0.95240   0.25000   0.00000  Uiso   1.00
N654   N     0.50000   0.71427   0.25000   0.00000  Uiso   1.00
C655   C     0.38784   0.78984   0.46028   0.00000  Uiso   1.00
C656   C     0.36566   0.82243   0.43629   0.00000  Uiso   1.00
C657   C     0.65909   0.81237   0.42123   0.00000  Uiso   1.00
C658   C     0.64081   0.77004   0.43056   0.00000  Uiso   1.00
C659   C     0.66266   0.73744   0.45433   0.00000  Uiso   1.00
C660   C     0.36932   0.74726   0.46925   0.00000  Uiso   1.00
H661   H     0.37901   0.85578   0.42989   0.00000  Uiso   1.00
H662   H     0.64227   0.83747   0.40250   0.00000  Uiso   1.00
H663   H     0.60968   0.76251   0.41954   0.00000  Uiso   1.00
H664   H     0.64846   0.70468   0.46158   0.00000  Uiso   1.00
H665   H     0.38565   0.72194   0.48829   0.00000  Uiso   1.00
C666   C     0.61212   0.87690   0.03972   0.00000  Uiso   1.00
C667   C     0.63059   0.91952   0.03079   0.00000  Uiso   1.00
C668   C     0.33723   0.92939   0.04573   0.00000  Uiso   1.00
C669   C     0.35911   0.89679   0.06948   0.00000  Uiso   1.00
C670   C     0.34089   0.85443   0.07876   0.00000  Uiso   1.00
C671   C     0.63433   0.84432   0.06369   0.00000  Uiso   1.00
H672   H     0.61423   0.94483   0.01177   0.00000  Uiso   1.00
H673   H     0.35139   0.96216   0.03851   0.00000  Uiso   1.00
H674   H     0.39023   0.90436   0.08052   0.00000  Uiso   1.00
H675   H     0.35774   0.82934   0.09747   0.00000  Uiso   1.00
H676   H     0.62102   0.81095   0.07006   0.00000  Uiso   1.00
N677   N     0.37493   0.76549   0.29952   0.00000  Uiso   1.00
O678   O     0.37734   0.76932   0.34275   0.00000  Uiso   1.00
O679   O     0.38522   0.72748   0.28059   0.00000  Uiso   1.00
N680   N     0.62507   0.90118   0.20051   0.00000  Uiso   1.00
O681   O     0.62257   0.89731   0.15728   0.00000  Uiso   1.00
O682   O     0.61483   0.93922   0.21942   0.00000  Uiso   1.00
N683   N     0.62142   0.77098   0.30668   0.00000  Uiso   1.00
O684   O     0.62819   0.72759   0.30560   0.00000  Uiso   1.00
O685   O     0.59425   0.78669   0.33542   0.00000  Uiso   1.00
N686   N     0.37857   0.89568   0.19332   0.00000  Uiso   1.00
O687   O     0.37181   0.93907   0.19438   0.00000  Uiso   1.00
O688   O     0.40574   0.87995   0.16457   0.00000  Uiso   1.00
O689   O     0.77226   0.87154   0.24999   0.00000  Uiso   1.00
O690   O     0.89441   0.79513   0.25001   0.00000  Uiso   1.00
O691   O     0.89441   0.87154   0.25001   0.00000  Uiso   1.00
O692   O     0.77226   0.79513   0.25000   0.00000  Uiso   1.00
C693   C     0.75338   0.83294   0.24946   0.00000  Uiso   1.00
C694   C     0.91329   0.83373   0.25054   0.00000  Uiso   1.00
O695   O     0.83333   0.87156   0.18393   0.00000  Uiso   1.00
O696   O     0.83334   0.79511   0.31608   0.00000  Uiso   1.00
O697   O     0.83334   0.87156   0.31608   0.00000  Uiso   1.00
O698   O     0.83333   0.79511   0.18393   0.00000  Uiso   1.00
C699   C     0.83420   0.83343   0.16346   0.00000  Uiso   1.00
C700   C     0.83246   0.83323   0.33654   0.00000  Uiso   1.00
Zn701  Zn    0.83333   0.88437   0.25000   0.00000  Uiso   1.00
Zn702  Zn    0.83333   0.78229   0.25000   0.00000  Uiso   1.00
C703   C     0.86652   0.85111   0.40548   0.00000  Uiso   1.00
C704   C     0.80012   0.81556   0.09452   0.00000  Uiso   1.00
C705   C     0.83219   0.83329   0.38419   0.00000  Uiso   1.00
C706   C     0.83446   0.83338   0.11581   0.00000  Uiso   1.00
C707   C     0.79751   0.81654   0.40798   0.00000  Uiso   1.00
C708   C     0.86913   0.85014   0.09202   0.00000  Uiso   1.00
C709   C     0.79669   0.81752   0.45473   0.00000  Uiso   1.00
C710   C     0.86995   0.84917   0.04527   0.00000  Uiso   1.00
C711   C     0.83266   0.83369   0.47665   0.00000  Uiso   1.00
C712   C     0.83398   0.83300   0.02335   0.00000  Uiso   1.00
C713   C     0.86734   0.85076   0.45178   0.00000  Uiso   1.00
C714   C     0.79930   0.81593   0.04822   0.00000  Uiso   1.00
C715   C     0.76160   0.80196   0.48022   0.00000  Uiso   1.00
C716   C     0.90504   0.86475   0.01978   0.00000  Uiso   1.00
C717   C     0.76387   0.80034   0.02679   0.00000  Uiso   1.00
C718   C     0.90276   0.86637   0.47321   0.00000  Uiso   1.00
H719   H     0.89294   0.86413   0.38583   0.00000  Uiso   1.00
H720   H     0.77371   0.80255   0.11418   0.00000  Uiso   1.00
H721   H     0.77153   0.80302   0.38973   0.00000  Uiso   1.00
H722   H     0.89512   0.86366   0.11027   0.00000  Uiso   1.00
H723   H     0.73730   0.78800   0.04653   0.00000  Uiso   1.00
H724   H     0.92933   0.87872   0.45347   0.00000  Uiso   1.00
C725   C     0.68716   0.79933   0.27418   0.00000  Uiso   1.00
C726   C     0.97951   0.86734   0.22584   0.00000  Uiso   1.00
C727   C     0.97760   0.80147   0.27707   0.00000  Uiso   1.00
C728   C     0.68906   0.86519   0.22294   0.00000  Uiso   1.00
C729   C     0.95744   0.83483   0.25199   0.00000  Uiso   1.00
C730   C     0.70923   0.83184   0.24802   0.00000  Uiso   1.00
C731   C     0.85601   0.69074   0.28034   0.00000  Uiso   1.00
C732   C     0.81066   0.97593   0.21966   0.00000  Uiso   1.00
C733   C     0.81062   0.69057   0.21969   0.00000  Uiso   1.00
C734   C     0.85605   0.97610   0.28031   0.00000  Uiso   1.00
H735   H     0.87406   0.70899   0.30463   0.00000  Uiso   1.00
H736   H     0.79260   0.95768   0.19537   0.00000  Uiso   1.00
H737   H     0.79242   0.70868   0.19550   0.00000  Uiso   1.00
H738   H     0.87425   0.95798   0.30450   0.00000  Uiso   1.00
N739   N     0.83333   0.95240   0.25000   0.00000  Uiso   1.00
N740   N     0.83333   0.71427   0.25000   0.00000  Uiso   1.00
C741   C     0.72117   0.78984   0.46028   0.00000  Uiso   1.00
C742   C     0.69900   0.82243   0.43629   0.00000  Uiso   1.00
C743   C     0.99242   0.81237   0.42123   0.00000  Uiso   1.00
C744   C     0.97415   0.77004   0.43056   0.00000  Uiso   1.00
C745   C     0.99600   0.73744   0.45433   0.00000  Uiso   1.00
C746   C     0.70265   0.74726   0.46925   0.00000  Uiso   1.00
H747   H     0.71234   0.85578   0.42989   0.00000  Uiso   1.00
H748   H     0.97560   0.83747   0.40250   0.00000  Uiso   1.00
H749   H     0.94301   0.76251   0.41954   0.00000  Uiso   1.00
H750   H     0.98179   0.70468   0.46158   0.00000  Uiso   1.00
H751   H     0.71898   0.72194   0.48829   0.00000  Uiso   1.00
C752   C     0.94545   0.87690   0.03972   0.00000  Uiso   1.00
C753   C     0.96392   0.91952   0.03079   0.00000  Uiso   1.00
C754   C     0.67056   0.92939   0.04573   0.00000  Uiso   1.00
C755   C     0.69244   0.89679   0.06948   0.00000  Uiso   1.00
C756   C     0.67422   0.85443   0.07876   0.00000  Uiso   1.00
C757   C     0.96766   0.84432   0.06369   0.00000  Uiso   1.00
H758   H     0.94756   0.94483   0.01177   0.00000  Uiso   1.00
H759   H     0.68472   0.96216   0.03851   0.00000  Uiso   1.00
H760   H     0.72357   0.90436   0.08052   0.00000  Uiso   1.00
H761   H     0.69107   0.82934   0.09747   0.00000  Uiso   1.00
H762   H     0.95435   0.81095   0.07006   0.00000  Uiso   1.00
N763   N     0.70826   0.76549   0.29952   0.00000  Uiso   1.00
O764   O     0.71067   0.76932   0.34275   0.00000  Uiso   1.00
O765   O     0.71855   0.72748   0.28059   0.00000  Uiso   1.00
N766   N     0.95841   0.90118   0.20051   0.00000  Uiso   1.00
O767   O     0.95591   0.89731   0.15728   0.00000  Uiso   1.00
O768   O     0.94817   0.93922   0.21942   0.00000  Uiso   1.00
N769   N     0.95476   0.77098   0.30668   0.00000  Uiso   1.00
O770   O     0.96152   0.72759   0.30560   0.00000  Uiso   1.00
O771   O     0.92759   0.78669   0.33542   0.00000  Uiso   1.00
N772   N     0.71191   0.89568   0.19332   0.00000  Uiso   1.00
O773   O     0.70515   0.93907   0.19438   0.00000  Uiso   1.00
O774   O     0.73907   0.87995   0.16457   0.00000  Uiso   1.00
O775   O     0.10559   0.20487   0.74999   0.00000  Uiso   1.00
O776   O     0.22774   0.12846   0.75001   0.00000  Uiso   1.00
O777   O     0.22774   0.20487   0.75001   0.00000  Uiso   1.00
O778   O     0.10559   0.12846   0.75000   0.00000  Uiso   1.00
C779   C     0.08671   0.16627   0.74946   0.00000  Uiso   1.00
C780   C     0.24662   0.16706   0.75054   0.00000  Uiso   1.00
O781   O     0.16666   0.20489   0.68393   0.00000  Uiso   1.00
O782   O     0.16667   0.12844   0.81608   0.00000  Uiso   1.00
O783   O     0.16667   0.20489   0.81608   0.00000  Uiso   1.00
O784   O     0.16666   0.12844   0.68393   0.00000  Uiso   1.00
C785   C     0.16753   0.16677   0.66346   0.00000  Uiso   1.00
C786   C     0.16579   0.16657   0.83654   0.00000  Uiso   1.00
Zn787  Zn    0.16667   0.21771   0.75000   0.00000  Uiso   1.00
Zn788  Zn    0.16667   0.11563   0.75000   0.00000  Uiso   1.00
C789   C     0.19986   0.18445   0.90548   0.00000  Uiso   1.00
C790   C     0.13346   0.14890   0.59452   0.00000  Uiso   1.00
C791   C     0.16552   0.16663   0.88419   0.00000  Uiso   1.00
C792   C     0.16779   0.16671   0.61581   0.00000  Uiso   1.00
C793   C     0.13085   0.14987   0.90798   0.00000  Uiso   1.00
C794   C     0.20247   0.18348   0.59202   0.00000  Uiso   1.00
C795   C     0.13003   0.15086   0.95473   0.00000  Uiso   1.00
C796   C     0.20328   0.18250   0.54527   0.00000  Uiso   1.00
C797   C     0.16599   0.16702   0.97665   0.00000  Uiso   1.00
C798   C     0.16731   0.16633   0.52335   0.00000  Uiso   1.00
C799   C     0.20067   0.18409   0.95178   0.00000  Uiso   1.00
C800   C     0.13264   0.14926   0.54822   0.00000  Uiso   1.00
C801   C     0.09493   0.13529   0.98022   0.00000  Uiso   1.00
C802   C     0.23837   0.19808   0.51978   0.00000  Uiso   1.00
C803   C     0.09721   0.13367   0.52679   0.00000  Uiso   1.00
C804   C     0.23610   0.19970   0.97321   0.00000  Uiso   1.00
H805   H     0.22628   0.19746   0.88583   0.00000  Uiso   1.00
H806   H     0.10704   0.13588   0.61418   0.00000  Uiso   1.00
H807   H     0.10486   0.13635   0.88973   0.00000  Uiso   1.00
H808   H     0.22845   0.19699   0.61027   0.00000  Uiso   1.00
H809   H     0.07064   0.12133   0.54653   0.00000  Uiso   1.00
H810   H     0.26266   0.21205   0.95347   0.00000  Uiso   1.00
C811   C     0.02049   0.13266   0.77418   0.00000  Uiso   1.00
C812   C     0.31284   0.20067   0.72584   0.00000  Uiso   1.00
C813   C     0.31093   0.13480   0.77707   0.00000  Uiso   1.00
C814   C     0.02240   0.19853   0.72294   0.00000  Uiso   1.00
C815   C     0.29077   0.16816   0.75199   0.00000  Uiso   1.00
C816   C     0.04256   0.16517   0.74802   0.00000  Uiso   1.00
C817   C     0.18934   0.02407   0.78034   0.00000  Uiso   1.00
C818   C     0.14399   0.30926   0.71966   0.00000  Uiso   1.00
C819   C     0.14395   0.02390   0.71969   0.00000  Uiso   1.00
C820   C     0.18938   0.30943   0.78031   0.00000  Uiso   1.00
H821   H     0.20740   0.04232   0.80463   0.00000  Uiso   1.00
H822   H     0.12594   0.29101   0.69537   0.00000  Uiso   1.00
H823   H     0.12575   0.04202   0.69550   0.00000  Uiso   1.00
H824   H     0.20758   0.29132   0.80450   0.00000  Uiso   1.00
N825   N     0.16667   0.28573   0.75000   0.00000  Uiso   1.00
N826   N     0.16667   0.04760   0.75000   0.00000  Uiso   1.00
C827   C     0.05450   0.12317   0.96028   0.00000  Uiso   1.00
C828   C     0.03233   0.15576   0.93629   0.00000  Uiso   1.00
C829   C     0.32575   0.14570   0.92123   0.00000  Uiso   1.00
C830   C     0.30748   0.10338   0.93056   0.00000  Uiso   1.00
C831   C     0.32933   0.07077   0.95433   0.00000  Uiso   1.00
C832   C     0.03599   0.08059   0.96925   0.00000  Uiso   1.00
H833   H     0.04568   0.18911   0.92989   0.00000  Uiso   1.00
H834   H     0.30893   0.17080   0.90250   0.00000  Uiso   1.00
H835   H     0.27634   0.09584   0.91954   0.00000  Uiso   1.00
H836   H     0.31513   0.03802   0.96158   0.00000  Uiso   1.00
H837   H     0.05231   0.05527   0.98829   0.00000  Uiso   1.00
C838   C     0.27879   0.21024   0.53972   0.00000  Uiso   1.00
C839   C     0.29725   0.25285   0.53079   0.00000  Uiso   1.00
C840   C     0.00389   0.26272   0.54573   0.00000  Uiso   1.00
C841   C     0.02578   0.23013   0.56948   0.00000  Uiso   1.00
C842   C     0.00756   0.18776   0.57876   0.00000  Uiso   1.00
C843   C     0.30100   0.17766   0.56369   0.00000  Uiso   1.00
H844   H     0.28090   0.27816   0.51177   0.00000  Uiso   1.00
H845   H     0.01806   0.29550   0.53851   0.00000  Uiso   1.00
H846   H     0.05690   0.23769   0.58052   0.00000  Uiso   1.00
H847   H     0.02440   0.16267   0.59747   0.00000  Uiso   1.00
H848   H     0.28769   0.14428   0.57006   0.00000  Uiso   1.00
N849   N     0.04159   0.09882   0.79952   0.00000  Uiso   1.00
O850   O     0.04400   0.10266   0.84275   0.00000  Uiso   1.00
O851   O     0.05188   0.06081   0.78059   0.00000  Uiso   1.00
N852   N     0.29174   0.23452   0.70051   0.00000  Uiso   1.00
O853   O     0.28924   0.23064   0.65728   0.00000  Uiso   1.00
O854   O     0.28150   0.27255   0.71942   0.00000  Uiso   1.00
N855   N     0.28809   0.10431   0.80668   0.00000  Uiso   1.00
O856   O     0.29486   0.06092   0.80560   0.00000  Uiso   1.00
O857   O     0.26092   0.12003   0.83542   0.00000  Uiso   1.00
N858   N     0.04524   0.22901   0.69332   0.00000  Uiso   1.00
O859   O     0.03848   0.27240   0.69438   0.00000  Uiso   1.00
O860   O     0.07240   0.21328   0.66457   0.00000  Uiso   1.00
O861   O     0.43892   0.20487   0.74999   0.00000  Uiso   1.00
O862   O     0.56108   0.12846   0.75001   0.00000  Uiso   1.00
O863   O     0.56108   0.20487   0.75001   0.00000  Uiso   1.00
O864   O     0.43892   0.12846   0.75000   0.00000  Uiso   1.00
C865   C     0.42004   0.16627   0.74946   0.00000  Uiso   1.00
C866   C     0.57996   0.16706   0.75054   0.00000  Uiso   1.00
O867   O     0.49999   0.20489   0.68393   0.00000  Uiso   1.00
O868   O     0.50001   0.12844   0.81608   0.00000  Uiso   1.00
O869   O     0.50001   0.20489   0.81608   0.00000  Uiso   1.00
O870   O     0.49999   0.12844   0.68393   0.00000  Uiso   1.00
C871   C     0.50087   0.16677   0.66346   0.00000  Uiso   1.00
C872   C     0.49913   0.16657   0.83654   0.00000  Uiso   1.00
Zn873  Zn    0.50000   0.21771   0.75000   0.00000  Uiso   1.00
Zn874  Zn    0.50000   0.11563   0.75000   0.00000  Uiso   1.00
C875   C     0.53319   0.18445   0.90548   0.00000  Uiso   1.00
C876   C     0.46679   0.14890   0.59452   0.00000  Uiso   1.00
C877   C     0.49886   0.16663   0.88419   0.00000  Uiso   1.00
C878   C     0.50113   0.16671   0.61581   0.00000  Uiso   1.00
C879   C     0.46418   0.14987   0.90798   0.00000  Uiso   1.00
C880   C     0.53580   0.18348   0.59202   0.00000  Uiso   1.00
C881   C     0.46336   0.15086   0.95473   0.00000  Uiso   1.00
C882   C     0.53661   0.18250   0.54527   0.00000  Uiso   1.00
C883   C     0.49933   0.16702   0.97665   0.00000  Uiso   1.00
C884   C     0.50065   0.16633   0.52335   0.00000  Uiso   1.00
C885   C     0.53401   0.18409   0.95178   0.00000  Uiso   1.00
C886   C     0.46597   0.14926   0.54822   0.00000  Uiso   1.00
C887   C     0.42826   0.13529   0.98022   0.00000  Uiso   1.00
C888   C     0.57170   0.19808   0.51978   0.00000  Uiso   1.00
C889   C     0.43054   0.13367   0.52679   0.00000  Uiso   1.00
C890   C     0.56943   0.19970   0.97321   0.00000  Uiso   1.00
H891   H     0.55961   0.19746   0.88583   0.00000  Uiso   1.00
H892   H     0.44037   0.13588   0.61418   0.00000  Uiso   1.00
H893   H     0.43819   0.13635   0.88973   0.00000  Uiso   1.00
H894   H     0.56178   0.19699   0.61027   0.00000  Uiso   1.00
H895   H     0.40397   0.12133   0.54653   0.00000  Uiso   1.00
H896   H     0.59600   0.21205   0.95347   0.00000  Uiso   1.00
C897   C     0.35382   0.13266   0.77418   0.00000  Uiso   1.00
C898   C     0.64618   0.20067   0.72584   0.00000  Uiso   1.00
C899   C     0.64427   0.13480   0.77707   0.00000  Uiso   1.00
C900   C     0.35573   0.19853   0.72294   0.00000  Uiso   1.00
C901   C     0.62410   0.16816   0.75199   0.00000  Uiso   1.00
C902   C     0.37590   0.16517   0.74802   0.00000  Uiso   1.00
C903   C     0.52267   0.02407   0.78034   0.00000  Uiso   1.00
C904   C     0.47733   0.30926   0.71966   0.00000  Uiso   1.00
C905   C     0.47729   0.02390   0.71969   0.00000  Uiso   1.00
C906   C     0.52271   0.30943   0.78031   0.00000  Uiso   1.00
H907   H     0.54073   0.04232   0.80463   0.00000  Uiso   1.00
H908   H     0.45927   0.29101   0.69537   0.00000  Uiso   1.00
H909   H     0.45909   0.04202   0.69550   0.00000  Uiso   1.00
H910   H     0.54091   0.29132   0.80450   0.00000  Uiso   1.00
N911   N     0.50000   0.28573   0.75000   0.00000  Uiso   1.00
N912   N     0.50000   0.04760   0.75000   0.00000  Uiso   1.00
C913   C     0.38784   0.12317   0.96028   0.00000  Uiso   1.00
C914   C     0.36566   0.15576   0.93629   0.00000  Uiso   1.00
C915   C     0.65909   0.14570   0.92123   0.00000  Uiso   1.00
C916   C     0.64081   0.10338   0.93056   0.00000  Uiso   1.00
C917   C     0.66266   0.07077   0.95433   0.00000  Uiso   1.00
C918   C     0.36932   0.08059   0.96925   0.00000  Uiso   1.00
H919   H     0.37901   0.18911   0.92989   0.00000  Uiso   1.00
H920   H     0.64227   0.17080   0.90250   0.00000  Uiso   1.00
H921   H     0.60968   0.09584   0.91954   0.00000  Uiso   1.00
H922   H     0.64846   0.03802   0.96158   0.00000  Uiso   1.00
H923   H     0.38565   0.05527   0.98829   0.00000  Uiso   1.00
C924   C     0.61212   0.21024   0.53972   0.00000  Uiso   1.00
C925   C     0.63059   0.25285   0.53079   0.00000  Uiso   1.00
C926   C     0.33723   0.26272   0.54573   0.00000  Uiso   1.00
C927   C     0.35911   0.23013   0.56948   0.00000  Uiso   1.00
C928   C     0.34089   0.18776   0.57876   0.00000  Uiso   1.00
C929   C     0.63433   0.17766   0.56369   0.00000  Uiso   1.00
H930   H     0.61423   0.27816   0.51177   0.00000  Uiso   1.00
H931   H     0.35139   0.29550   0.53851   0.00000  Uiso   1.00
H932   H     0.39023   0.23769   0.58052   0.00000  Uiso   1.00
H933   H     0.35774   0.16267   0.59747   0.00000  Uiso   1.00
H934   H     0.62102   0.14428   0.57006   0.00000  Uiso   1.00
N935   N     0.37493   0.09882   0.79952   0.00000  Uiso   1.00
O936   O     0.37734   0.10266   0.84275   0.00000  Uiso   1.00
O937   O     0.38522   0.06081   0.78059   0.00000  Uiso   1.00
N938   N     0.62507   0.23452   0.70051   0.00000  Uiso   1.00
O939   O     0.62257   0.23064   0.65728   0.00000  Uiso   1.00
O940   O     0.61483   0.27255   0.71942   0.00000  Uiso   1.00
N941   N     0.62142   0.10431   0.80668   0.00000  Uiso   1.00
O942   O     0.62819   0.06092   0.80560   0.00000  Uiso   1.00
O943   O     0.59425   0.12003   0.83542   0.00000  Uiso   1.00
N944   N     0.37857   0.22901   0.69332   0.00000  Uiso   1.00
O945   O     0.37181   0.27240   0.69438   0.00000  Uiso   1.00
O946   O     0.40574   0.21328   0.66457   0.00000  Uiso   1.00
O947   O     0.77226   0.20487   0.74999   0.00000  Uiso   1.00
O948   O     0.89441   0.12846   0.75001   0.00000  Uiso   1.00
O949   O     0.89441   0.20487   0.75001   0.00000  Uiso   1.00
O950   O     0.77226   0.12846   0.75000   0.00000  Uiso   1.00
C951   C     0.75338   0.16627   0.74946   0.00000  Uiso   1.00
C952   C     0.91329   0.16706   0.75054   0.00000  Uiso   1.00
O953   O     0.83333   0.20489   0.68393   0.00000  Uiso   1.00
O954   O     0.83334   0.12844   0.81608   0.00000  Uiso   1.00
O955   O     0.83334   0.20489   0.81608   0.00000  Uiso   1.00
O956   O     0.83333   0.12844   0.68393   0.00000  Uiso   1.00
C957   C     0.83420   0.16677   0.66346   0.00000  Uiso   1.00
C958   C     0.83246   0.16657   0.83654   0.00000  Uiso   1.00
Zn959  Zn    0.83333   0.21771   0.75000   0.00000  Uiso   1.00
Zn960  Zn    0.83333   0.11563   0.75000   0.00000  Uiso   1.00
C961   C     0.86652   0.18445   0.90548   0.00000  Uiso   1.00
C962   C     0.80012   0.14890   0.59452   0.00000  Uiso   1.00
C963   C     0.83219   0.16663   0.88419   0.00000  Uiso   1.00
C964   C     0.83446   0.16671   0.61581   0.00000  Uiso   1.00
C965   C     0.79751   0.14987   0.90798   0.00000  Uiso   1.00
C966   C     0.86913   0.18348   0.59202   0.00000  Uiso   1.00
C967   C     0.79669   0.15086   0.95473   0.00000  Uiso   1.00
C968   C     0.86995   0.18250   0.54527   0.00000  Uiso   1.00
C969   C     0.83266   0.16702   0.97665   0.00000  Uiso   1.00
C970   C     0.83398   0.16633   0.52335   0.00000  Uiso   1.00
C971   C     0.86734   0.18409   0.95178   0.00000  Uiso   1.00
C972   C     0.79930   0.14926   0.54822   0.00000  Uiso   1.00
C973   C     0.76160   0.13529   0.98022   0.00000  Uiso   1.00
C974   C     0.90504   0.19808   0.51978   0.00000  Uiso   1.00
C975   C     0.76387   0.13367   0.52679   0.00000  Uiso   1.00
C976   C     0.90276   0.19970   0.97321   0.00000  Uiso   1.00
H977   H     0.89294   0.19746   0.88583   0.00000  Uiso   1.00
H978   H     0.77371   0.13588   0.61418   0.00000  Uiso   1.00
H979   H     0.77153   0.13635   0.88973   0.00000  Uiso   1.00
H980   H     0.89512   0.19699   0.61027   0.00000  Uiso   1.00
H981   H     0.73730   0.12133   0.54653   0.00000  Uiso   1.00
H982   H     0.92933   0.21205   0.95347   0.00000  Uiso   1.00
C983   C     0.68716   0.13266   0.77418   0.00000  Uiso   1.00
C984   C     0.97951   0.20067   0.72584   0.00000  Uiso   1.00
C985   C     0.97760   0.13480   0.77707   0.00000  Uiso   1.00
C986   C     0.68906   0.19853   0.72294   0.00000  Uiso   1.00
C987   C     0.95744   0.16816   0.75199   0.00000  Uiso   1.00
C988   C     0.70923   0.16517   0.74802   0.00000  Uiso   1.00
C989   C     0.85601   0.02407   0.78034   0.00000  Uiso   1.00
C990   C     0.81066   0.30926   0.71966   0.00000  Uiso   1.00
C991   C     0.81062   0.02390   0.71969   0.00000  Uiso   1.00
C992   C     0.85605   0.30943   0.78031   0.00000  Uiso   1.00
H993   H     0.87406   0.04232   0.80463   0.00000  Uiso   1.00
H994   H     0.79260   0.29101   0.69537   0.00000  Uiso   1.00
H995   H     0.79242   0.04202   0.69550   0.00000  Uiso   1.00
H996   H     0.87425   0.29132   0.80450   0.00000  Uiso   1.00
N997   N     0.83333   0.28573   0.75000   0.00000  Uiso   1.00
N998   N     0.83333   0.04760   0.75000   0.00000  Uiso   1.00
C999   C     0.72117   0.12317   0.96028   0.00000  Uiso   1.00
C1000  C     0.69900   0.15576   0.93629   0.00000  Uiso   1.00
C1001  C     0.99242   0.14570   0.92123   0.00000  Uiso   1.00
C1002  C     0.97415   0.10338   0.93056   0.00000  Uiso   1.00
C1003  C     0.99600   0.07077   0.95433   0.00000  Uiso   1.00
C1004  C     0.70265   0.08059   0.96925   0.00000  Uiso   1.00
H1005  H     0.71234   0.18911   0.92989   0.00000  Uiso   1.00
H1006  H     0.97560   0.17080   0.90250   0.00000  Uiso   1.00
H1007  H     0.94301   0.09584   0.91954   0.00000  Uiso   1.00
H1008  H     0.98179   0.03802   0.96158   0.00000  Uiso   1.00
H1009  H     0.71898   0.05527   0.98829   0.00000  Uiso   1.00
C1010  C     0.94545   0.21024   0.53972   0.00000  Uiso   1.00
C1011  C     0.96392   0.25285   0.53079   0.00000  Uiso   1.00
C1012  C     0.67056   0.26272   0.54573   0.00000  Uiso   1.00
C1013  C     0.69244   0.23013   0.56948   0.00000  Uiso   1.00
C1014  C     0.67422   0.18776   0.57876   0.00000  Uiso   1.00
C1015  C     0.96766   0.17766   0.56369   0.00000  Uiso   1.00
H1016  H     0.94756   0.27816   0.51177   0.00000  Uiso   1.00
H1017  H     0.68472   0.29550   0.53851   0.00000  Uiso   1.00
H1018  H     0.72357   0.23769   0.58052   0.00000  Uiso   1.00
H1019  H     0.69107   0.16267   0.59747   0.00000  Uiso   1.00
H1020  H     0.95435   0.14428   0.57006   0.00000  Uiso   1.00
N1021  N     0.70826   0.09882   0.79952   0.00000  Uiso   1.00
O1022  O     0.71067   0.10266   0.84275   0.00000  Uiso   1.00
O1023  O     0.71855   0.06081   0.78059   0.00000  Uiso   1.00
N1024  N     0.95841   0.23452   0.70051   0.00000  Uiso   1.00
O1025  O     0.95591   0.23064   0.65728   0.00000  Uiso   1.00
O1026  O     0.94817   0.27255   0.71942   0.00000  Uiso   1.00
N1027  N     0.95476   0.10431   0.80668   0.00000  Uiso   1.00
O1028  O     0.96152   0.06092   0.80560   0.00000  Uiso   1.00
O1029  O     0.92759   0.12003   0.83542   0.00000  Uiso   1.00
N1030  N     0.71191   0.22901   0.69332   0.00000  Uiso   1.00
O1031  O     0.70515   0.27240   0.69438   0.00000  Uiso   1.00
O1032  O     0.73907   0.21328   0.66457   0.00000  Uiso   1.00
O1033  O     0.10559   0.53821   0.74999   0.00000  Uiso   1.00
O1034  O     0.22774   0.46179   0.75001   0.00000  Uiso   1.00
O1035  O     0.22774   0.53821   0.75001   0.00000  Uiso   1.00
O1036  O     0.10559   0.46179   0.75000   0.00000  Uiso   1.00
C1037  C     0.08671   0.49961   0.74946   0.00000  Uiso   1.00
C1038  C     0.24662   0.50039   0.75054   0.00000  Uiso   1.00
O1039  O     0.16666   0.53823   0.68393   0.00000  Uiso   1.00
O1040  O     0.16667   0.46177   0.81608   0.00000  Uiso   1.00
O1041  O     0.16667   0.53823   0.81608   0.00000  Uiso   1.00
O1042  O     0.16666   0.46177   0.68393   0.00000  Uiso   1.00
C1043  C     0.16753   0.50010   0.66346   0.00000  Uiso   1.00
C1044  C     0.16579   0.49990   0.83654   0.00000  Uiso   1.00
Zn1045 Zn    0.16667   0.55104   0.75000   0.00000  Uiso   1.00
Zn1046 Zn    0.16667   0.44896   0.75000   0.00000  Uiso   1.00
C1047  C     0.19986   0.51778   0.90548   0.00000  Uiso   1.00
C1048  C     0.13346   0.48223   0.59452   0.00000  Uiso   1.00
C1049  C     0.16552   0.49996   0.88419   0.00000  Uiso   1.00
C1050  C     0.16779   0.50004   0.61581   0.00000  Uiso   1.00
C1051  C     0.13085   0.48321   0.90798   0.00000  Uiso   1.00
C1052  C     0.20247   0.51681   0.59202   0.00000  Uiso   1.00
C1053  C     0.13003   0.48419   0.95473   0.00000  Uiso   1.00
C1054  C     0.20328   0.51584   0.54527   0.00000  Uiso   1.00
C1055  C     0.16599   0.50036   0.97665   0.00000  Uiso   1.00
C1056  C     0.16731   0.49967   0.52335   0.00000  Uiso   1.00
C1057  C     0.20067   0.51743   0.95178   0.00000  Uiso   1.00
C1058  C     0.13264   0.48260   0.54822   0.00000  Uiso   1.00
C1059  C     0.09493   0.46863   0.98022   0.00000  Uiso   1.00
C1060  C     0.23837   0.53141   0.51978   0.00000  Uiso   1.00
C1061  C     0.09721   0.46700   0.52679   0.00000  Uiso   1.00
C1062  C     0.23610   0.53303   0.97321   0.00000  Uiso   1.00
H1063  H     0.22628   0.53080   0.88583   0.00000  Uiso   1.00
H1064  H     0.10704   0.46921   0.61418   0.00000  Uiso   1.00
H1065  H     0.10486   0.46969   0.88973   0.00000  Uiso   1.00
H1066  H     0.22845   0.53033   0.61027   0.00000  Uiso   1.00
H1067  H     0.07064   0.45467   0.54653   0.00000  Uiso   1.00
H1068  H     0.26266   0.54538   0.95347   0.00000  Uiso   1.00
C1069  C     0.02049   0.46600   0.77418   0.00000  Uiso   1.00
C1070  C     0.31284   0.53401   0.72584   0.00000  Uiso   1.00
C1071  C     0.31093   0.46814   0.77707   0.00000  Uiso   1.00
C1072  C     0.02240   0.53186   0.72294   0.00000  Uiso   1.00
C1073  C     0.29077   0.50149   0.75199   0.00000  Uiso   1.00
C1074  C     0.04256   0.49851   0.74802   0.00000  Uiso   1.00
C1075  C     0.18934   0.35741   0.78034   0.00000  Uiso   1.00
C1076  C     0.14399   0.64259   0.71966   0.00000  Uiso   1.00
C1077  C     0.14395   0.35724   0.71969   0.00000  Uiso   1.00
C1078  C     0.18938   0.64277   0.78031   0.00000  Uiso   1.00
H1079  H     0.20740   0.37566   0.80463   0.00000  Uiso   1.00
H1080  H     0.12594   0.62434   0.69537   0.00000  Uiso   1.00
H1081  H     0.12575   0.37535   0.69550   0.00000  Uiso   1.00
H1082  H     0.20758   0.62465   0.80450   0.00000  Uiso   1.00
N1083  N     0.16667   0.61907   0.75000   0.00000  Uiso   1.00
N1084  N     0.16667   0.38093   0.75000   0.00000  Uiso   1.00
C1085  C     0.05450   0.45651   0.96028   0.00000  Uiso   1.00
C1086  C     0.03233   0.48910   0.93629   0.00000  Uiso   1.00
C1087  C     0.32575   0.47904   0.92123   0.00000  Uiso   1.00
C1088  C     0.30748   0.43671   0.93056   0.00000  Uiso   1.00
C1089  C     0.32933   0.40410   0.95433   0.00000  Uiso   1.00
C1090  C     0.03599   0.41392   0.96925   0.00000  Uiso   1.00
H1091  H     0.04568   0.52245   0.92989   0.00000  Uiso   1.00
H1092  H     0.30893   0.50413   0.90250   0.00000  Uiso   1.00
H1093  H     0.27634   0.42918   0.91954   0.00000  Uiso   1.00
H1094  H     0.31513   0.37135   0.96158   0.00000  Uiso   1.00
H1095  H     0.05231   0.38860   0.98829   0.00000  Uiso   1.00
C1096  C     0.27879   0.54357   0.53972   0.00000  Uiso   1.00
C1097  C     0.29725   0.58619   0.53079   0.00000  Uiso   1.00
C1098  C     0.00389   0.59605   0.54573   0.00000  Uiso   1.00
C1099  C     0.02578   0.56346   0.56948   0.00000  Uiso   1.00
C1100  C     0.00756   0.52110   0.57876   0.00000  Uiso   1.00
C1101  C     0.30100   0.51099   0.56369   0.00000  Uiso   1.00
H1102  H     0.28090   0.61150   0.51177   0.00000  Uiso   1.00
H1103  H     0.01806   0.62883   0.53851   0.00000  Uiso   1.00
H1104  H     0.05690   0.57103   0.58052   0.00000  Uiso   1.00
H1105  H     0.02440   0.49601   0.59747   0.00000  Uiso   1.00
H1106  H     0.28769   0.47762   0.57006   0.00000  Uiso   1.00
N1107  N     0.04159   0.43216   0.79952   0.00000  Uiso   1.00
O1108  O     0.04400   0.43599   0.84275   0.00000  Uiso   1.00
O1109  O     0.05188   0.39415   0.78059   0.00000  Uiso   1.00
N1110  N     0.29174   0.56785   0.70051   0.00000  Uiso   1.00
O1111  O     0.28924   0.56397   0.65728   0.00000  Uiso   1.00
O1112  O     0.28150   0.60588   0.71942   0.00000  Uiso   1.00
N1113  N     0.28809   0.43764   0.80668   0.00000  Uiso   1.00
O1114  O     0.29486   0.39426   0.80560   0.00000  Uiso   1.00
O1115  O     0.26092   0.45336   0.83542   0.00000  Uiso   1.00
N1116  N     0.04524   0.56235   0.69332   0.00000  Uiso   1.00
O1117  O     0.03848   0.60573   0.69438   0.00000  Uiso   1.00
O1118  O     0.07240   0.54662   0.66457   0.00000  Uiso   1.00
O1119  O     0.43892   0.53821   0.74999   0.00000  Uiso   1.00
O1120  O     0.56108   0.46179   0.75001   0.00000  Uiso   1.00
O1121  O     0.56108   0.53821   0.75001   0.00000  Uiso   1.00
O1122  O     0.43892   0.46179   0.75000   0.00000  Uiso   1.00
C1123  C     0.42004   0.49961   0.74946   0.00000  Uiso   1.00
C1124  C     0.57996   0.50039   0.75054   0.00000  Uiso   1.00
O1125  O     0.49999   0.53823   0.68393   0.00000  Uiso   1.00
O1126  O     0.50001   0.46177   0.81608   0.00000  Uiso   1.00
O1127  O     0.50001   0.53823   0.81608   0.00000  Uiso   1.00
O1128  O     0.49999   0.46177   0.68393   0.00000  Uiso   1.00
C1129  C     0.50087   0.50010   0.66346   0.00000  Uiso   1.00
C1130  C     0.49913   0.49990   0.83654   0.00000  Uiso   1.00
Zn1131 Zn    0.50000   0.55104   0.75000   0.00000  Uiso   1.00
Zn1132 Zn    0.50000   0.44896   0.75000   0.00000  Uiso   1.00
C1133  C     0.53319   0.51778   0.90548   0.00000  Uiso   1.00
C1134  C     0.46679   0.48223   0.59452   0.00000  Uiso   1.00
C1135  C     0.49886   0.49996   0.88419   0.00000  Uiso   1.00
C1136  C     0.50113   0.50004   0.61581   0.00000  Uiso   1.00
C1137  C     0.46418   0.48321   0.90798   0.00000  Uiso   1.00
C1138  C     0.53580   0.51681   0.59202   0.00000  Uiso   1.00
C1139  C     0.46336   0.48419   0.95473   0.00000  Uiso   1.00
C1140  C     0.53661   0.51584   0.54527   0.00000  Uiso   1.00
C1141  C     0.49933   0.50036   0.97665   0.00000  Uiso   1.00
C1142  C     0.50065   0.49967   0.52335   0.00000  Uiso   1.00
C1143  C     0.53401   0.51743   0.95178   0.00000  Uiso   1.00
C1144  C     0.46597   0.48260   0.54822   0.00000  Uiso   1.00
C1145  C     0.42826   0.46863   0.98022   0.00000  Uiso   1.00
C1146  C     0.57170   0.53141   0.51978   0.00000  Uiso   1.00
C1147  C     0.43054   0.46700   0.52679   0.00000  Uiso   1.00
C1148  C     0.56943   0.53303   0.97321   0.00000  Uiso   1.00
H1149  H     0.55961   0.53080   0.88583   0.00000  Uiso   1.00
H1150  H     0.44037   0.46921   0.61418   0.00000  Uiso   1.00
H1151  H     0.43819   0.46969   0.88973   0.00000  Uiso   1.00
H1152  H     0.56178   0.53033   0.61027   0.00000  Uiso   1.00
H1153  H     0.40397   0.45467   0.54653   0.00000  Uiso   1.00
H1154  H     0.59600   0.54538   0.95347   0.00000  Uiso   1.00
C1155  C     0.35382   0.46600   0.77418   0.00000  Uiso   1.00
C1156  C     0.64618   0.53401   0.72584   0.00000  Uiso   1.00
C1157  C     0.64427   0.46814   0.77707   0.00000  Uiso   1.00
C1158  C     0.35573   0.53186   0.72294   0.00000  Uiso   1.00
C1159  C     0.62410   0.50149   0.75199   0.00000  Uiso   1.00
C1160  C     0.37590   0.49851   0.74802   0.00000  Uiso   1.00
C1161  C     0.52267   0.35741   0.78034   0.00000  Uiso   1.00
C1162  C     0.47733   0.64259   0.71966   0.00000  Uiso   1.00
C1163  C     0.47729   0.35724   0.71969   0.00000  Uiso   1.00
C1164  C     0.52271   0.64277   0.78031   0.00000  Uiso   1.00
H1165  H     0.54073   0.37566   0.80463   0.00000  Uiso   1.00
H1166  H     0.45927   0.62434   0.69537   0.00000  Uiso   1.00
H1167  H     0.45909   0.37535   0.69550   0.00000  Uiso   1.00
H1168  H     0.54091   0.62465   0.80450   0.00000  Uiso   1.00
N1169  N     0.50000   0.61907   0.75000   0.00000  Uiso   1.00
N1170  N     0.50000   0.38093   0.75000   0.00000  Uiso   1.00
C1171  C     0.38784   0.45651   0.96028   0.00000  Uiso   1.00
C1172  C     0.36566   0.48910   0.93629   0.00000  Uiso   1.00
C1173  C     0.65909   0.47904   0.92123   0.00000  Uiso   1.00
C1174  C     0.64081   0.43671   0.93056   0.00000  Uiso   1.00
C1175  C     0.66266   0.40410   0.95433   0.00000  Uiso   1.00
C1176  C     0.36932   0.41392   0.96925   0.00000  Uiso   1.00
H1177  H     0.37901   0.52245   0.92989   0.00000  Uiso   1.00
H1178  H     0.64227   0.50413   0.90250   0.00000  Uiso   1.00
H1179  H     0.60968   0.42918   0.91954   0.00000  Uiso   1.00
H1180  H     0.64846   0.37135   0.96158   0.00000  Uiso   1.00
H1181  H     0.38565   0.38860   0.98829   0.00000  Uiso   1.00
C1182  C     0.61212   0.54357   0.53972   0.00000  Uiso   1.00
C1183  C     0.63059   0.58619   0.53079   0.00000  Uiso   1.00
C1184  C     0.33723   0.59605   0.54573   0.00000  Uiso   1.00
C1185  C     0.35911   0.56346   0.56948   0.00000  Uiso   1.00
C1186  C     0.34089   0.52110   0.57876   0.00000  Uiso   1.00
C1187  C     0.63433   0.51099   0.56369   0.00000  Uiso   1.00
H1188  H     0.61423   0.61150   0.51177   0.00000  Uiso   1.00
H1189  H     0.35139   0.62883   0.53851   0.00000  Uiso   1.00
H1190  H     0.39023   0.57103   0.58052   0.00000  Uiso   1.00
H1191  H     0.35774   0.49601   0.59747   0.00000  Uiso   1.00
H1192  H     0.62102   0.47762   0.57006   0.00000  Uiso   1.00
N1193  N     0.37493   0.43216   0.79952   0.00000  Uiso   1.00
O1194  O     0.37734   0.43599   0.84275   0.00000  Uiso   1.00
O1195  O     0.38522   0.39415   0.78059   0.00000  Uiso   1.00
N1196  N     0.62507   0.56785   0.70051   0.00000  Uiso   1.00
O1197  O     0.62257   0.56397   0.65728   0.00000  Uiso   1.00
O1198  O     0.61483   0.60588   0.71942   0.00000  Uiso   1.00
N1199  N     0.62142   0.43764   0.80668   0.00000  Uiso   1.00
O1200  O     0.62819   0.39426   0.80560   0.00000  Uiso   1.00
O1201  O     0.59425   0.45336   0.83542   0.00000  Uiso   1.00
N1202  N     0.37857   0.56235   0.69332   0.00000  Uiso   1.00
O1203  O     0.37181   0.60573   0.69438   0.00000  Uiso   1.00
O1204  O     0.40574   0.54662   0.66457   0.00000  Uiso   1.00
O1205  O     0.77226   0.53821   0.74999   0.00000  Uiso   1.00
O1206  O     0.89441   0.46179   0.75001   0.00000  Uiso   1.00
O1207  O     0.89441   0.53821   0.75001   0.00000  Uiso   1.00
O1208  O     0.77226   0.46179   0.75000   0.00000  Uiso   1.00
C1209  C     0.75338   0.49961   0.74946   0.00000  Uiso   1.00
C1210  C     0.91329   0.50039   0.75054   0.00000  Uiso   1.00
O1211  O     0.83333   0.53823   0.68393   0.00000  Uiso   1.00
O1212  O     0.83334   0.46177   0.81608   0.00000  Uiso   1.00
O1213  O     0.83334   0.53823   0.81608   0.00000  Uiso   1.00
O1214  O     0.83333   0.46177   0.68393   0.00000  Uiso   1.00
C1215  C     0.83420   0.50010   0.66346   0.00000  Uiso   1.00
C1216  C     0.83246   0.49990   0.83654   0.00000  Uiso   1.00
Zn1217 Zn    0.83333   0.55104   0.75000   0.00000  Uiso   1.00
Zn1218 Zn    0.83333   0.44896   0.75000   0.00000  Uiso   1.00
C1219  C     0.86652   0.51778   0.90548   0.00000  Uiso   1.00
C1220  C     0.80012   0.48223   0.59452   0.00000  Uiso   1.00
C1221  C     0.83219   0.49996   0.88419   0.00000  Uiso   1.00
C1222  C     0.83446   0.50004   0.61581   0.00000  Uiso   1.00
C1223  C     0.79751   0.48321   0.90798   0.00000  Uiso   1.00
C1224  C     0.86913   0.51681   0.59202   0.00000  Uiso   1.00
C1225  C     0.79669   0.48419   0.95473   0.00000  Uiso   1.00
C1226  C     0.86995   0.51584   0.54527   0.00000  Uiso   1.00
C1227  C     0.83266   0.50036   0.97665   0.00000  Uiso   1.00
C1228  C     0.83398   0.49967   0.52335   0.00000  Uiso   1.00
C1229  C     0.86734   0.51743   0.95178   0.00000  Uiso   1.00
C1230  C     0.79930   0.48260   0.54822   0.00000  Uiso   1.00
C1231  C     0.76160   0.46863   0.98022   0.00000  Uiso   1.00
C1232  C     0.90504   0.53141   0.51978   0.00000  Uiso   1.00
C1233  C     0.76387   0.46700   0.52679   0.00000  Uiso   1.00
C1234  C     0.90276   0.53303   0.97321   0.00000  Uiso   1.00
H1235  H     0.89294   0.53080   0.88583   0.00000  Uiso   1.00
H1236  H     0.77371   0.46921   0.61418   0.00000  Uiso   1.00
H1237  H     0.77153   0.46969   0.88973   0.00000  Uiso   1.00
H1238  H     0.89512   0.53033   0.61027   0.00000  Uiso   1.00
H1239  H     0.73730   0.45467   0.54653   0.00000  Uiso   1.00
H1240  H     0.92933   0.54538   0.95347   0.00000  Uiso   1.00
C1241  C     0.68716   0.46600   0.77418   0.00000  Uiso   1.00
C1242  C     0.97951   0.53401   0.72584   0.00000  Uiso   1.00
C1243  C     0.97760   0.46814   0.77707   0.00000  Uiso   1.00
C1244  C     0.68906   0.53186   0.72294   0.00000  Uiso   1.00
C1245  C     0.95744   0.50149   0.75199   0.00000  Uiso   1.00
C1246  C     0.70923   0.49851   0.74802   0.00000  Uiso   1.00
C1247  C     0.85601   0.35741   0.78034   0.00000  Uiso   1.00
C1248  C     0.81066   0.64259   0.71966   0.00000  Uiso   1.00
C1249  C     0.81062   0.35724   0.71969   0.00000  Uiso   1.00
C1250  C     0.85605   0.64277   0.78031   0.00000  Uiso   1.00
H1251  H     0.87406   0.37566   0.80463   0.00000  Uiso   1.00
H1252  H     0.79260   0.62434   0.69537   0.00000  Uiso   1.00
H1253  H     0.79242   0.37535   0.69550   0.00000  Uiso   1.00
H1254  H     0.87425   0.62465   0.80450   0.00000  Uiso   1.00
N1255  N     0.83333   0.61907   0.75000   0.00000  Uiso   1.00
N1256  N     0.83333   0.38093   0.75000   0.00000  Uiso   1.00
C1257  C     0.72117   0.45651   0.96028   0.00000  Uiso   1.00
C1258  C     0.69900   0.48910   0.93629   0.00000  Uiso   1.00
C1259  C     0.99242   0.47904   0.92123   0.00000  Uiso   1.00
C1260  C     0.97415   0.43671   0.93056   0.00000  Uiso   1.00
C1261  C     0.99600   0.40410   0.95433   0.00000  Uiso   1.00
C1262  C     0.70265   0.41392   0.96925   0.00000  Uiso   1.00
H1263  H     0.71234   0.52245   0.92989   0.00000  Uiso   1.00
H1264  H     0.97560   0.50413   0.90250   0.00000  Uiso   1.00
H1265  H     0.94301   0.42918   0.91954   0.00000  Uiso   1.00
H1266  H     0.98179   0.37135   0.96158   0.00000  Uiso   1.00
H1267  H     0.71898   0.38860   0.98829   0.00000  Uiso   1.00
C1268  C     0.94545   0.54357   0.53972   0.00000  Uiso   1.00
C1269  C     0.96392   0.58619   0.53079   0.00000  Uiso   1.00
C1270  C     0.67056   0.59605   0.54573   0.00000  Uiso   1.00
C1271  C     0.69244   0.56346   0.56948   0.00000  Uiso   1.00
C1272  C     0.67422   0.52110   0.57876   0.00000  Uiso   1.00
C1273  C     0.96766   0.51099   0.56369   0.00000  Uiso   1.00
H1274  H     0.94756   0.61150   0.51177   0.00000  Uiso   1.00
H1275  H     0.68472   0.62883   0.53851   0.00000  Uiso   1.00
H1276  H     0.72357   0.57103   0.58052   0.00000  Uiso   1.00
H1277  H     0.69107   0.49601   0.59747   0.00000  Uiso   1.00
H1278  H     0.95435   0.47762   0.57006   0.00000  Uiso   1.00
N1279  N     0.70826   0.43216   0.79952   0.00000  Uiso   1.00
O1280  O     0.71067   0.43599   0.84275   0.00000  Uiso   1.00
O1281  O     0.71855   0.39415   0.78059   0.00000  Uiso   1.00
N1282  N     0.95841   0.56785   0.70051   0.00000  Uiso   1.00
O1283  O     0.95591   0.56397   0.65728   0.00000  Uiso   1.00
O1284  O     0.94817   0.60588   0.71942   0.00000  Uiso   1.00
N1285  N     0.95476   0.43764   0.80668   0.00000  Uiso   1.00
O1286  O     0.96152   0.39426   0.80560   0.00000  Uiso   1.00
O1287  O     0.92759   0.45336   0.83542   0.00000  Uiso   1.00
N1288  N     0.71191   0.56235   0.69332   0.00000  Uiso   1.00
O1289  O     0.70515   0.60573   0.69438   0.00000  Uiso   1.00
O1290  O     0.73907   0.54662   0.66457   0.00000  Uiso   1.00
O1291  O     0.10559   0.87154   0.74999   0.00000  Uiso   1.00
O1292  O     0.22774   0.79513   0.75001   0.00000  Uiso   1.00
O1293  O     0.22774   0.87154   0.75001   0.00000  Uiso   1.00
O1294  O     0.10559   0.79513   0.75000   0.00000  Uiso   1.00
C1295  C     0.08671   0.83294   0.74946   0.00000  Uiso   1.00
C1296  C     0.24662   0.83373   0.75054   0.00000  Uiso   1.00
O1297  O     0.16666   0.87156   0.68393   0.00000  Uiso   1.00
O1298  O     0.16667   0.79511   0.81608   0.00000  Uiso   1.00
O1299  O     0.16667   0.87156   0.81608   0.00000  Uiso   1.00
O1300  O     0.16666   0.79511   0.68393   0.00000  Uiso   1.00
C1301  C     0.16753   0.83343   0.66346   0.00000  Uiso   1.00
C1302  C     0.16579   0.83323   0.83654   0.00000  Uiso   1.00
Zn1303 Zn    0.16667   0.88437   0.75000   0.00000  Uiso   1.00
Zn1304 Zn    0.16667   0.78229   0.75000   0.00000  Uiso   1.00
C1305  C     0.19986   0.85111   0.90548   0.00000  Uiso   1.00
C1306  C     0.13346   0.81556   0.59452   0.00000  Uiso   1.00
C1307  C     0.16552   0.83329   0.88419   0.00000  Uiso   1.00
C1308  C     0.16779   0.83338   0.61581   0.00000  Uiso   1.00
C1309  C     0.13085   0.81654   0.90798   0.00000  Uiso   1.00
C1310  C     0.20247   0.85014   0.59202   0.00000  Uiso   1.00
C1311  C     0.13003   0.81752   0.95473   0.00000  Uiso   1.00
C1312  C     0.20328   0.84917   0.54527   0.00000  Uiso   1.00
C1313  C     0.16599   0.83369   0.97665   0.00000  Uiso   1.00
C1314  C     0.16731   0.83300   0.52335   0.00000  Uiso   1.00
C1315  C     0.20067   0.85076   0.95178   0.00000  Uiso   1.00
C1316  C     0.13264   0.81593   0.54822   0.00000  Uiso   1.00
C1317  C     0.09493   0.80196   0.98022   0.00000  Uiso   1.00
C1318  C     0.23837   0.86475   0.51978   0.00000  Uiso   1.00
C1319  C     0.09721   0.80034   0.52679   0.00000  Uiso   1.00
C1320  C     0.23610   0.86637   0.97321   0.00000  Uiso   1.00
H1321  H     0.22628   0.86413   0.88583   0.00000  Uiso   1.00
H1322  H     0.10704   0.80255   0.61418   0.00000  Uiso   1.00
H1323  H     0.10486   0.80302   0.88973   0.00000  Uiso   1.00
H1324  H     0.22845   0.86366   0.61027   0.00000  Uiso   1.00
H1325  H     0.07064   0.78800   0.54653   0.00000  Uiso   1.00
H1326  H     0.26266   0.87872   0.95347   0.00000  Uiso   1.00
C1327  C     0.02049   0.79933   0.77418   0.00000  Uiso   1.00
C1328  C     0.31284   0.86734   0.72584   0.00000  Uiso   1.00
C1329  C     0.31093   0.80147   0.77707   0.00000  Uiso   1.00
C1330  C     0.02240   0.86519   0.72294   0.00000  Uiso   1.00
C1331  C     0.29077   0.83483   0.75199   0.00000  Uiso   1.00
C1332  C     0.04256   0.83184   0.74802   0.00000  Uiso   1.00
C1333  C     0.18934   0.69074   0.78034   0.00000  Uiso   1.00
C1334  C     0.14399   0.97593   0.71966   0.00000  Uiso   1.00
C1335  C     0.14395   0.69057   0.71969   0.00000  Uiso   1.00
C1336  C     0.18938   0.97610   0.78031   0.00000  Uiso   1.00
H1337  H     0.20740   0.70899   0.80463   0.00000  Uiso   1.00
H1338  H     0.12594   0.95768   0.69537   0.00000  Uiso   1.00
H1339  H     0.12575   0.70868   0.69550   0.00000  Uiso   1.00
H1340  H     0.20758   0.95798   0.80450   0.00000  Uiso   1.00
N1341  N     0.16667   0.95240   0.75000   0.00000  Uiso   1.00
N1342  N     0.16667   0.71427   0.75000   0.00000  Uiso   1.00
C1343  C     0.05450   0.78984   0.96028   0.00000  Uiso   1.00
C1344  C     0.03233   0.82243   0.93629   0.00000  Uiso   1.00
C1345  C     0.32575   0.81237   0.92123   0.00000  Uiso   1.00
C1346  C     0.30748   0.77004   0.93056   0.00000  Uiso   1.00
C1347  C     0.32933   0.73744   0.95433   0.00000  Uiso   1.00
C1348  C     0.03599   0.74726   0.96925   0.00000  Uiso   1.00
H1349  H     0.04568   0.85578   0.92989   0.00000  Uiso   1.00
H1350  H     0.30893   0.83747   0.90250   0.00000  Uiso   1.00
H1351  H     0.27634   0.76251   0.91954   0.00000  Uiso   1.00
H1352  H     0.31513   0.70468   0.96158   0.00000  Uiso   1.00
H1353  H     0.05231   0.72194   0.98829   0.00000  Uiso   1.00
C1354  C     0.27879   0.87690   0.53972   0.00000  Uiso   1.00
C1355  C     0.29725   0.91952   0.53079   0.00000  Uiso   1.00
C1356  C     0.00389   0.92939   0.54573   0.00000  Uiso   1.00
C1357  C     0.02578   0.89679   0.56948   0.00000  Uiso   1.00
C1358  C     0.00756   0.85443   0.57876   0.00000  Uiso   1.00
C1359  C     0.30100   0.84432   0.56369   0.00000  Uiso   1.00
H1360  H     0.28090   0.94483   0.51177   0.00000  Uiso   1.00
H1361  H     0.01806   0.96216   0.53851   0.00000  Uiso   1.00
H1362  H     0.05690   0.90436   0.58052   0.00000  Uiso   1.00
H1363  H     0.02440   0.82934   0.59747   0.00000  Uiso   1.00
H1364  H     0.28769   0.81095   0.57006   0.00000  Uiso   1.00
N1365  N     0.04159   0.76549   0.79952   0.00000  Uiso   1.00
O1366  O     0.04400   0.76932   0.84275   0.00000  Uiso   1.00
O1367  O     0.05188   0.72748   0.78059   0.00000  Uiso   1.00
N1368  N     0.29174   0.90118   0.70051   0.00000  Uiso   1.00
O1369  O     0.28924   0.89731   0.65728   0.00000  Uiso   1.00
O1370  O     0.28150   0.93922   0.71942   0.00000  Uiso   1.00
N1371  N     0.28809   0.77098   0.80668   0.00000  Uiso   1.00
O1372  O     0.29486   0.72759   0.80560   0.00000  Uiso   1.00
O1373  O     0.26092   0.78669   0.83542   0.00000  Uiso   1.00
N1374  N     0.04524   0.89568   0.69332   0.00000  Uiso   1.00
O1375  O     0.03848   0.93907   0.69438   0.00000  Uiso   1.00
O1376  O     0.07240   0.87995   0.66457   0.00000  Uiso   1.00
O1377  O     0.43892   0.87154   0.74999   0.00000  Uiso   1.00
O1378  O     0.56108   0.79513   0.75001   0.00000  Uiso   1.00
O1379  O     0.56108   0.87154   0.75001   0.00000  Uiso   1.00
O1380  O     0.43892   0.79513   0.75000   0.00000  Uiso   1.00
C1381  C     0.42004   0.83294   0.74946   0.00000  Uiso   1.00
C1382  C     0.57996   0.83373   0.75054   0.00000  Uiso   1.00
O1383  O     0.49999   0.87156   0.68393   0.00000  Uiso   1.00
O1384  O     0.50001   0.79511   0.81608   0.00000  Uiso   1.00
O1385  O     0.50001   0.87156   0.81608   0.00000  Uiso   1.00
O1386  O     0.49999   0.79511   0.68393   0.00000  Uiso   1.00
C1387  C     0.50087   0.83343   0.66346   0.00000  Uiso   1.00
C1388  C     0.49913   0.83323   0.83654   0.00000  Uiso   1.00
Zn1389 Zn    0.50000   0.88437   0.75000   0.00000  Uiso   1.00
Zn1390 Zn    0.50000   0.78229   0.75000   0.00000  Uiso   1.00
C1391  C     0.53319   0.85111   0.90548   0.00000  Uiso   1.00
C1392  C     0.46679   0.81556   0.59452   0.00000  Uiso   1.00
C1393  C     0.49886   0.83329   0.88419   0.00000  Uiso   1.00
C1394  C     0.50113   0.83338   0.61581   0.00000  Uiso   1.00
C1395  C     0.46418   0.81654   0.90798   0.00000  Uiso   1.00
C1396  C     0.53580   0.85014   0.59202   0.00000  Uiso   1.00
C1397  C     0.46336   0.81752   0.95473   0.00000  Uiso   1.00
C1398  C     0.53661   0.84917   0.54527   0.00000  Uiso   1.00
C1399  C     0.49933   0.83369   0.97665   0.00000  Uiso   1.00
C1400  C     0.50065   0.83300   0.52335   0.00000  Uiso   1.00
C1401  C     0.53401   0.85076   0.95178   0.00000  Uiso   1.00
C1402  C     0.46597   0.81593   0.54822   0.00000  Uiso   1.00
C1403  C     0.42826   0.80196   0.98022   0.00000  Uiso   1.00
C1404  C     0.57170   0.86475   0.51978   0.00000  Uiso   1.00
C1405  C     0.43054   0.80034   0.52679   0.00000  Uiso   1.00
C1406  C     0.56943   0.86637   0.97321   0.00000  Uiso   1.00
H1407  H     0.55961   0.86413   0.88583   0.00000  Uiso   1.00
H1408  H     0.44037   0.80255   0.61418   0.00000  Uiso   1.00
H1409  H     0.43819   0.80302   0.88973   0.00000  Uiso   1.00
H1410  H     0.56178   0.86366   0.61027   0.00000  Uiso   1.00
H1411  H     0.40397   0.78800   0.54653   0.00000  Uiso   1.00
H1412  H     0.59600   0.87872   0.95347   0.00000  Uiso   1.00
C1413  C     0.35382   0.79933   0.77418   0.00000  Uiso   1.00
C1414  C     0.64618   0.86734   0.72584   0.00000  Uiso   1.00
C1415  C     0.64427   0.80147   0.77707   0.00000  Uiso   1.00
C1416  C     0.35573   0.86519   0.72294   0.00000  Uiso   1.00
C1417  C     0.62410   0.83483   0.75199   0.00000  Uiso   1.00
C1418  C     0.37590   0.83184   0.74802   0.00000  Uiso   1.00
C1419  C     0.52267   0.69074   0.78034   0.00000  Uiso   1.00
C1420  C     0.47733   0.97593   0.71966   0.00000  Uiso   1.00
C1421  C     0.47729   0.69057   0.71969   0.00000  Uiso   1.00
C1422  C     0.52271   0.97610   0.78031   0.00000  Uiso   1.00
H1423  H     0.54073   0.70899   0.80463   0.00000  Uiso   1.00
H1424  H     0.45927   0.95768   0.69537   0.00000  Uiso   1.00
H1425  H     0.45909   0.70868   0.69550   0.00000  Uiso   1.00
H1426  H     0.54091   0.95798   0.80450   0.00000  Uiso   1.00
N1427  N     0.50000   0.95240   0.75000   0.00000  Uiso   1.00
N1428  N     0.50000   0.71427   0.75000   0.00000  Uiso   1.00
C1429  C     0.38784   0.78984   0.96028   0.00000  Uiso   1.00
C1430  C     0.36566   0.82243   0.93629   0.00000  Uiso   1.00
C1431  C     0.65909   0.81237   0.92123   0.00000  Uiso   1.00
C1432  C     0.64081   0.77004   0.93056   0.00000  Uiso   1.00
C1433  C     0.66266   0.73744   0.95433   0.00000  Uiso   1.00
C1434  C     0.36932   0.74726   0.96925   0.00000  Uiso   1.00
H1435  H     0.37901   0.85578   0.92989   0.00000  Uiso   1.00
H1436  H     0.64227   0.83747   0.90250   0.00000  Uiso   1.00
H1437  H     0.60968   0.76251   0.91954   0.00000  Uiso   1.00
H1438  H     0.64846   0.70468   0.96158   0.00000  Uiso   1.00
H1439  H     0.38565   0.72194   0.98829   0.00000  Uiso   1.00
C1440  C     0.61212   0.87690   0.53972   0.00000  Uiso   1.00
C1441  C     0.63059   0.91952   0.53079   0.00000  Uiso   1.00
C1442  C     0.33723   0.92939   0.54573   0.00000  Uiso   1.00
C1443  C     0.35911   0.89679   0.56948   0.00000  Uiso   1.00
C1444  C     0.34089   0.85443   0.57876   0.00000  Uiso   1.00
C1445  C     0.63433   0.84432   0.56369   0.00000  Uiso   1.00
H1446  H     0.61423   0.94483   0.51177   0.00000  Uiso   1.00
H1447  H     0.35139   0.96216   0.53851   0.00000  Uiso   1.00
H1448  H     0.39023   0.90436   0.58052   0.00000  Uiso   1.00
H1449  H     0.35774   0.82934   0.59747   0.00000  Uiso   1.00
H1450  H     0.62102   0.81095   0.57006   0.00000  Uiso   1.00
N1451  N     0.37493   0.76549   0.79952   0.00000  Uiso   1.00
O1452  O     0.37734   0.76932   0.84275   0.00000  Uiso   1.00
O1453  O     0.38522   0.72748   0.78059   0.00000  Uiso   1.00
N1454  N     0.62507   0.90118   0.70051   0.00000  Uiso   1.00
O1455  O     0.62257   0.89731   0.65728   0.00000  Uiso   1.00
O1456  O     0.61483   0.93922   0.71942   0.00000  Uiso   1.00
N1457  N     0.62142   0.77098   0.80668   0.00000  Uiso   1.00
O1458  O     0.62819   0.72759   0.80560   0.00000  Uiso   1.00
O1459  O     0.59425   0.78669   0.83542   0.00000  Uiso   1.00
N1460  N     0.37857   0.89568   0.69332   0.00000  Uiso   1.00
O1461  O     0.37181   0.93907   0.69438   0.00000  Uiso   1.00
O1462  O     0.40574   0.87995   0.66457   0.00000  Uiso   1.00
O1463  O     0.77226   0.87154   0.74999   0.00000  Uiso   1.00
O1464  O     0.89441   0.79513   0.75001   0.00000  Uiso   1.00
O1465  O     0.89441   0.87154   0.75001   0.00000  Uiso   1.00
O1466  O     0.77226   0.79513   0.75000   0.00000  Uiso   1.00
C1467  C     0.75338   0.83294   0.74946   0.00000  Uiso   1.00
C1468  C     0.91329   0.83373   0.75054   0.00000  Uiso   1.00
O1469  O     0.83333   0.87156   0.68393   0.00000  Uiso   1.00
O1470  O     0.83334   0.79511   0.81608   0.00000  Uiso   1.00
O1471  O     0.83334   0.87156   0.81608   0.00000  Uiso   1.00
O1472  O     0.83333   0.79511   0.68393   0.00000  Uiso   1.00
C1473  C     0.83420   0.83343   0.66346   0.00000  Uiso   1.00
C1474  C     0.83246   0.83323   0.83654   0.00000  Uiso   1.00
Zn1475 Zn    0.83333   0.88437   0.75000   0.00000  Uiso   1.00
Zn1476 Zn    0.83333   0.78229   0.75000   0.00000  Uiso   1.00
C1477  C     0.86652   0.85111   0.90548   0.00000  Uiso   1.00
C1478  C     0.80012   0.81556   0.59452   0.00000  Uiso   1.00
C1479  C     0.83219   0.83329   0.88419   0.00000  Uiso   1.00
C1480  C     0.83446   0.83338   0.61581   0.00000  Uiso   1.00
C1481  C     0.79751   0.81654   0.90798   0.00000  Uiso   1.00
C1482  C     0.86913   0.85014   0.59202   0.00000  Uiso   1.00
C1483  C     0.79669   0.81752   0.95473   0.00000  Uiso   1.00
C1484  C     0.86995   0.84917   0.54527   0.00000  Uiso   1.00
C1485  C     0.83266   0.83369   0.97665   0.00000  Uiso   1.00
C1486  C     0.83398   0.83300   0.52335   0.00000  Uiso   1.00
C1487  C     0.86734   0.85076   0.95178   0.00000  Uiso   1.00
C1488  C     0.79930   0.81593   0.54822   0.00000  Uiso   1.00
C1489  C     0.76160   0.80196   0.98022   0.00000  Uiso   1.00
C1490  C     0.90504   0.86475   0.51978   0.00000  Uiso   1.00
C1491  C     0.76387   0.80034   0.52679   0.00000  Uiso   1.00
C1492  C     0.90276   0.86637   0.97321   0.00000  Uiso   1.00
H1493  H     0.89294   0.86413   0.88583   0.00000  Uiso   1.00
H1494  H     0.77371   0.80255   0.61418   0.00000  Uiso   1.00
H1495  H     0.77153   0.80302   0.88973   0.00000  Uiso   1.00
H1496  H     0.89512   0.86366   0.61027   0.00000  Uiso   1.00
H1497  H     0.73730   0.78800   0.54653   0.00000  Uiso   1.00
H1498  H     0.92933   0.87872   0.95347   0.00000  Uiso   1.00
C1499  C     0.68716   0.79933   0.77418   0.00000  Uiso   1.00
C1500  C     0.97951   0.86734   0.72584   0.00000  Uiso   1.00
C1501  C     0.97760   0.80147   0.77707   0.00000  Uiso   1.00
C1502  C     0.68906   0.86519   0.72294   0.00000  Uiso   1.00
C1503  C     0.95744   0.83483   0.75199   0.00000  Uiso   1.00
C1504  C     0.70923   0.83184   0.74802   0.00000  Uiso   1.00
C1505  C     0.85601   0.69074   0.78034   0.00000  Uiso   1.00
C1506  C     0.81066   0.97593   0.71966   0.00000  Uiso   1.00
C1507  C     0.81062   0.69057   0.71969   0.00000  Uiso   1.00
C1508  C     0.85605   0.97610   0.78031   0.00000  Uiso   1.00
H1509  H     0.87406   0.70899   0.80463   0.00000  Uiso   1.00
H1510  H     0.79260   0.95768   0.69537   0.00000  Uiso   1.00
H1511  H     0.79242   0.70868   0.69550   0.00000  Uiso   1.00
H1512  H     0.87425   0.95798   0.80450   0.00000  Uiso   1.00
N1513  N     0.83333   0.95240   0.75000   0.00000  Uiso   1.00
N1514  N     0.83333   0.71427   0.75000   0.00000  Uiso   1.00
C1515  C     0.72117   0.78984   0.96028   0.00000  Uiso   1.00
C1516  C     0.69900   0.82243   0.93629   0.00000  Uiso   1.00
C1517  C     0.99242   0.81237   0.92123   0.00000  Uiso   1.00
C1518  C     0.97415   0.77004   0.93056   0.00000  Uiso   1.00
C1519  C     0.99600   0.73744   0.95433   0.00000  Uiso   1.00
C1520  C     0.70265   0.74726   0.96925   0.00000  Uiso   1.00
H1521  H     0.71234   0.85578   0.92989   0.00000  Uiso   1.00
H1522  H     0.97560   0.83747   0.90250   0.00000  Uiso   1.00
H1523  H     0.94301   0.76251   0.91954   0.00000  Uiso   1.00
H1524  H     0.98179   0.70468   0.96158   0.00000  Uiso   1.00
H1525  H     0.71898   0.72194   0.98829   0.00000  Uiso   1.00
C1526  C     0.94545   0.87690   0.53972   0.00000  Uiso   1.00
C1527  C     0.96392   0.91952   0.53079   0.00000  Uiso   1.00
C1528  C     0.67056   0.92939   0.54573   0.00000  Uiso   1.00
C1529  C     0.69244   0.89679   0.56948   0.00000  Uiso   1.00
C1530  C     0.67422   0.85443   0.57876   0.00000  Uiso   1.00
C1531  C     0.96766   0.84432   0.56369   0.00000  Uiso   1.00
H1532  H     0.94756   0.94483   0.51177   0.00000  Uiso   1.00
H1533  H     0.68472   0.96216   0.53851   0.00000  Uiso   1.00
H1534  H     0.72357   0.90436   0.58052   0.00000  Uiso   1.00
H1535  H     0.69107   0.82934   0.59747   0.00000  Uiso   1.00
H1536  H     0.95435   0.81095   0.57006   0.00000  Uiso   1.00
N1537  N     0.70826   0.76549   0.79952   0.00000  Uiso   1.00
O1538  O     0.71067   0.76932   0.84275   0.00000  Uiso   1.00
O1539  O     0.71855   0.72748   0.78059   0.00000  Uiso   1.00
N1540  N     0.95841   0.90118   0.70051   0.00000  Uiso   1.00
O1541  O     0.95591   0.89731   0.65728   0.00000  Uiso   1.00
O1542  O     0.94817   0.93922   0.71942   0.00000  Uiso   1.00
N1543  N     0.95476   0.77098   0.80668   0.00000  Uiso   1.00
O1544  O     0.96152   0.72759   0.80560   0.00000  Uiso   1.00
O1545  O     0.92759   0.78669   0.83542   0.00000  Uiso   1.00
N1546  N     0.71191   0.89568   0.69332   0.00000  Uiso   1.00
O1547  O     0.70515   0.93907   0.69438   0.00000  Uiso   1.00
O1548  O     0.73907   0.87995   0.66457   0.00000  Uiso   1.00
loop_
_geom_bond_atom_site_label_1
_geom_bond_atom_site_label_2
_geom_bond_distance
_geom_bond_site_symmetry_2
_ccdc_geom_bond_type
O1     C5      1.285   .     A
O1     Zn13    1.995   .     S
O2     C6      1.285   .     A
O2     Zn14    1.995   .     S
O3     C6      1.276   .     A
O3     Zn13    2.004   .     S
O4     Zn14    2.004   .     S
O4     C5      1.276   .     A
C5     C42     1.421   .     S
C6     C41     1.421   .     S
O7     C11     1.283   .     A
O7     Zn13    2.009   .     S
O8     C12     1.283   .     A
O8     Zn14    2.009   .     S
O9     Zn13    2.005   .     S
O9     C12     1.281   .     A
O10    Zn14    2.005   .     S
O10    C11     1.281   .     A
C11    C18     1.421   .     S
C12    C17     1.421   .     S
Zn13   N51     2.007   .     S
Zn14   N52     2.007   .     S
C15    C25     1.382   .     A
C15    C17     1.386   .     A
C15    H31     1.086   .     S
C16    C26     1.382   .     A
C16    H32     1.086   .     S
C16    C18     1.386   .     A
C17    C19     1.392   .     A
C18    C20     1.392   .     A
C19    C21     1.395   .     A
C19    H33     1.081   .     S
C20    H34     1.081   .     S
C20    C22     1.394   .     A
C21    C27     1.416   .     A
C21    C23     1.421   .     A
C22    C28     1.416   .     A
C22    C24     1.421   .     A
C23    C25     1.411   .     A
C23    C798    1.394   .     S
C24    C26     1.411   .     A
C24    C797    1.394   1_554 S
C25    C30     1.394   .     A
C26    C29     1.394   .     A
C27    C53     1.483   .     S
C27    C803    1.393   .     S
C28    C64     1.483   .     S
C28    C804    1.393   1_554 S
C29    H35     1.084   .     S
C29    C801    1.393   1_554 S
C30    H36     1.084   .     S
C30    C802    1.393   .     S
C37    C42     1.408   .     A
C37    N75     1.435   .     S
C37    C211    1.381   1_455 S
C38    C41     1.408   .     A
C38    N78     1.435   .     S
C38    C126    1.381   .     S
C39    C41     1.406   .     A
C39    N81     1.440   .     S
C39    C123    1.381   .     S
C40    N84     1.440   .     S
C40    C42     1.406   .     A
C40    C210    1.381   1_455 S
C43    N52     1.366   .     A
C43    H47     1.081   .     S
C43    C562    1.415   1_545 S
C44    N51     1.366   .     A
C44    H48     1.081   .     S
C44    C303    1.415   .     S
C45    N52     1.366   .     A
C45    H49     1.082   .     S
C45    C560    1.415   1_545 S
C46    N51     1.366   .     A
C46    H50     1.082   .     S
C46    C301    1.415   .     S
C53    C54     1.405   .     A
C53    C58     1.406   .     A
C54    H59     1.083   .     S
C54    C227    1.398   1_455 S
C55    C56     1.398   .     A
C55    H60     1.082   .     S
C55    C140    1.398   .     S
C56    C57     1.397   .     A
C56    H61     1.082   .     S
C57    H62     1.082   .     S
C57    C144    1.398   .     S
C58    H63     1.083   .     S
C58    C229    1.398   1_455 S
C64    C69     1.405   .     A
C64    C65     1.406   .     A
C65    H70     1.083   .     S
C65    C152    1.398   .     S
C66    C67     1.397   .     A
C66    H71     1.082   .     S
C66    C237    1.398   1_455 S
C67    H72     1.082   .     S
C67    C68     1.398   .     A
C68    H73     1.082   .     S
C68    C241    1.398   1_455 S
C69    H74     1.083   .     S
C69    C154    1.398   .     S
N75    O76     1.299   .     A
N75    O77     1.301   .     A
N78    O80     1.301   .     A
N78    O79     1.299   .     A
N81    O82     1.301   .     A
N81    O83     1.301   .     A
N84    O85     1.301   .     A
N84    O86     1.301   .     A
O87    C91     1.285   .     A
O87    Zn99    1.995   .     S
O88    C92     1.285   .     A
O88    Zn100   1.995   .     S
O89    C92     1.276   .     A
O89    Zn99    2.004   .     S
O90    Zn100   2.004   .     S
O90    C91     1.276   .     A
C91    C128    1.421   .     S
C92    C127    1.421   .     S
O93    C97     1.283   .     A
O93    Zn99    2.009   .     S
O94    C98     1.283   .     A
O94    Zn100   2.009   .     S
O95    Zn99    2.005   .     S
O95    C98     1.281   .     A
O96    Zn100   2.005   .     S
O96    C97     1.281   .     A
C97    C104    1.421   .     S
C98    C103    1.421   .     S
Zn99   N137    2.007   .     S
Zn100  N138    2.007   .     S
C101   C111    1.382   .     A
C101   C103    1.386   .     A
C101   H117    1.086   .     S
C102   C112    1.382   .     A
C102   H118    1.086   .     S
C102   C104    1.386   .     A
C103   C105    1.392   .     A
C104   C106    1.392   .     A
C105   C107    1.395   .     A
C105   H119    1.081   .     S
C106   H120    1.081   .     S
C106   C108    1.394   .     A
C107   C113    1.416   .     A
C107   C109    1.421   .     A
C108   C114    1.416   .     A
C108   C110    1.421   .     A
C109   C111    1.411   .     A
C109   C884    1.394   .     S
C110   C112    1.411   .     A
C110   C883    1.394   1_554 S
C111   C116    1.394   .     A
C112   C115    1.394   .     A
C113   C139    1.483   .     S
C113   C889    1.393   .     S
C114   C150    1.483   .     S
C114   C890    1.393   1_554 S
C115   H121    1.084   .     S
C115   C887    1.393   1_554 S
C116   H122    1.084   .     S
C116   C888    1.393   .     S
C123   C128    1.408   .     A
C123   N161    1.435   .     S
C124   C127    1.408   .     A
C124   N164    1.435   .     S
C124   C212    1.381   .     S
C125   C127    1.406   .     A
C125   N167    1.440   .     S
C125   C209    1.381   .     S
C126   N170    1.440   .     S
C126   C128    1.406   .     A
C129   N138    1.366   .     A
C129   H133    1.081   .     S
C129   C648    1.415   1_545 S
C130   N137    1.366   .     A
C130   H134    1.081   .     S
C130   C389    1.415   .     S
C131   N138    1.366   .     A
C131   H135    1.082   .     S
C131   C646    1.415   1_545 S
C132   N137    1.366   .     A
C132   H136    1.082   .     S
C132   C387    1.415   .     S
C139   C140    1.405   .     A
C139   C144    1.406   .     A
C140   H145    1.083   .     S
C141   C142    1.398   .     A
C141   H146    1.082   .     S
C141   C226    1.398   .     S
C142   C143    1.397   .     A
C142   H147    1.082   .     S
C143   H148    1.082   .     S
C143   C230    1.398   .     S
C144   H149    1.083   .     S
C150   C155    1.405   .     A
C150   C151    1.406   .     A
C151   H156    1.083   .     S
C151   C238    1.398   .     S
C152   C153    1.397   .     A
C152   H157    1.082   .     S
C153   H158    1.082   .     S
C153   C154    1.398   .     A
C154   H159    1.082   .     S
C155   H160    1.083   .     S
C155   C240    1.398   .     S
N161   O162    1.299   .     A
N161   O163    1.301   .     A
N164   O166    1.301   .     A
N164   O165    1.299   .     A
N167   O168    1.301   .     A
N167   O169    1.301   .     A
N170   O171    1.301   .     A
N170   O172    1.301   .     A
O173   C177    1.285   .     A
O173   Zn185   1.995   .     S
O174   C178    1.285   .     A
O174   Zn186   1.995   .     S
O175   C178    1.276   .     A
O175   Zn185   2.004   .     S
O176   Zn186   2.004   .     S
O176   C177    1.276   .     A
C177   C214    1.421   .     S
C178   C213    1.421   .     S
O179   C183    1.283   .     A
O179   Zn185   2.009   .     S
O180   C184    1.283   .     A
O180   Zn186   2.009   .     S
O181   Zn185   2.005   .     S
O181   C184    1.281   .     A
O182   Zn186   2.005   .     S
O182   C183    1.281   .     A
C183   C190    1.421   .     S
C184   C189    1.421   .     S
Zn185  N223    2.007   .     S
Zn186  N224    2.007   .     S
C187   C197    1.382   .     A
C187   C189    1.386   .     A
C187   H203    1.086   .     S
C188   C198    1.382   .     A
C188   H204    1.086   .     S
C188   C190    1.386   .     A
C189   C191    1.392   .     A
C190   C192    1.392   .     A
C191   C193    1.395   .     A
C191   H205    1.081   .     S
C192   H206    1.081   .     S
C192   C194    1.394   .     A
C193   C199    1.416   .     A
C193   C195    1.421   .     A
C194   C200    1.416   .     A
C194   C196    1.421   .     A
C195   C197    1.411   .     A
C195   C970    1.394   .     S
C196   C198    1.411   .     A
C196   C969    1.394   1_554 S
C197   C202    1.394   .     A
C198   C201    1.394   .     A
C199   C225    1.483   .     S
C199   C975    1.393   .     S
C200   C236    1.483   .     S
C200   C976    1.393   1_554 S
C201   H207    1.084   .     S
C201   C973    1.393   1_554 S
C202   H208    1.084   .     S
C202   C974    1.393   .     S
C209   C214    1.408   .     A
C209   N247    1.435   .     S
C210   C213    1.408   .     A
C210   N250    1.435   .     S
C210   C40     1.381   1_655 S
C211   C213    1.406   .     A
C211   N253    1.440   .     S
C211   C37     1.381   1_655 S
C212   N256    1.440   .     S
C212   C214    1.406   .     A
C215   N224    1.366   .     A
C215   H219    1.081   .     S
C215   C734    1.415   1_545 S
C216   N223    1.366   .     A
C216   H220    1.081   .     S
C216   C475    1.415   .     S
C217   N224    1.366   .     A
C217   H221    1.082   .     S
C217   C732    1.415   1_545 S
C218   N223    1.366   .     A
C218   H222    1.082   .     S
C218   C473    1.415   .     S
C225   C226    1.405   .     A
C225   C230    1.406   .     A
C226   H231    1.083   .     S
C227   C228    1.398   .     A
C227   H232    1.082   .     S
C227   C54     1.398   1_655 S
C228   C229    1.397   .     A
C228   H233    1.082   .     S
C229   H234    1.082   .     S
C229   C58     1.398   1_655 S
C230   H235    1.083   .     S
C236   C241    1.405   .     A
C236   C237    1.406   .     A
C237   H242    1.083   .     S
C237   C66     1.398   1_655 S
C238   C239    1.397   .     A
C238   H243    1.082   .     S
C239   H244    1.082   .     S
C239   C240    1.398   .     A
C240   H245    1.082   .     S
C241   H246    1.083   .     S
C241   C68     1.398   1_655 S
N247   O248    1.299   .     A
N247   O249    1.301   .     A
N250   O252    1.301   .     A
N250   O251    1.299   .     A
N253   O254    1.301   .     A
N253   O255    1.301   .     A
N256   O257    1.301   .     A
N256   O258    1.301   .     A
O259   C263    1.285   .     A
O259   Zn271   1.995   .     S
O260   C264    1.285   .     A
O260   Zn272   1.995   .     S
O261   C264    1.276   .     A
O261   Zn271   2.004   .     S
O262   Zn272   2.004   .     S
O262   C263    1.276   .     A
C263   C300    1.421   .     S
C264   C299    1.421   .     S
O265   C269    1.283   .     A
O265   Zn271   2.009   .     S
O266   C270    1.283   .     A
O266   Zn272   2.009   .     S
O267   Zn271   2.005   .     S
O267   C270    1.281   .     A
O268   Zn272   2.005   .     S
O268   C269    1.281   .     A
C269   C276    1.421   .     S
C270   C275    1.421   .     S
Zn271  N309    2.007   .     S
Zn272  N310    2.007   .     S
C273   C283    1.382   .     A
C273   C275    1.386   .     A
C273   H289    1.086   .     S
C274   C284    1.382   .     A
C274   H290    1.086   .     S
C274   C276    1.386   .     A
C275   C277    1.392   .     A
C276   C278    1.392   .     A
C277   C279    1.395   .     A
C277   H291    1.081   .     S
C278   H292    1.081   .     S
C278   C280    1.394   .     A
C279   C285    1.416   .     A
C279   C281    1.421   .     A
C280   C286    1.416   .     A
C280   C282    1.421   .     A
C281   C283    1.411   .     A
C281   C1056   1.394   .     S
C282   C284    1.411   .     A
C282   C1055   1.394   1_554 S
C283   C288    1.394   .     A
C284   C287    1.394   .     A
C285   C311    1.483   .     S
C285   C1061   1.393   .     S
C286   C322    1.483   .     S
C286   C1062   1.393   1_554 S
C287   H293    1.084   .     S
C287   C1059   1.393   1_554 S
C288   H294    1.084   .     S
C288   C1060   1.393   .     S
C295   C300    1.408   .     A
C295   N333    1.435   .     S
C295   C469    1.381   1_455 S
C296   C299    1.408   .     A
C296   N336    1.435   .     S
C296   C384    1.381   .     S
C297   C299    1.406   .     A
C297   N339    1.440   .     S
C297   C381    1.381   .     S
C298   N342    1.440   .     S
C298   C300    1.406   .     A
C298   C468    1.381   1_455 S
C301   N310    1.366   .     A
C301   H305    1.081   .     S
C302   N309    1.366   .     A
C302   H306    1.081   .     S
C302   C561    1.415   .     S
C303   N310    1.366   .     A
C303   H307    1.082   .     S
C304   N309    1.366   .     A
C304   H308    1.082   .     S
C304   C559    1.415   .     S
C311   C312    1.405   .     A
C311   C316    1.406   .     A
C312   H317    1.083   .     S
C312   C485    1.398   1_455 S
C313   C314    1.398   .     A
C313   H318    1.082   .     S
C313   C398    1.398   .     S
C314   C315    1.397   .     A
C314   H319    1.082   .     S
C315   H320    1.082   .     S
C315   C402    1.398   .     S
C316   H321    1.083   .     S
C316   C487    1.398   1_455 S
C322   C327    1.405   .     A
C322   C323    1.406   .     A
C323   H328    1.083   .     S
C323   C410    1.398   .     S
C324   C325    1.397   .     A
C324   H329    1.082   .     S
C324   C495    1.398   1_455 S
C325   H330    1.082   .     S
C325   C326    1.398   .     A
C326   H331    1.082   .     S
C326   C499    1.398   1_455 S
C327   H332    1.083   .     S
C327   C412    1.398   .     S
N333   O334    1.299   .     A
N333   O335    1.301   .     A
N336   O338    1.301   .     A
N336   O337    1.299   .     A
N339   O340    1.301   .     A
N339   O341    1.301   .     A
N342   O343    1.301   .     A
N342   O344    1.301   .     A
O345   C349    1.285   .     A
O345   Zn357   1.995   .     S
O346   C350    1.285   .     A
O346   Zn358   1.995   .     S
O347   C350    1.276   .     A
O347   Zn357   2.004   .     S
O348   Zn358   2.004   .     S
O348   C349    1.276   .     A
C349   C386    1.421   .     S
C350   C385    1.421   .     S
O351   C355    1.283   .     A
O351   Zn357   2.009   .     S
O352   C356    1.283   .     A
O352   Zn358   2.009   .     S
O353   Zn357   2.005   .     S
O353   C356    1.281   .     A
O354   Zn358   2.005   .     S
O354   C355    1.281   .     A
C355   C362    1.421   .     S
C356   C361    1.421   .     S
Zn357  N395    2.007   .     S
Zn358  N396    2.007   .     S
C359   C369    1.382   .     A
C359   C361    1.386   .     A
C359   H375    1.086   .     S
C360   C370    1.382   .     A
C360   H376    1.086   .     S
C360   C362    1.386   .     A
C361   C363    1.392   .     A
C362   C364    1.392   .     A
C363   C365    1.395   .     A
C363   H377    1.081   .     S
C364   H378    1.081   .     S
C364   C366    1.394   .     A
C365   C371    1.416   .     A
C365   C367    1.421   .     A
C366   C372    1.416   .     A
C366   C368    1.421   .     A
C367   C369    1.411   .     A
C367   C1142   1.394   .     S
C368   C370    1.411   .     A
C368   C1141   1.394   1_554 S
C369   C374    1.394   .     A
C370   C373    1.394   .     A
C371   C397    1.483   .     S
C371   C1147   1.393   .     S
C372   C408    1.483   .     S
C372   C1148   1.393   1_554 S
C373   H379    1.084   .     S
C373   C1145   1.393   1_554 S
C374   H380    1.084   .     S
C374   C1146   1.393   .     S
C381   C386    1.408   .     A
C381   N419    1.435   .     S
C382   C385    1.408   .     A
C382   N422    1.435   .     S
C382   C470    1.381   .     S
C383   C385    1.406   .     A
C383   N425    1.440   .     S
C383   C467    1.381   .     S
C384   N428    1.440   .     S
C384   C386    1.406   .     A
C387   N396    1.366   .     A
C387   H391    1.081   .     S
C388   N395    1.366   .     A
C388   H392    1.081   .     S
C388   C647    1.415   .     S
C389   N396    1.366   .     A
C389   H393    1.082   .     S
C390   N395    1.366   .     A
C390   H394    1.082   .     S
C390   C645    1.415   .     S
C397   C398    1.405   .     A
C397   C402    1.406   .     A
C398   H403    1.083   .     S
C399   C400    1.398   .     A
C399   H404    1.082   .     S
C399   C484    1.398   .     S
C400   C401    1.397   .     A
C400   H405    1.082   .     S
C401   H406    1.082   .     S
C401   C488    1.398   .     S
C402   H407    1.083   .     S
C408   C413    1.405   .     A
C408   C409    1.406   .     A
C409   H414    1.083   .     S
C409   C496    1.398   .     S
C410   C411    1.397   .     A
C410   H415    1.082   .     S
C411   H416    1.082   .     S
C411   C412    1.398   .     A
C412   H417    1.082   .     S
C413   H418    1.083   .     S
C413   C498    1.398   .     S
N419   O420    1.299   .     A
N419   O421    1.301   .     A
N422   O424    1.301   .     A
N422   O423    1.299   .     A
N425   O426    1.301   .     A
N425   O427    1.301   .     A
N428   O429    1.301   .     A
N428   O430    1.301   .     A
O431   C435    1.285   .     A
O431   Zn443   1.995   .     S
O432   C436    1.285   .     A
O432   Zn444   1.995   .     S
O433   C436    1.276   .     A
O433   Zn443   2.004   .     S
O434   Zn444   2.004   .     S
O434   C435    1.276   .     A
C435   C472    1.421   .     S
C436   C471    1.421   .     S
O437   C441    1.283   .     A
O437   Zn443   2.009   .     S
O438   C442    1.283   .     A
O438   Zn444   2.009   .     S
O439   Zn443   2.005   .     S
O439   C442    1.281   .     A
O440   Zn444   2.005   .     S
O440   C441    1.281   .     A
C441   C448    1.421   .     S
C442   C447    1.421   .     S
Zn443  N481    2.007   .     S
Zn444  N482    2.007   .     S
C445   C455    1.382   .     A
C445   C447    1.386   .     A
C445   H461    1.086   .     S
C446   C456    1.382   .     A
C446   H462    1.086   .     S
C446   C448    1.386   .     A
C447   C449    1.392   .     A
C448   C450    1.392   .     A
C449   C451    1.395   .     A
C449   H463    1.081   .     S
C450   H464    1.081   .     S
C450   C452    1.394   .     A
C451   C457    1.416   .     A
C451   C453    1.421   .     A
C452   C458    1.416   .     A
C452   C454    1.421   .     A
C453   C455    1.411   .     A
C453   C1228   1.394   .     S
C454   C456    1.411   .     A
C454   C1227   1.394   1_554 S
C455   C460    1.394   .     A
C456   C459    1.394   .     A
C457   C483    1.483   .     S
C457   C1233   1.393   .     S
C458   C494    1.483   .     S
C458   C1234   1.393   1_554 S
C459   H465    1.084   .     S
C459   C1231   1.393   1_554 S
C460   H466    1.084   .     S
C460   C1232   1.393   .     S
C467   C472    1.408   .     A
C467   N505    1.435   .     S
C468   C471    1.408   .     A
C468   N508    1.435   .     S
C468   C298    1.381   1_655 S
C469   C471    1.406   .     A
C469   N511    1.440   .     S
C469   C295    1.381   1_655 S
C470   N514    1.440   .     S
C470   C472    1.406   .     A
C473   N482    1.366   .     A
C473   H477    1.081   .     S
C474   N481    1.366   .     A
C474   H478    1.081   .     S
C474   C733    1.415   .     S
C475   N482    1.366   .     A
C475   H479    1.082   .     S
C476   N481    1.366   .     A
C476   H480    1.082   .     S
C476   C731    1.415   .     S
C483   C484    1.405   .     A
C483   C488    1.406   .     A
C484   H489    1.083   .     S
C485   C486    1.398   .     A
C485   H490    1.082   .     S
C485   C312    1.398   1_655 S
C486   C487    1.397   .     A
C486   H491    1.082   .     S
C487   H492    1.082   .     S
C487   C316    1.398   1_655 S
C488   H493    1.083   .     S
C494   C499    1.405   .     A
C494   C495    1.406   .     A
C495   H500    1.083   .     S
C495   C324    1.398   1_655 S
C496   C497    1.397   .     A
C496   H501    1.082   .     S
C497   H502    1.082   .     S
C497   C498    1.398   .     A
C498   H503    1.082   .     S
C499   H504    1.083   .     S
C499   C326    1.398   1_655 S
N505   O506    1.299   .     A
N505   O507    1.301   .     A
N508   O510    1.301   .     A
N508   O509    1.299   .     A
N511   O512    1.301   .     A
N511   O513    1.301   .     A
N514   O515    1.301   .     A
N514   O516    1.301   .     A
O517   C521    1.285   .     A
O517   Zn529   1.995   .     S
O518   C522    1.285   .     A
O518   Zn530   1.995   .     S
O519   C522    1.276   .     A
O519   Zn529   2.004   .     S
O520   Zn530   2.004   .     S
O520   C521    1.276   .     A
C521   C558    1.421   .     S
C522   C557    1.421   .     S
O523   C527    1.283   .     A
O523   Zn529   2.009   .     S
O524   C528    1.283   .     A
O524   Zn530   2.009   .     S
O525   Zn529   2.005   .     S
O525   C528    1.281   .     A
O526   Zn530   2.005   .     S
O526   C527    1.281   .     A
C527   C534    1.421   .     S
C528   C533    1.421   .     S
Zn529  N567    2.007   .     S
Zn530  N568    2.007   .     S
C531   C541    1.382   .     A
C531   C533    1.386   .     A
C531   H547    1.086   .     S
C532   C542    1.382   .     A
C532   H548    1.086   .     S
C532   C534    1.386   .     A
C533   C535    1.392   .     A
C534   C536    1.392   .     A
C535   C537    1.395   .     A
C535   H549    1.081   .     S
C536   H550    1.081   .     S
C536   C538    1.394   .     A
C537   C543    1.416   .     A
C537   C539    1.421   .     A
C538   C544    1.416   .     A
C538   C540    1.421   .     A
C539   C541    1.411   .     A
C539   C1314   1.394   .     S
C540   C542    1.411   .     A
C540   C1313   1.394   1_554 S
C541   C546    1.394   .     A
C542   C545    1.394   .     A
C543   C569    1.483   .     S
C543   C1319   1.393   .     S
C544   C580    1.483   .     S
C544   C1320   1.393   1_554 S
C545   H551    1.084   .     S
C545   C1317   1.393   1_554 S
C546   H552    1.084   .     S
C546   C1318   1.393   .     S
C553   C558    1.408   .     A
C553   N591    1.435   .     S
C553   C727    1.381   1_455 S
C554   C557    1.408   .     A
C554   N594    1.435   .     S
C554   C642    1.381   .     S
C555   C557    1.406   .     A
C555   N597    1.440   .     S
C555   C639    1.381   .     S
C556   N600    1.440   .     S
C556   C558    1.406   .     A
C556   C726    1.381   1_455 S
C559   N568    1.366   .     A
C559   H563    1.081   .     S
C560   N567    1.366   .     A
C560   H564    1.081   .     S
C560   C45     1.415   1_565 S
C561   N568    1.366   .     A
C561   H565    1.082   .     S
C562   N567    1.366   .     A
C562   H566    1.082   .     S
C562   C43     1.415   1_565 S
C569   C570    1.405   .     A
C569   C574    1.406   .     A
C570   H575    1.083   .     S
C570   C743    1.398   1_455 S
C571   C572    1.398   .     A
C571   H576    1.082   .     S
C571   C656    1.398   .     S
C572   C573    1.397   .     A
C572   H577    1.082   .     S
C573   H578    1.082   .     S
C573   C660    1.398   .     S
C574   H579    1.083   .     S
C574   C745    1.398   1_455 S
C580   C585    1.405   .     A
C580   C581    1.406   .     A
C581   H586    1.083   .     S
C581   C668    1.398   .     S
C582   C583    1.397   .     A
C582   H587    1.082   .     S
C582   C753    1.398   1_455 S
C583   H588    1.082   .     S
C583   C584    1.398   .     A
C584   H589    1.082   .     S
C584   C757    1.398   1_455 S
C585   H590    1.083   .     S
C585   C670    1.398   .     S
N591   O592    1.299   .     A
N591   O593    1.301   .     A
N594   O596    1.301   .     A
N594   O595    1.299   .     A
N597   O598    1.301   .     A
N597   O599    1.301   .     A
N600   O601    1.301   .     A
N600   O602    1.301   .     A
O603   C607    1.285   .     A
O603   Zn615   1.995   .     S
O604   C608    1.285   .     A
O604   Zn616   1.995   .     S
O605   C608    1.276   .     A
O605   Zn615   2.004   .     S
O606   Zn616   2.004   .     S
O606   C607    1.276   .     A
C607   C644    1.421   .     S
C608   C643    1.421   .     S
O609   C613    1.283   .     A
O609   Zn615   2.009   .     S
O610   C614    1.283   .     A
O610   Zn616   2.009   .     S
O611   Zn615   2.005   .     S
O611   C614    1.281   .     A
O612   Zn616   2.005   .     S
O612   C613    1.281   .     A
C613   C620    1.421   .     S
C614   C619    1.421   .     S
Zn615  N653    2.007   .     S
Zn616  N654    2.007   .     S
C617   C627    1.382   .     A
C617   C619    1.386   .     A
C617   H633    1.086   .     S
C618   C628    1.382   .     A
C618   H634    1.086   .     S
C618   C620    1.386   .     A
C619   C621    1.392   .     A
C620   C622    1.392   .     A
C621   C623    1.395   .     A
C621   H635    1.081   .     S
C622   H636    1.081   .     S
C622   C624    1.394   .     A
C623   C629    1.416   .     A
C623   C625    1.421   .     A
C624   C630    1.416   .     A
C624   C626    1.421   .     A
C625   C627    1.411   .     A
C625   C1400   1.394   .     S
C626   C628    1.411   .     A
C626   C1399   1.394   1_554 S
C627   C632    1.394   .     A
C628   C631    1.394   .     A
C629   C655    1.483   .     S
C629   C1405   1.393   .     S
C630   C666    1.483   .     S
C630   C1406   1.393   1_554 S
C631   H637    1.084   .     S
C631   C1403   1.393   1_554 S
C632   H638    1.084   .     S
C632   C1404   1.393   .     S
C639   C644    1.408   .     A
C639   N677    1.435   .     S
C640   C643    1.408   .     A
C640   N680    1.435   .     S
C640   C728    1.381   .     S
C641   C643    1.406   .     A
C641   N683    1.440   .     S
C641   C725    1.381   .     S
C642   N686    1.440   .     S
C642   C644    1.406   .     A
C645   N654    1.366   .     A
C645   H649    1.081   .     S
C646   N653    1.366   .     A
C646   H650    1.081   .     S
C646   C131    1.415   1_565 S
C647   N654    1.366   .     A
C647   H651    1.082   .     S
C648   N653    1.366   .     A
C648   H652    1.082   .     S
C648   C129    1.415   1_565 S
C655   C656    1.405   .     A
C655   C660    1.406   .     A
C656   H661    1.083   .     S
C657   C658    1.398   .     A
C657   H662    1.082   .     S
C657   C742    1.398   .     S
C658   C659    1.397   .     A
C658   H663    1.082   .     S
C659   H664    1.082   .     S
C659   C746    1.398   .     S
C660   H665    1.083   .     S
C666   C671    1.405   .     A
C666   C667    1.406   .     A
C667   H672    1.083   .     S
C667   C754    1.398   .     S
C668   C669    1.397   .     A
C668   H673    1.082   .     S
C669   H674    1.082   .     S
C669   C670    1.398   .     A
C670   H675    1.082   .     S
C671   H676    1.083   .     S
C671   C756    1.398   .     S
N677   O678    1.299   .     A
N677   O679    1.301   .     A
N680   O682    1.301   .     A
N680   O681    1.299   .     A
N683   O684    1.301   .     A
N683   O685    1.301   .     A
N686   O687    1.301   .     A
N686   O688    1.301   .     A
O689   C693    1.285   .     A
O689   Zn701   1.995   .     S
O690   C694    1.285   .     A
O690   Zn702   1.995   .     S
O691   C694    1.276   .     A
O691   Zn701   2.004   .     S
O692   Zn702   2.004   .     S
O692   C693    1.276   .     A
C693   C730    1.421   .     S
C694   C729    1.421   .     S
O695   C699    1.283   .     A
O695   Zn701   2.009   .     S
O696   C700    1.283   .     A
O696   Zn702   2.009   .     S
O697   Zn701   2.005   .     S
O697   C700    1.281   .     A
O698   Zn702   2.005   .     S
O698   C699    1.281   .     A
C699   C706    1.421   .     S
C700   C705    1.421   .     S
Zn701  N739    2.007   .     S
Zn702  N740    2.007   .     S
C703   C713    1.382   .     A
C703   C705    1.386   .     A
C703   H719    1.086   .     S
C704   C714    1.382   .     A
C704   H720    1.086   .     S
C704   C706    1.386   .     A
C705   C707    1.392   .     A
C706   C708    1.392   .     A
C707   C709    1.395   .     A
C707   H721    1.081   .     S
C708   H722    1.081   .     S
C708   C710    1.394   .     A
C709   C715    1.416   .     A
C709   C711    1.421   .     A
C710   C716    1.416   .     A
C710   C712    1.421   .     A
C711   C713    1.411   .     A
C711   C1486   1.394   .     S
C712   C714    1.411   .     A
C712   C1485   1.394   1_554 S
C713   C718    1.394   .     A
C714   C717    1.394   .     A
C715   C741    1.483   .     S
C715   C1491   1.393   .     S
C716   C752    1.483   .     S
C716   C1492   1.393   1_554 S
C717   H723    1.084   .     S
C717   C1489   1.393   1_554 S
C718   H724    1.084   .     S
C718   C1490   1.393   .     S
C725   C730    1.408   .     A
C725   N763    1.435   .     S
C726   C729    1.408   .     A
C726   N766    1.435   .     S
C726   C556    1.381   1_655 S
C727   C729    1.406   .     A
C727   N769    1.440   .     S
C727   C553    1.381   1_655 S
C728   N772    1.440   .     S
C728   C730    1.406   .     A
C731   N740    1.366   .     A
C731   H735    1.081   .     S
C732   N739    1.366   .     A
C732   H736    1.081   .     S
C732   C217    1.415   1_565 S
C733   N740    1.366   .     A
C733   H737    1.082   .     S
C734   N739    1.366   .     A
C734   H738    1.082   .     S
C734   C215    1.415   1_565 S
C741   C742    1.405   .     A
C741   C746    1.406   .     A
C742   H747    1.083   .     S
C743   C744    1.398   .     A
C743   H748    1.082   .     S
C743   C570    1.398   1_655 S
C744   C745    1.397   .     A
C744   H749    1.082   .     S
C745   H750    1.082   .     S
C745   C574    1.398   1_655 S
C746   H751    1.083   .     S
C752   C757    1.405   .     A
C752   C753    1.406   .     A
C753   H758    1.083   .     S
C753   C582    1.398   1_655 S
C754   C755    1.397   .     A
C754   H759    1.082   .     S
C755   H760    1.082   .     S
C755   C756    1.398   .     A
C756   H761    1.082   .     S
C757   H762    1.083   .     S
C757   C584    1.398   1_655 S
N763   O764    1.299   .     A
N763   O765    1.301   .     A
N766   O768    1.301   .     A
N766   O767    1.299   .     A
N769   O770    1.301   .     A
N769   O771    1.301   .     A
N772   O773    1.301   .     A
N772   O774    1.301   .     A
O775   C779    1.285   .     A
O775   Zn787   1.995   .     S
O776   C780    1.285   .     A
O776   Zn788   1.995   .     S
O777   C780    1.276   .     A
O777   Zn787   2.004   .     S
O778   Zn788   2.004   .     S
O778   C779    1.276   .     A
C779   C816    1.421   .     S
C780   C815    1.421   .     S
O781   C785    1.283   .     A
O781   Zn787   2.009   .     S
O782   C786    1.283   .     A
O782   Zn788   2.009   .     S
O783   Zn787   2.005   .     S
O783   C786    1.281   .     A
O784   Zn788   2.005   .     S
O784   C785    1.281   .     A
C785   C792    1.421   .     S
C786   C791    1.421   .     S
Zn787  N825    2.007   .     S
Zn788  N826    2.007   .     S
C789   C799    1.382   .     A
C789   C791    1.386   .     A
C789   H805    1.086   .     S
C790   C800    1.382   .     A
C790   H806    1.086   .     S
C790   C792    1.386   .     A
C791   C793    1.392   .     A
C792   C794    1.392   .     A
C793   C795    1.395   .     A
C793   H807    1.081   .     S
C794   H808    1.081   .     S
C794   C796    1.394   .     A
C795   C801    1.416   .     A
C795   C797    1.421   .     A
C796   C802    1.416   .     A
C796   C798    1.421   .     A
C797   C799    1.411   .     A
C797   C24     1.394   1_556 S
C798   C800    1.411   .     A
C799   C804    1.394   .     A
C800   C803    1.394   .     A
C801   C827    1.483   .     S
C801   C29     1.393   1_556 S
C802   C838    1.483   .     S
C803   H809    1.084   .     S
C804   H810    1.084   .     S
C804   C28     1.393   1_556 S
C811   C816    1.408   .     A
C811   N849    1.435   .     S
C811   C985    1.381   1_455 S
C812   C815    1.408   .     A
C812   N852    1.435   .     S
C812   C900    1.381   .     S
C813   C815    1.406   .     A
C813   N855    1.440   .     S
C813   C897    1.381   .     S
C814   N858    1.440   .     S
C814   C816    1.406   .     A
C814   C984    1.381   1_455 S
C817   N826    1.366   .     A
C817   H821    1.081   .     S
C817   C1336   1.415   1_545 S
C818   N825    1.366   .     A
C818   H822    1.081   .     S
C818   C1077   1.415   .     S
C819   N826    1.366   .     A
C819   H823    1.082   .     S
C819   C1334   1.415   1_545 S
C820   N825    1.366   .     A
C820   H824    1.082   .     S
C820   C1075   1.415   .     S
C827   C828    1.405   .     A
C827   C832    1.406   .     A
C828   H833    1.083   .     S
C828   C1001   1.398   1_455 S
C829   C830    1.398   .     A
C829   H834    1.082   .     S
C829   C914    1.398   .     S
C830   C831    1.397   .     A
C830   H835    1.082   .     S
C831   H836    1.082   .     S
C831   C918    1.398   .     S
C832   H837    1.083   .     S
C832   C1003   1.398   1_455 S
C838   C843    1.405   .     A
C838   C839    1.406   .     A
C839   H844    1.083   .     S
C839   C926    1.398   .     S
C840   C841    1.397   .     A
C840   H845    1.082   .     S
C840   C1011   1.398   1_455 S
C841   H846    1.082   .     S
C841   C842    1.398   .     A
C842   H847    1.082   .     S
C842   C1015   1.398   1_455 S
C843   H848    1.083   .     S
C843   C928    1.398   .     S
N849   O850    1.299   .     A
N849   O851    1.301   .     A
N852   O854    1.301   .     A
N852   O853    1.299   .     A
N855   O856    1.301   .     A
N855   O857    1.301   .     A
N858   O859    1.301   .     A
N858   O860    1.301   .     A
O861   C865    1.285   .     A
O861   Zn873   1.995   .     S
O862   C866    1.285   .     A
O862   Zn874   1.995   .     S
O863   C866    1.276   .     A
O863   Zn873   2.004   .     S
O864   Zn874   2.004   .     S
O864   C865    1.276   .     A
C865   C902    1.421   .     S
C866   C901    1.421   .     S
O867   C871    1.283   .     A
O867   Zn873   2.009   .     S
O868   C872    1.283   .     A
O868   Zn874   2.009   .     S
O869   Zn873   2.005   .     S
O869   C872    1.281   .     A
O870   Zn874   2.005   .     S
O870   C871    1.281   .     A
C871   C878    1.421   .     S
C872   C877    1.421   .     S
Zn873  N911    2.007   .     S
Zn874  N912    2.007   .     S
C875   C885    1.382   .     A
C875   C877    1.386   .     A
C875   H891    1.086   .     S
C876   C886    1.382   .     A
C876   H892    1.086   .     S
C876   C878    1.386   .     A
C877   C879    1.392   .     A
C878   C880    1.392   .     A
C879   C881    1.395   .     A
C879   H893    1.081   .     S
C880   H894    1.081   .     S
C880   C882    1.394   .     A
C881   C887    1.416   .     A
C881   C883    1.421   .     A
C882   C888    1.416   .     A
C882   C884    1.421   .     A
C883   C885    1.411   .     A
C883   C110    1.394   1_556 S
C884   C886    1.411   .     A
C885   C890    1.394   .     A
C886   C889    1.394   .     A
C887   C913    1.483   .     S
C887   C115    1.393   1_556 S
C888   C924    1.483   .     S
C889   H895    1.084   .     S
C890   H896    1.084   .     S
C890   C114    1.393   1_556 S
C897   C902    1.408   .     A
C897   N935    1.435   .     S
C898   C901    1.408   .     A
C898   N938    1.435   .     S
C898   C986    1.381   .     S
C899   C901    1.406   .     A
C899   N941    1.440   .     S
C899   C983    1.381   .     S
C900   N944    1.440   .     S
C900   C902    1.406   .     A
C903   N912    1.366   .     A
C903   H907    1.081   .     S
C903   C1422   1.415   1_545 S
C904   N911    1.366   .     A
C904   H908    1.081   .     S
C904   C1163   1.415   .     S
C905   N912    1.366   .     A
C905   H909    1.082   .     S
C905   C1420   1.415   1_545 S
C906   N911    1.366   .     A
C906   H910    1.082   .     S
C906   C1161   1.415   .     S
C913   C914    1.405   .     A
C913   C918    1.406   .     A
C914   H919    1.083   .     S
C915   C916    1.398   .     A
C915   H920    1.082   .     S
C915   C1000   1.398   .     S
C916   C917    1.397   .     A
C916   H921    1.082   .     S
C917   H922    1.082   .     S
C917   C1004   1.398   .     S
C918   H923    1.083   .     S
C924   C929    1.405   .     A
C924   C925    1.406   .     A
C925   H930    1.083   .     S
C925   C1012   1.398   .     S
C926   C927    1.397   .     A
C926   H931    1.082   .     S
C927   H932    1.082   .     S
C927   C928    1.398   .     A
C928   H933    1.082   .     S
C929   H934    1.083   .     S
C929   C1014   1.398   .     S
N935   O936    1.299   .     A
N935   O937    1.301   .     A
N938   O940    1.301   .     A
N938   O939    1.299   .     A
N941   O942    1.301   .     A
N941   O943    1.301   .     A
N944   O945    1.301   .     A
N944   O946    1.301   .     A
O947   C951    1.285   .     A
O947   Zn959   1.995   .     S
O948   C952    1.285   .     A
O948   Zn960   1.995   .     S
O949   C952    1.276   .     A
O949   Zn959   2.004   .     S
O950   Zn960   2.004   .     S
O950   C951    1.276   .     A
C951   C988    1.421   .     S
C952   C987    1.421   .     S
O953   C957    1.283   .     A
O953   Zn959   2.009   .     S
O954   C958    1.283   .     A
O954   Zn960   2.009   .     S
O955   Zn959   2.005   .     S
O955   C958    1.281   .     A
O956   Zn960   2.005   .     S
O956   C957    1.281   .     A
C957   C964    1.421   .     S
C958   C963    1.421   .     S
Zn959  N997    2.007   .     S
Zn960  N998    2.007   .     S
C961   C971    1.382   .     A
C961   C963    1.386   .     A
C961   H977    1.086   .     S
C962   C972    1.382   .     A
C962   H978    1.086   .     S
C962   C964    1.386   .     A
C963   C965    1.392   .     A
C964   C966    1.392   .     A
C965   C967    1.395   .     A
C965   H979    1.081   .     S
C966   H980    1.081   .     S
C966   C968    1.394   .     A
C967   C973    1.416   .     A
C967   C969    1.421   .     A
C968   C974    1.416   .     A
C968   C970    1.421   .     A
C969   C971    1.411   .     A
C969   C196    1.394   1_556 S
C970   C972    1.411   .     A
C971   C976    1.394   .     A
C972   C975    1.394   .     A
C973   C999    1.483   .     S
C973   C201    1.393   1_556 S
C974   C1010   1.483   .     S
C975   H981    1.084   .     S
C976   H982    1.084   .     S
C976   C200    1.393   1_556 S
C983   C988    1.408   .     A
C983   N1021   1.435   .     S
C984   C987    1.408   .     A
C984   N1024   1.435   .     S
C984   C814    1.381   1_655 S
C985   C987    1.406   .     A
C985   N1027   1.440   .     S
C985   C811    1.381   1_655 S
C986   N1030   1.440   .     S
C986   C988    1.406   .     A
C989   N998    1.366   .     A
C989   H993    1.081   .     S
C989   C1508   1.415   1_545 S
C990   N997    1.366   .     A
C990   H994    1.081   .     S
C990   C1249   1.415   .     S
C991   N998    1.366   .     A
C991   H995    1.082   .     S
C991   C1506   1.415   1_545 S
C992   N997    1.366   .     A
C992   H996    1.082   .     S
C992   C1247   1.415   .     S
C999   C1000   1.405   .     A
C999   C1004   1.406   .     A
C1000  H1005   1.083   .     S
C1001  C1002   1.398   .     A
C1001  H1006   1.082   .     S
C1001  C828    1.398   1_655 S
C1002  C1003   1.397   .     A
C1002  H1007   1.082   .     S
C1003  H1008   1.082   .     S
C1003  C832    1.398   1_655 S
C1004  H1009   1.083   .     S
C1010  C1015   1.405   .     A
C1010  C1011   1.406   .     A
C1011  H1016   1.083   .     S
C1011  C840    1.398   1_655 S
C1012  C1013   1.397   .     A
C1012  H1017   1.082   .     S
C1013  H1018   1.082   .     S
C1013  C1014   1.398   .     A
C1014  H1019   1.082   .     S
C1015  H1020   1.083   .     S
C1015  C842    1.398   1_655 S
N1021  O1022   1.299   .     A
N1021  O1023   1.301   .     A
N1024  O1026   1.301   .     A
N1024  O1025   1.299   .     A
N1027  O1028   1.301   .     A
N1027  O1029   1.301   .     A
N1030  O1031   1.301   .     A
N1030  O1032   1.301   .     A
O1033  C1037   1.285   .     A
O1033  Zn1045  1.995   .     S
O1034  C1038   1.285   .     A
O1034  Zn1046  1.995   .     S
O1035  C1038   1.276   .     A
O1035  Zn1045  2.004   .     S
O1036  Zn1046  2.004   .     S
O1036  C1037   1.276   .     A
C1037  C1074   1.421   .     S
C1038  C1073   1.421   .     S
O1039  C1043   1.283   .     A
O1039  Zn1045  2.009   .     S
O1040  C1044   1.283   .     A
O1040  Zn1046  2.009   .     S
O1041  Zn1045  2.005   .     S
O1041  C1044   1.281   .     A
O1042  Zn1046  2.005   .     S
O1042  C1043   1.281   .     A
C1043  C1050   1.421   .     S
C1044  C1049   1.421   .     S
Zn1045 N1083   2.007   .     S
Zn1046 N1084   2.007   .     S
C1047  C1057   1.382   .     A
C1047  C1049   1.386   .     A
C1047  H1063   1.086   .     S
C1048  C1058   1.382   .     A
C1048  H1064   1.086   .     S
C1048  C1050   1.386   .     A
C1049  C1051   1.392   .     A
C1050  C1052   1.392   .     A
C1051  C1053   1.395   .     A
C1051  H1065   1.081   .     S
C1052  H1066   1.081   .     S
C1052  C1054   1.394   .     A
C1053  C1059   1.416   .     A
C1053  C1055   1.421   .     A
C1054  C1060   1.416   .     A
C1054  C1056   1.421   .     A
C1055  C1057   1.411   .     A
C1055  C282    1.394   1_556 S
C1056  C1058   1.411   .     A
C1057  C1062   1.394   .     A
C1058  C1061   1.394   .     A
C1059  C1085   1.483   .     S
C1059  C287    1.393   1_556 S
C1060  C1096   1.483   .     S
C1061  H1067   1.084   .     S
C1062  H1068   1.084   .     S
C1062  C286    1.393   1_556 S
C1069  C1074   1.408   .     A
C1069  N1107   1.435   .     S
C1069  C1243   1.381   1_455 S
C1070  C1073   1.408   .     A
C1070  N1110   1.435   .     S
C1070  C1158   1.381   .     S
C1071  C1073   1.406   .     A
C1071  N1113   1.440   .     S
C1071  C1155   1.381   .     S
C1072  N1116   1.440   .     S
C1072  C1074   1.406   .     A
C1072  C1242   1.381   1_455 S
C1075  N1084   1.366   .     A
C1075  H1079   1.081   .     S
C1076  N1083   1.366   .     A
C1076  H1080   1.081   .     S
C1076  C1335   1.415   .     S
C1077  N1084   1.366   .     A
C1077  H1081   1.082   .     S
C1078  N1083   1.366   .     A
C1078  H1082   1.082   .     S
C1078  C1333   1.415   .     S
C1085  C1086   1.405   .     A
C1085  C1090   1.406   .     A
C1086  H1091   1.083   .     S
C1086  C1259   1.398   1_455 S
C1087  C1088   1.398   .     A
C1087  H1092   1.082   .     S
C1087  C1172   1.398   .     S
C1088  C1089   1.397   .     A
C1088  H1093   1.082   .     S
C1089  H1094   1.082   .     S
C1089  C1176   1.398   .     S
C1090  H1095   1.083   .     S
C1090  C1261   1.398   1_455 S
C1096  C1101   1.405   .     A
C1096  C1097   1.406   .     A
C1097  H1102   1.083   .     S
C1097  C1184   1.398   .     S
C1098  C1099   1.397   .     A
C1098  H1103   1.082   .     S
C1098  C1269   1.398   1_455 S
C1099  H1104   1.082   .     S
C1099  C1100   1.398   .     A
C1100  H1105   1.082   .     S
C1100  C1273   1.398   1_455 S
C1101  H1106   1.083   .     S
C1101  C1186   1.398   .     S
N1107  O1108   1.299   .     A
N1107  O1109   1.301   .     A
N1110  O1112   1.301   .     A
N1110  O1111   1.299   .     A
N1113  O1114   1.301   .     A
N1113  O1115   1.301   .     A
N1116  O1117   1.301   .     A
N1116  O1118   1.301   .     A
O1119  C1123   1.285   .     A
O1119  Zn1131  1.995   .     S
O1120  C1124   1.285   .     A
O1120  Zn1132  1.995   .     S
O1121  C1124   1.276   .     A
O1121  Zn1131  2.004   .     S
O1122  Zn1132  2.004   .     S
O1122  C1123   1.276   .     A
C1123  C1160   1.421   .     S
C1124  C1159   1.421   .     S
O1125  C1129   1.283   .     A
O1125  Zn1131  2.009   .     S
O1126  C1130   1.283   .     A
O1126  Zn1132  2.009   .     S
O1127  Zn1131  2.005   .     S
O1127  C1130   1.281   .     A
O1128  Zn1132  2.005   .     S
O1128  C1129   1.281   .     A
C1129  C1136   1.421   .     S
C1130  C1135   1.421   .     S
Zn1131 N1169   2.007   .     S
Zn1132 N1170   2.007   .     S
C1133  C1143   1.382   .     A
C1133  C1135   1.386   .     A
C1133  H1149   1.086   .     S
C1134  C1144   1.382   .     A
C1134  H1150   1.086   .     S
C1134  C1136   1.386   .     A
C1135  C1137   1.392   .     A
C1136  C1138   1.392   .     A
C1137  C1139   1.395   .     A
C1137  H1151   1.081   .     S
C1138  H1152   1.081   .     S
C1138  C1140   1.394   .     A
C1139  C1145   1.416   .     A
C1139  C1141   1.421   .     A
C1140  C1146   1.416   .     A
C1140  C1142   1.421   .     A
C1141  C1143   1.411   .     A
C1141  C368    1.394   1_556 S
C1142  C1144   1.411   .     A
C1143  C1148   1.394   .     A
C1144  C1147   1.394   .     A
C1145  C1171   1.483   .     S
C1145  C373    1.393   1_556 S
C1146  C1182   1.483   .     S
C1147  H1153   1.084   .     S
C1148  H1154   1.084   .     S
C1148  C372    1.393   1_556 S
C1155  C1160   1.408   .     A
C1155  N1193   1.435   .     S
C1156  C1159   1.408   .     A
C1156  N1196   1.435   .     S
C1156  C1244   1.381   .     S
C1157  C1159   1.406   .     A
C1157  N1199   1.440   .     S
C1157  C1241   1.381   .     S
C1158  N1202   1.440   .     S
C1158  C1160   1.406   .     A
C1161  N1170   1.366   .     A
C1161  H1165   1.081   .     S
C1162  N1169   1.366   .     A
C1162  H1166   1.081   .     S
C1162  C1421   1.415   .     S
C1163  N1170   1.366   .     A
C1163  H1167   1.082   .     S
C1164  N1169   1.366   .     A
C1164  H1168   1.082   .     S
C1164  C1419   1.415   .     S
C1171  C1172   1.405   .     A
C1171  C1176   1.406   .     A
C1172  H1177   1.083   .     S
C1173  C1174   1.398   .     A
C1173  H1178   1.082   .     S
C1173  C1258   1.398   .     S
C1174  C1175   1.397   .     A
C1174  H1179   1.082   .     S
C1175  H1180   1.082   .     S
C1175  C1262   1.398   .     S
C1176  H1181   1.083   .     S
C1182  C1187   1.405   .     A
C1182  C1183   1.406   .     A
C1183  H1188   1.083   .     S
C1183  C1270   1.398   .     S
C1184  C1185   1.397   .     A
C1184  H1189   1.082   .     S
C1185  H1190   1.082   .     S
C1185  C1186   1.398   .     A
C1186  H1191   1.082   .     S
C1187  H1192   1.083   .     S
C1187  C1272   1.398   .     S
N1193  O1194   1.299   .     A
N1193  O1195   1.301   .     A
N1196  O1198   1.301   .     A
N1196  O1197   1.299   .     A
N1199  O1200   1.301   .     A
N1199  O1201   1.301   .     A
N1202  O1203   1.301   .     A
N1202  O1204   1.301   .     A
O1205  C1209   1.285   .     A
O1205  Zn1217  1.995   .     S
O1206  C1210   1.285   .     A
O1206  Zn1218  1.995   .     S
O1207  C1210   1.276   .     A
O1207  Zn1217  2.004   .     S
O1208  Zn1218  2.004   .     S
O1208  C1209   1.276   .     A
C1209  C1246   1.421   .     S
C1210  C1245   1.421   .     S
O1211  C1215   1.283   .     A
O1211  Zn1217  2.009   .     S
O1212  C1216   1.283   .     A
O1212  Zn1218  2.009   .     S
O1213  Zn1217  2.005   .     S
O1213  C1216   1.281   .     A
O1214  Zn1218  2.005   .     S
O1214  C1215   1.281   .     A
C1215  C1222   1.421   .     S
C1216  C1221   1.421   .     S
Zn1217 N1255   2.007   .     S
Zn1218 N1256   2.007   .     S
C1219  C1229   1.382   .     A
C1219  C1221   1.386   .     A
C1219  H1235   1.086   .     S
C1220  C1230   1.382   .     A
C1220  H1236   1.086   .     S
C1220  C1222   1.386   .     A
C1221  C1223   1.392   .     A
C1222  C1224   1.392   .     A
C1223  C1225   1.395   .     A
C1223  H1237   1.081   .     S
C1224  H1238   1.081   .     S
C1224  C1226   1.394   .     A
C1225  C1231   1.416   .     A
C1225  C1227   1.421   .     A
C1226  C1232   1.416   .     A
C1226  C1228   1.421   .     A
C1227  C1229   1.411   .     A
C1227  C454    1.394   1_556 S
C1228  C1230   1.411   .     A
C1229  C1234   1.394   .     A
C1230  C1233   1.394   .     A
C1231  C1257   1.483   .     S
C1231  C459    1.393   1_556 S
C1232  C1268   1.483   .     S
C1233  H1239   1.084   .     S
C1234  H1240   1.084   .     S
C1234  C458    1.393   1_556 S
C1241  C1246   1.408   .     A
C1241  N1279   1.435   .     S
C1242  C1245   1.408   .     A
C1242  N1282   1.435   .     S
C1242  C1072   1.381   1_655 S
C1243  C1245   1.406   .     A
C1243  N1285   1.440   .     S
C1243  C1069   1.381   1_655 S
C1244  N1288   1.440   .     S
C1244  C1246   1.406   .     A
C1247  N1256   1.366   .     A
C1247  H1251   1.081   .     S
C1248  N1255   1.366   .     A
C1248  H1252   1.081   .     S
C1248  C1507   1.415   .     S
C1249  N1256   1.366   .     A
C1249  H1253   1.082   .     S
C1250  N1255   1.366   .     A
C1250  H1254   1.082   .     S
C1250  C1505   1.415   .     S
C1257  C1258   1.405   .     A
C1257  C1262   1.406   .     A
C1258  H1263   1.083   .     S
C1259  C1260   1.398   .     A
C1259  H1264   1.082   .     S
C1259  C1086   1.398   1_655 S
C1260  C1261   1.397   .     A
C1260  H1265   1.082   .     S
C1261  H1266   1.082   .     S
C1261  C1090   1.398   1_655 S
C1262  H1267   1.083   .     S
C1268  C1273   1.405   .     A
C1268  C1269   1.406   .     A
C1269  H1274   1.083   .     S
C1269  C1098   1.398   1_655 S
C1270  C1271   1.397   .     A
C1270  H1275   1.082   .     S
C1271  H1276   1.082   .     S
C1271  C1272   1.398   .     A
C1272  H1277   1.082   .     S
C1273  H1278   1.083   .     S
C1273  C1100   1.398   1_655 S
N1279  O1280   1.299   .     A
N1279  O1281   1.301   .     A
N1282  O1284   1.301   .     A
N1282  O1283   1.299   .     A
N1285  O1286   1.301   .     A
N1285  O1287   1.301   .     A
N1288  O1289   1.301   .     A
N1288  O1290   1.301   .     A
O1291  C1295   1.285   .     A
O1291  Zn1303  1.995   .     S
O1292  C1296   1.285   .     A
O1292  Zn1304  1.995   .     S
O1293  C1296   1.276   .     A
O1293  Zn1303  2.004   .     S
O1294  Zn1304  2.004   .     S
O1294  C1295   1.276   .     A
C1295  C1332   1.421   .     S
C1296  C1331   1.421   .     S
O1297  C1301   1.283   .     A
O1297  Zn1303  2.009   .     S
O1298  C1302   1.283   .     A
O1298  Zn1304  2.009   .     S
O1299  Zn1303  2.005   .     S
O1299  C1302   1.281   .     A
O1300  Zn1304  2.005   .     S
O1300  C1301   1.281   .     A
C1301  C1308   1.421   .     S
C1302  C1307   1.421   .     S
Zn1303 N1341   2.007   .     S
Zn1304 N1342   2.007   .     S
C1305  C1315   1.382   .     A
C1305  C1307   1.386   .     A
C1305  H1321   1.086   .     S
C1306  C1316   1.382   .     A
C1306  H1322   1.086   .     S
C1306  C1308   1.386   .     A
C1307  C1309   1.392   .     A
C1308  C1310   1.392   .     A
C1309  C1311   1.395   .     A
C1309  H1323   1.081   .     S
C1310  H1324   1.081   .     S
C1310  C1312   1.394   .     A
C1311  C1317   1.416   .     A
C1311  C1313   1.421   .     A
C1312  C1318   1.416   .     A
C1312  C1314   1.421   .     A
C1313  C1315   1.411   .     A
C1313  C540    1.394   1_556 S
C1314  C1316   1.411   .     A
C1315  C1320   1.394   .     A
C1316  C1319   1.394   .     A
C1317  C1343   1.483   .     S
C1317  C545    1.393   1_556 S
C1318  C1354   1.483   .     S
C1319  H1325   1.084   .     S
C1320  H1326   1.084   .     S
C1320  C544    1.393   1_556 S
C1327  C1332   1.408   .     A
C1327  N1365   1.435   .     S
C1327  C1501   1.381   1_455 S
C1328  C1331   1.408   .     A
C1328  N1368   1.435   .     S
C1328  C1416   1.381   .     S
C1329  C1331   1.406   .     A
C1329  N1371   1.440   .     S
C1329  C1413   1.381   .     S
C1330  N1374   1.440   .     S
C1330  C1332   1.406   .     A
C1330  C1500   1.381   1_455 S
C1333  N1342   1.366   .     A
C1333  H1337   1.081   .     S
C1334  N1341   1.366   .     A
C1334  H1338   1.081   .     S
C1334  C819    1.415   1_565 S
C1335  N1342   1.366   .     A
C1335  H1339   1.082   .     S
C1336  N1341   1.366   .     A
C1336  H1340   1.082   .     S
C1336  C817    1.415   1_565 S
C1343  C1344   1.405   .     A
C1343  C1348   1.406   .     A
C1344  H1349   1.083   .     S
C1344  C1517   1.398   1_455 S
C1345  C1346   1.398   .     A
C1345  H1350   1.082   .     S
C1345  C1430   1.398   .     S
C1346  C1347   1.397   .     A
C1346  H1351   1.082   .     S
C1347  H1352   1.082   .     S
C1347  C1434   1.398   .     S
C1348  H1353   1.083   .     S
C1348  C1519   1.398   1_455 S
C1354  C1359   1.405   .     A
C1354  C1355   1.406   .     A
C1355  H1360   1.083   .     S
C1355  C1442   1.398   .     S
C1356  C1357   1.397   .     A
C1356  H1361   1.082   .     S
C1356  C1527   1.398   1_455 S
C1357  H1362   1.082   .     S
C1357  C1358   1.398   .     A
C1358  H1363   1.082   .     S
C1358  C1531   1.398   1_455 S
C1359  H1364   1.083   .     S
C1359  C1444   1.398   .     S
N1365  O1366   1.299   .     A
N1365  O1367   1.301   .     A
N1368  O1370   1.301   .     A
N1368  O1369   1.299   .     A
N1371  O1372   1.301   .     A
N1371  O1373   1.301   .     A
N1374  O1375   1.301   .     A
N1374  O1376   1.301   .     A
O1377  C1381   1.285   .     A
O1377  Zn1389  1.995   .     S
O1378  C1382   1.285   .     A
O1378  Zn1390  1.995   .     S
O1379  C1382   1.276   .     A
O1379  Zn1389  2.004   .     S
O1380  Zn1390  2.004   .     S
O1380  C1381   1.276   .     A
C1381  C1418   1.421   .     S
C1382  C1417   1.421   .     S
O1383  C1387   1.283   .     A
O1383  Zn1389  2.009   .     S
O1384  C1388   1.283   .     A
O1384  Zn1390  2.009   .     S
O1385  Zn1389  2.005   .     S
O1385  C1388   1.281   .     A
O1386  Zn1390  2.005   .     S
O1386  C1387   1.281   .     A
C1387  C1394   1.421   .     S
C1388  C1393   1.421   .     S
Zn1389 N1427   2.007   .     S
Zn1390 N1428   2.007   .     S
C1391  C1401   1.382   .     A
C1391  C1393   1.386   .     A
C1391  H1407   1.086   .     S
C1392  C1402   1.382   .     A
C1392  H1408   1.086   .     S
C1392  C1394   1.386   .     A
C1393  C1395   1.392   .     A
C1394  C1396   1.392   .     A
C1395  C1397   1.395   .     A
C1395  H1409   1.081   .     S
C1396  H1410   1.081   .     S
C1396  C1398   1.394   .     A
C1397  C1403   1.416   .     A
C1397  C1399   1.421   .     A
C1398  C1404   1.416   .     A
C1398  C1400   1.421   .     A
C1399  C1401   1.411   .     A
C1399  C626    1.394   1_556 S
C1400  C1402   1.411   .     A
C1401  C1406   1.394   .     A
C1402  C1405   1.394   .     A
C1403  C1429   1.483   .     S
C1403  C631    1.393   1_556 S
C1404  C1440   1.483   .     S
C1405  H1411   1.084   .     S
C1406  H1412   1.084   .     S
C1406  C630    1.393   1_556 S
C1413  C1418   1.408   .     A
C1413  N1451   1.435   .     S
C1414  C1417   1.408   .     A
C1414  N1454   1.435   .     S
C1414  C1502   1.381   .     S
C1415  C1417   1.406   .     A
C1415  N1457   1.440   .     S
C1415  C1499   1.381   .     S
C1416  N1460   1.440   .     S
C1416  C1418   1.406   .     A
C1419  N1428   1.366   .     A
C1419  H1423   1.081   .     S
C1420  N1427   1.366   .     A
C1420  H1424   1.081   .     S
C1420  C905    1.415   1_565 S
C1421  N1428   1.366   .     A
C1421  H1425   1.082   .     S
C1422  N1427   1.366   .     A
C1422  H1426   1.082   .     S
C1422  C903    1.415   1_565 S
C1429  C1430   1.405   .     A
C1429  C1434   1.406   .     A
C1430  H1435   1.083   .     S
C1431  C1432   1.398   .     A
C1431  H1436   1.082   .     S
C1431  C1516   1.398   .     S
C1432  C1433   1.397   .     A
C1432  H1437   1.082   .     S
C1433  H1438   1.082   .     S
C1433  C1520   1.398   .     S
C1434  H1439   1.083   .     S
C1440  C1445   1.405   .     A
C1440  C1441   1.406   .     A
C1441  H1446   1.083   .     S
C1441  C1528   1.398   .     S
C1442  C1443   1.397   .     A
C1442  H1447   1.082   .     S
C1443  H1448   1.082   .     S
C1443  C1444   1.398   .     A
C1444  H1449   1.082   .     S
C1445  H1450   1.083   .     S
C1445  C1530   1.398   .     S
N1451  O1452   1.299   .     A
N1451  O1453   1.301   .     A
N1454  O1456   1.301   .     A
N1454  O1455   1.299   .     A
N1457  O1458   1.301   .     A
N1457  O1459   1.301   .     A
N1460  O1461   1.301   .     A
N1460  O1462   1.301   .     A
O1463  C1467   1.285   .     A
O1463  Zn1475  1.995   .     S
O1464  C1468   1.285   .     A
O1464  Zn1476  1.995   .     S
O1465  C1468   1.276   .     A
O1465  Zn1475  2.004   .     S
O1466  Zn1476  2.004   .     S
O1466  C1467   1.276   .     A
C1467  C1504   1.421   .     S
C1468  C1503   1.421   .     S
O1469  C1473   1.283   .     A
O1469  Zn1475  2.009   .     S
O1470  C1474   1.283   .     A
O1470  Zn1476  2.009   .     S
O1471  Zn1475  2.005   .     S
O1471  C1474   1.281   .     A
O1472  Zn1476  2.005   .     S
O1472  C1473   1.281   .     A
C1473  C1480   1.421   .     S
C1474  C1479   1.421   .     S
Zn1475 N1513   2.007   .     S
Zn1476 N1514   2.007   .     S
C1477  C1487   1.382   .     A
C1477  C1479   1.386   .     A
C1477  H1493   1.086   .     S
C1478  C1488   1.382   .     A
C1478  H1494   1.086   .     S
C1478  C1480   1.386   .     A
C1479  C1481   1.392   .     A
C1480  C1482   1.392   .     A
C1481  C1483   1.395   .     A
C1481  H1495   1.081   .     S
C1482  H1496   1.081   .     S
C1482  C1484   1.394   .     A
C1483  C1489   1.416   .     A
C1483  C1485   1.421   .     A
C1484  C1490   1.416   .     A
C1484  C1486   1.421   .     A
C1485  C1487   1.411   .     A
C1485  C712    1.394   1_556 S
C1486  C1488   1.411   .     A
C1487  C1492   1.394   .     A
C1488  C1491   1.394   .     A
C1489  C1515   1.483   .     S
C1489  C717    1.393   1_556 S
C1490  C1526   1.483   .     S
C1491  H1497   1.084   .     S
C1492  H1498   1.084   .     S
C1492  C716    1.393   1_556 S
C1499  C1504   1.408   .     A
C1499  N1537   1.435   .     S
C1500  C1503   1.408   .     A
C1500  N1540   1.435   .     S
C1500  C1330   1.381   1_655 S
C1501  C1503   1.406   .     A
C1501  N1543   1.440   .     S
C1501  C1327   1.381   1_655 S
C1502  N1546   1.440   .     S
C1502  C1504   1.406   .     A
C1505  N1514   1.366   .     A
C1505  H1509   1.081   .     S
C1506  N1513   1.366   .     A
C1506  H1510   1.081   .     S
C1506  C991    1.415   1_565 S
C1507  N1514   1.366   .     A
C1507  H1511   1.082   .     S
C1508  N1513   1.366   .     A
C1508  H1512   1.082   .     S
C1508  C989    1.415   1_565 S
C1515  C1516   1.405   .     A
C1515  C1520   1.406   .     A
C1516  H1521   1.083   .     S
C1517  C1518   1.398   .     A
C1517  H1522   1.082   .     S
C1517  C1344   1.398   1_655 S
C1518  C1519   1.397   .     A
C1518  H1523   1.082   .     S
C1519  H1524   1.082   .     S
C1519  C1348   1.398   1_655 S
C1520  H1525   1.083   .     S
C1526  C1531   1.405   .     A
C1526  C1527   1.406   .     A
C1527  H1532   1.083   .     S
C1527  C1356   1.398   1_655 S
C1528  C1529   1.397   .     A
C1528  H1533   1.082   .     S
C1529  H1534   1.082   .     S
C1529  C1530   1.398   .     A
C1530  H1535   1.082   .     S
C1531  H1536   1.083   .     S
C1531  C1358   1.398   1_655 S
N1537  O1538   1.299   .     A
N1537  O1539   1.301   .     A
N1540  O1542   1.301   .     A
N1540  O1541   1.299   .     A
N1543  O1544   1.301   .     A
N1543  O1545   1.301   .     A
N1546  O1547   1.301   .     A
N1546  O1548   1.301   .     A
