data_str_m2_o2_o10_pcu_sym.171
_audit_creation_date              2020-01-03
_audit_creation_method            'Materials Studio'
_symmetry_space_group_name_H-M    'P1'
_symmetry_Int_Tables_number       1
_symmetry_cell_setting            triclinic
loop_
_symmetry_equiv_pos_as_xyz
  x,y,z
_cell_length_a                    26.3098
_cell_length_b                    30.3362
_cell_length_c                    28.0440
_cell_angle_alpha                 90.0316
_cell_angle_beta                  98.0400
_cell_angle_gamma                 93.3408
loop_
_atom_site_label
_atom_site_type_symbol
_atom_site_fract_x
_atom_site_fract_y
_atom_site_fract_z
_atom_site_U_iso_or_equiv
_atom_site_adp_type
_atom_site_occupancy
C1     C     0.16809   0.16483   0.25016   0.00000  Uiso   1.00
C2     C     0.16718   0.33478   0.25012   0.00000  Uiso   1.00
C3     C     0.21046   0.26375   0.05931   0.00000  Uiso   1.00
C4     C     0.14946   0.21290   0.44363   0.00000  Uiso   1.00
C5     C     0.20792   0.26824   0.10887   0.00000  Uiso   1.00
C6     C     0.14429   0.21509   0.39278   0.00000  Uiso   1.00
C7     C     0.12479   0.23207   0.09786   0.00000  Uiso   1.00
C8     C     0.18903   0.28534   0.39885   0.00000  Uiso   1.00
C9     C     0.12317   0.23504   0.04683   0.00000  Uiso   1.00
C10    C     0.18687   0.28711   0.44906   0.00000  Uiso   1.00
C11    C     0.16770   0.24869   0.02689   0.00000  Uiso   1.00
C12    C     0.16894   0.24946   0.47280   0.00000  Uiso   1.00
C13    C     0.06809   0.24857   0.23802   0.00000  Uiso   1.00
C14    C     0.26522   0.25091   0.26228   0.00000  Uiso   1.00
C15    C     0.01297   0.24063   0.23405   0.00000  Uiso   1.00
C16    C     0.32052   0.25726   0.26783   0.00000  Uiso   1.00
C17    C     0.17680   0.04665   0.29445   0.00000  Uiso   1.00
C18    C     0.20571   0.45340   0.22801   0.00000  Uiso   1.00
C19    C     0.17751   0.09268   0.29473   0.00000  Uiso   1.00
C20    C     0.20509   0.40743   0.22778   0.00000  Uiso   1.00
C21    C     0.17109   0.11601   0.25052   0.00000  Uiso   1.00
C22    C     0.16835   0.38292   0.25054   0.00000  Uiso   1.00
C23    C     0.16830   0.09171   0.20675   0.00000  Uiso   1.00
C24    C     0.13326   0.40479   0.27441   0.00000  Uiso   1.00
C25    C     0.16854   0.04573   0.20768   0.00000  Uiso   1.00
C26    C     0.13494   0.45089   0.27497   0.00000  Uiso   1.00
C27    C     0.17169   0.02325   0.25119   0.00000  Uiso   1.00
C28    C     0.17078   0.47510   0.25146   0.00000  Uiso   1.00
Cu29   Cu    0.16667   0.25000   0.29822   0.00000  Uiso   1.00
Cu30   Cu    0.16667   0.25001   0.20179   0.00000  Uiso   1.00
H31    H     0.18116   0.02910   0.32832   0.00000  Uiso   1.00
H32    H     0.23407   0.47222   0.21054   0.00000  Uiso   1.00
H33    H     0.16560   0.02744   0.17408   0.00000  Uiso   1.00
H34    H     0.10766   0.46777   0.29294   0.00000  Uiso   1.00
H35    H     0.24589   0.27424   0.04618   0.00000  Uiso   1.00
H36    H     0.13673   0.18285   0.46014   0.00000  Uiso   1.00
N37    N     0.16667   0.25001   0.12935   0.00000  Uiso   1.00
N38    N     0.16667   0.24999   0.37066   0.00000  Uiso   1.00
O39    O     0.16667   0.18573   0.29072   0.00000  Uiso   1.00
O40    O     0.16666   0.31428   0.20929   0.00000  Uiso   1.00
O41    O     0.16667   0.18573   0.20928   0.00000  Uiso   1.00
O42    O     0.16666   0.31427   0.29072   0.00000  Uiso   1.00
O43    O     0.09161   0.25000   0.28132   0.00000  Uiso   1.00
O44    O     0.24172   0.25001   0.21868   0.00000  Uiso   1.00
O45    O     0.09161   0.25000   0.19989   0.00000  Uiso   1.00
O46    O     0.24172   0.25000   0.30012   0.00000  Uiso   1.00
N47    N     0.32142   0.20887   0.19923   0.00000  Uiso   1.00
H48    H     0.32629   0.22092   0.16549   0.00000  Uiso   1.00
H49    H     0.00699   0.17949   0.20418   0.00000  Uiso   1.00
N50    N     0.01258   0.28547   0.30622   0.00000  Uiso   1.00
H51    H     0.32962   0.31613   0.30304   0.00000  Uiso   1.00
H52    H     0.00563   0.27155   0.33895   0.00000  Uiso   1.00
N53    N     0.18651   0.11525   0.34026   0.00000  Uiso   1.00
H54    H     0.15946   0.10251   0.36138   0.00000  Uiso   1.00
H55    H     0.22287   0.10782   0.35738   0.00000  Uiso   1.00
N56    N     0.24298   0.38580   0.20588   0.00000  Uiso   1.00
H57    H     0.27931   0.39692   0.22308   0.00000  Uiso   1.00
H58    H     0.24008   0.39551   0.16987   0.00000  Uiso   1.00
N59    N     0.16591   0.11317   0.16108   0.00000  Uiso   1.00
H60    H     0.19808   0.10528   0.14545   0.00000  Uiso   1.00
H61    H     0.13319   0.10026   0.13884   0.00000  Uiso   1.00
N62    N     0.09514   0.38021   0.29699   0.00000  Uiso   1.00
H63    H     0.05891   0.38910   0.28100   0.00000  Uiso   1.00
H64    H     0.09962   0.38964   0.33327   0.00000  Uiso   1.00
N65    N     0.24789   0.29581   0.13546   0.00000  Uiso   1.00
H66    H     0.23500   0.31039   0.16455   0.00000  Uiso   1.00
H67    H     0.27908   0.27710   0.14692   0.00000  Uiso   1.00
N68    N     0.11392   0.18131   0.36427   0.00000  Uiso   1.00
H69    H     0.08053   0.19542   0.34824   0.00000  Uiso   1.00
H70    H     0.10171   0.15610   0.38619   0.00000  Uiso   1.00
C71    C     0.08091   0.20640   0.11450   0.00000  Uiso   1.00
O72    O     0.08844   0.17747   0.14432   0.00000  Uiso   1.00
O73    O     0.03078   0.21195   0.09204   0.00000  Uiso   1.00
H74    H     0.00570   0.18681   0.09869   0.00000  Uiso   1.00
C75    C     0.21714   0.32257   0.37850   0.00000  Uiso   1.00
O76    O     0.25749   0.31682   0.36325   0.00000  Uiso   1.00
O77    O     0.19886   0.36490   0.37915   0.00000  Uiso   1.00
H78    H     0.22163   0.38781   0.36462   0.00000  Uiso   1.00
N79    N     0.07542   0.22485   0.01607   0.00000  Uiso   1.00
H80    H     0.06995   0.24809   0.48858   0.00000  Uiso   1.00
H81    H     0.07502   0.19306   0.00183   0.00000  Uiso   1.00
N82    N     0.20180   0.32805   0.47444   0.00000  Uiso   1.00
H83    H     0.17563   0.33429   0.49809   0.00000  Uiso   1.00
H84    H     0.23875   0.32652   0.49325   0.00000  Uiso   1.00
C85    C     0.50143   0.16483   0.25016   0.00000  Uiso   1.00
C86    C     0.50051   0.33478   0.25012   0.00000  Uiso   1.00
C87    C     0.54379   0.26375   0.05931   0.00000  Uiso   1.00
C88    C     0.48280   0.21290   0.44363   0.00000  Uiso   1.00
C89    C     0.54125   0.26824   0.10887   0.00000  Uiso   1.00
C90    C     0.47763   0.21509   0.39278   0.00000  Uiso   1.00
C91    C     0.45813   0.23207   0.09786   0.00000  Uiso   1.00
C92    C     0.52236   0.28534   0.39885   0.00000  Uiso   1.00
C93    C     0.45650   0.23504   0.04683   0.00000  Uiso   1.00
C94    C     0.52020   0.28711   0.44906   0.00000  Uiso   1.00
C95    C     0.50103   0.24869   0.02689   0.00000  Uiso   1.00
C96    C     0.50227   0.24946   0.47280   0.00000  Uiso   1.00
C97    C     0.40143   0.24857   0.23802   0.00000  Uiso   1.00
C98    C     0.59856   0.25091   0.26228   0.00000  Uiso   1.00
C99    C     0.34630   0.24063   0.23405   0.00000  Uiso   1.00
C100   C     0.65385   0.25726   0.26783   0.00000  Uiso   1.00
C101   C     0.51013   0.04665   0.29445   0.00000  Uiso   1.00
C102   C     0.53904   0.45340   0.22801   0.00000  Uiso   1.00
C103   C     0.51084   0.09268   0.29473   0.00000  Uiso   1.00
C104   C     0.53843   0.40743   0.22778   0.00000  Uiso   1.00
C105   C     0.50442   0.11601   0.25052   0.00000  Uiso   1.00
C106   C     0.50169   0.38292   0.25054   0.00000  Uiso   1.00
C107   C     0.50163   0.09171   0.20675   0.00000  Uiso   1.00
C108   C     0.46660   0.40479   0.27441   0.00000  Uiso   1.00
C109   C     0.50187   0.04573   0.20768   0.00000  Uiso   1.00
C110   C     0.46827   0.45089   0.27497   0.00000  Uiso   1.00
C111   C     0.50503   0.02325   0.25119   0.00000  Uiso   1.00
C112   C     0.50411   0.47510   0.25146   0.00000  Uiso   1.00
Cu113  Cu    0.50000   0.25000   0.29822   0.00000  Uiso   1.00
Cu114  Cu    0.50000   0.25001   0.20179   0.00000  Uiso   1.00
H115   H     0.51449   0.02910   0.32832   0.00000  Uiso   1.00
H116   H     0.56740   0.47222   0.21054   0.00000  Uiso   1.00
H117   H     0.49893   0.02744   0.17408   0.00000  Uiso   1.00
H118   H     0.44099   0.46777   0.29294   0.00000  Uiso   1.00
H119   H     0.57922   0.27424   0.04618   0.00000  Uiso   1.00
H120   H     0.47006   0.18285   0.46014   0.00000  Uiso   1.00
N121   N     0.50000   0.25001   0.12935   0.00000  Uiso   1.00
N122   N     0.50000   0.24999   0.37066   0.00000  Uiso   1.00
O123   O     0.50000   0.18573   0.29072   0.00000  Uiso   1.00
O124   O     0.50000   0.31428   0.20929   0.00000  Uiso   1.00
O125   O     0.50000   0.18573   0.20928   0.00000  Uiso   1.00
O126   O     0.50000   0.31427   0.29072   0.00000  Uiso   1.00
O127   O     0.42495   0.25000   0.28132   0.00000  Uiso   1.00
O128   O     0.57505   0.25001   0.21868   0.00000  Uiso   1.00
O129   O     0.42495   0.25000   0.19989   0.00000  Uiso   1.00
O130   O     0.57505   0.25000   0.30012   0.00000  Uiso   1.00
N131   N     0.65475   0.20887   0.19923   0.00000  Uiso   1.00
H132   H     0.65962   0.22092   0.16549   0.00000  Uiso   1.00
H133   H     0.34032   0.17949   0.20418   0.00000  Uiso   1.00
N134   N     0.34592   0.28547   0.30622   0.00000  Uiso   1.00
H135   H     0.66295   0.31613   0.30304   0.00000  Uiso   1.00
H136   H     0.33897   0.27155   0.33895   0.00000  Uiso   1.00
N137   N     0.51984   0.11525   0.34026   0.00000  Uiso   1.00
H138   H     0.49279   0.10251   0.36138   0.00000  Uiso   1.00
H139   H     0.55620   0.10782   0.35738   0.00000  Uiso   1.00
N140   N     0.57631   0.38580   0.20588   0.00000  Uiso   1.00
H141   H     0.61264   0.39692   0.22308   0.00000  Uiso   1.00
H142   H     0.57341   0.39551   0.16987   0.00000  Uiso   1.00
N143   N     0.49924   0.11317   0.16108   0.00000  Uiso   1.00
H144   H     0.53142   0.10528   0.14545   0.00000  Uiso   1.00
H145   H     0.46652   0.10026   0.13884   0.00000  Uiso   1.00
N146   N     0.42847   0.38021   0.29699   0.00000  Uiso   1.00
H147   H     0.39224   0.38910   0.28100   0.00000  Uiso   1.00
H148   H     0.43296   0.38964   0.33327   0.00000  Uiso   1.00
N149   N     0.58122   0.29581   0.13546   0.00000  Uiso   1.00
H150   H     0.56833   0.31039   0.16455   0.00000  Uiso   1.00
H151   H     0.61241   0.27710   0.14692   0.00000  Uiso   1.00
N152   N     0.44726   0.18131   0.36427   0.00000  Uiso   1.00
H153   H     0.41387   0.19542   0.34824   0.00000  Uiso   1.00
H154   H     0.43504   0.15610   0.38619   0.00000  Uiso   1.00
C155   C     0.41424   0.20640   0.11450   0.00000  Uiso   1.00
O156   O     0.42177   0.17747   0.14432   0.00000  Uiso   1.00
O157   O     0.36411   0.21195   0.09204   0.00000  Uiso   1.00
H158   H     0.33903   0.18681   0.09869   0.00000  Uiso   1.00
C159   C     0.55048   0.32257   0.37850   0.00000  Uiso   1.00
O160   O     0.59082   0.31682   0.36325   0.00000  Uiso   1.00
O161   O     0.53220   0.36490   0.37915   0.00000  Uiso   1.00
H162   H     0.55496   0.38781   0.36462   0.00000  Uiso   1.00
N163   N     0.40875   0.22485   0.01607   0.00000  Uiso   1.00
H164   H     0.40328   0.24809   0.48858   0.00000  Uiso   1.00
H165   H     0.40835   0.19306   0.00183   0.00000  Uiso   1.00
N166   N     0.53514   0.32805   0.47444   0.00000  Uiso   1.00
H167   H     0.50896   0.33429   0.49809   0.00000  Uiso   1.00
H168   H     0.57209   0.32652   0.49325   0.00000  Uiso   1.00
C169   C     0.83476   0.16483   0.25016   0.00000  Uiso   1.00
C170   C     0.83385   0.33478   0.25012   0.00000  Uiso   1.00
C171   C     0.87713   0.26375   0.05931   0.00000  Uiso   1.00
C172   C     0.81613   0.21290   0.44363   0.00000  Uiso   1.00
C173   C     0.87458   0.26824   0.10887   0.00000  Uiso   1.00
C174   C     0.81096   0.21509   0.39278   0.00000  Uiso   1.00
C175   C     0.79146   0.23207   0.09786   0.00000  Uiso   1.00
C176   C     0.85570   0.28534   0.39885   0.00000  Uiso   1.00
C177   C     0.78983   0.23504   0.04683   0.00000  Uiso   1.00
C178   C     0.85354   0.28711   0.44906   0.00000  Uiso   1.00
C179   C     0.83436   0.24869   0.02689   0.00000  Uiso   1.00
C180   C     0.83561   0.24946   0.47280   0.00000  Uiso   1.00
C181   C     0.73476   0.24857   0.23802   0.00000  Uiso   1.00
C182   C     0.93189   0.25091   0.26228   0.00000  Uiso   1.00
C183   C     0.67963   0.24063   0.23405   0.00000  Uiso   1.00
C184   C     0.98719   0.25726   0.26783   0.00000  Uiso   1.00
C185   C     0.84347   0.04665   0.29445   0.00000  Uiso   1.00
C186   C     0.87238   0.45340   0.22801   0.00000  Uiso   1.00
C187   C     0.84418   0.09268   0.29473   0.00000  Uiso   1.00
C188   C     0.87176   0.40743   0.22778   0.00000  Uiso   1.00
C189   C     0.83776   0.11601   0.25052   0.00000  Uiso   1.00
C190   C     0.83502   0.38292   0.25054   0.00000  Uiso   1.00
C191   C     0.83496   0.09171   0.20675   0.00000  Uiso   1.00
C192   C     0.79993   0.40479   0.27441   0.00000  Uiso   1.00
C193   C     0.83521   0.04573   0.20768   0.00000  Uiso   1.00
C194   C     0.80160   0.45089   0.27497   0.00000  Uiso   1.00
C195   C     0.83836   0.02325   0.25119   0.00000  Uiso   1.00
C196   C     0.83744   0.47510   0.25146   0.00000  Uiso   1.00
Cu197  Cu    0.83333   0.25000   0.29822   0.00000  Uiso   1.00
Cu198  Cu    0.83333   0.25001   0.20179   0.00000  Uiso   1.00
H199   H     0.84783   0.02910   0.32832   0.00000  Uiso   1.00
H200   H     0.90074   0.47222   0.21054   0.00000  Uiso   1.00
H201   H     0.83227   0.02744   0.17408   0.00000  Uiso   1.00
H202   H     0.77433   0.46777   0.29294   0.00000  Uiso   1.00
H203   H     0.91255   0.27424   0.04618   0.00000  Uiso   1.00
H204   H     0.80339   0.18285   0.46014   0.00000  Uiso   1.00
N205   N     0.83333   0.25001   0.12935   0.00000  Uiso   1.00
N206   N     0.83333   0.24999   0.37066   0.00000  Uiso   1.00
O207   O     0.83334   0.18573   0.29072   0.00000  Uiso   1.00
O208   O     0.83333   0.31428   0.20929   0.00000  Uiso   1.00
O209   O     0.83334   0.18573   0.20928   0.00000  Uiso   1.00
O210   O     0.83333   0.31427   0.29072   0.00000  Uiso   1.00
O211   O     0.75828   0.25000   0.28132   0.00000  Uiso   1.00
O212   O     0.90839   0.25001   0.21868   0.00000  Uiso   1.00
O213   O     0.75828   0.25000   0.19989   0.00000  Uiso   1.00
O214   O     0.90839   0.25000   0.30012   0.00000  Uiso   1.00
N215   N     0.98809   0.20887   0.19923   0.00000  Uiso   1.00
H216   H     0.99295   0.22092   0.16549   0.00000  Uiso   1.00
H217   H     0.67366   0.17949   0.20418   0.00000  Uiso   1.00
N218   N     0.67925   0.28547   0.30622   0.00000  Uiso   1.00
H219   H     0.99628   0.31613   0.30304   0.00000  Uiso   1.00
H220   H     0.67230   0.27155   0.33895   0.00000  Uiso   1.00
N221   N     0.85318   0.11525   0.34026   0.00000  Uiso   1.00
H222   H     0.82612   0.10251   0.36138   0.00000  Uiso   1.00
H223   H     0.88954   0.10782   0.35738   0.00000  Uiso   1.00
N224   N     0.90964   0.38580   0.20588   0.00000  Uiso   1.00
H225   H     0.94598   0.39692   0.22308   0.00000  Uiso   1.00
H226   H     0.90674   0.39551   0.16987   0.00000  Uiso   1.00
N227   N     0.83257   0.11317   0.16108   0.00000  Uiso   1.00
H228   H     0.86475   0.10528   0.14545   0.00000  Uiso   1.00
H229   H     0.79985   0.10026   0.13884   0.00000  Uiso   1.00
N230   N     0.76181   0.38021   0.29699   0.00000  Uiso   1.00
H231   H     0.72557   0.38910   0.28100   0.00000  Uiso   1.00
H232   H     0.76629   0.38964   0.33327   0.00000  Uiso   1.00
N233   N     0.91456   0.29581   0.13546   0.00000  Uiso   1.00
H234   H     0.90166   0.31039   0.16455   0.00000  Uiso   1.00
H235   H     0.94574   0.27710   0.14692   0.00000  Uiso   1.00
N236   N     0.78059   0.18131   0.36427   0.00000  Uiso   1.00
H237   H     0.74720   0.19542   0.34824   0.00000  Uiso   1.00
H238   H     0.76838   0.15610   0.38619   0.00000  Uiso   1.00
C239   C     0.74757   0.20640   0.11450   0.00000  Uiso   1.00
O240   O     0.75511   0.17747   0.14432   0.00000  Uiso   1.00
O241   O     0.69744   0.21195   0.09204   0.00000  Uiso   1.00
H242   H     0.67236   0.18681   0.09869   0.00000  Uiso   1.00
C243   C     0.88381   0.32257   0.37850   0.00000  Uiso   1.00
O244   O     0.92415   0.31682   0.36325   0.00000  Uiso   1.00
O245   O     0.86553   0.36490   0.37915   0.00000  Uiso   1.00
H246   H     0.88830   0.38781   0.36462   0.00000  Uiso   1.00
N247   N     0.74208   0.22485   0.01607   0.00000  Uiso   1.00
H248   H     0.73662   0.24809   0.48858   0.00000  Uiso   1.00
H249   H     0.74169   0.19306   0.00183   0.00000  Uiso   1.00
N250   N     0.86847   0.32805   0.47444   0.00000  Uiso   1.00
H251   H     0.84229   0.33429   0.49809   0.00000  Uiso   1.00
H252   H     0.90542   0.32652   0.49325   0.00000  Uiso   1.00
C253   C     0.16809   0.66483   0.25016   0.00000  Uiso   1.00
C254   C     0.16718   0.83478   0.25012   0.00000  Uiso   1.00
C255   C     0.21046   0.76375   0.05931   0.00000  Uiso   1.00
C256   C     0.14946   0.71290   0.44363   0.00000  Uiso   1.00
C257   C     0.20792   0.76824   0.10887   0.00000  Uiso   1.00
C258   C     0.14429   0.71509   0.39278   0.00000  Uiso   1.00
C259   C     0.12479   0.73207   0.09786   0.00000  Uiso   1.00
C260   C     0.18903   0.78534   0.39885   0.00000  Uiso   1.00
C261   C     0.12317   0.73504   0.04683   0.00000  Uiso   1.00
C262   C     0.18687   0.78711   0.44906   0.00000  Uiso   1.00
C263   C     0.16770   0.74869   0.02689   0.00000  Uiso   1.00
C264   C     0.16894   0.74946   0.47280   0.00000  Uiso   1.00
C265   C     0.06809   0.74857   0.23802   0.00000  Uiso   1.00
C266   C     0.26522   0.75091   0.26228   0.00000  Uiso   1.00
C267   C     0.01297   0.74063   0.23405   0.00000  Uiso   1.00
C268   C     0.32052   0.75726   0.26783   0.00000  Uiso   1.00
C269   C     0.17680   0.54665   0.29445   0.00000  Uiso   1.00
C270   C     0.20571   0.95340   0.22801   0.00000  Uiso   1.00
C271   C     0.17751   0.59268   0.29473   0.00000  Uiso   1.00
C272   C     0.20509   0.90743   0.22778   0.00000  Uiso   1.00
C273   C     0.17109   0.61601   0.25052   0.00000  Uiso   1.00
C274   C     0.16835   0.88292   0.25054   0.00000  Uiso   1.00
C275   C     0.16830   0.59171   0.20675   0.00000  Uiso   1.00
C276   C     0.13326   0.90479   0.27441   0.00000  Uiso   1.00
C277   C     0.16854   0.54573   0.20768   0.00000  Uiso   1.00
C278   C     0.13494   0.95089   0.27497   0.00000  Uiso   1.00
C279   C     0.17169   0.52325   0.25119   0.00000  Uiso   1.00
C280   C     0.17078   0.97510   0.25146   0.00000  Uiso   1.00
Cu281  Cu    0.16667   0.75000   0.29822   0.00000  Uiso   1.00
Cu282  Cu    0.16667   0.75001   0.20179   0.00000  Uiso   1.00
H283   H     0.18116   0.52910   0.32832   0.00000  Uiso   1.00
H284   H     0.23407   0.97222   0.21054   0.00000  Uiso   1.00
H285   H     0.16560   0.52744   0.17408   0.00000  Uiso   1.00
H286   H     0.10766   0.96777   0.29294   0.00000  Uiso   1.00
H287   H     0.24589   0.77424   0.04618   0.00000  Uiso   1.00
H288   H     0.13673   0.68285   0.46014   0.00000  Uiso   1.00
N289   N     0.16667   0.75001   0.12935   0.00000  Uiso   1.00
N290   N     0.16667   0.74999   0.37066   0.00000  Uiso   1.00
O291   O     0.16667   0.68573   0.29072   0.00000  Uiso   1.00
O292   O     0.16666   0.81428   0.20929   0.00000  Uiso   1.00
O293   O     0.16667   0.68573   0.20928   0.00000  Uiso   1.00
O294   O     0.16666   0.81427   0.29072   0.00000  Uiso   1.00
O295   O     0.09161   0.75000   0.28132   0.00000  Uiso   1.00
O296   O     0.24172   0.75001   0.21868   0.00000  Uiso   1.00
O297   O     0.09161   0.75000   0.19989   0.00000  Uiso   1.00
O298   O     0.24172   0.75000   0.30012   0.00000  Uiso   1.00
N299   N     0.32142   0.70887   0.19923   0.00000  Uiso   1.00
H300   H     0.32629   0.72092   0.16549   0.00000  Uiso   1.00
H301   H     0.00699   0.67949   0.20418   0.00000  Uiso   1.00
N302   N     0.01258   0.78547   0.30622   0.00000  Uiso   1.00
H303   H     0.32962   0.81613   0.30304   0.00000  Uiso   1.00
H304   H     0.00563   0.77155   0.33895   0.00000  Uiso   1.00
N305   N     0.18651   0.61525   0.34026   0.00000  Uiso   1.00
H306   H     0.15946   0.60251   0.36138   0.00000  Uiso   1.00
H307   H     0.22287   0.60782   0.35738   0.00000  Uiso   1.00
N308   N     0.24298   0.88580   0.20588   0.00000  Uiso   1.00
H309   H     0.27931   0.89692   0.22308   0.00000  Uiso   1.00
H310   H     0.24008   0.89551   0.16987   0.00000  Uiso   1.00
N311   N     0.16591   0.61317   0.16108   0.00000  Uiso   1.00
H312   H     0.19808   0.60528   0.14545   0.00000  Uiso   1.00
H313   H     0.13319   0.60026   0.13884   0.00000  Uiso   1.00
N314   N     0.09514   0.88021   0.29699   0.00000  Uiso   1.00
H315   H     0.05891   0.88910   0.28100   0.00000  Uiso   1.00
H316   H     0.09962   0.88964   0.33327   0.00000  Uiso   1.00
N317   N     0.24789   0.79581   0.13546   0.00000  Uiso   1.00
H318   H     0.23500   0.81039   0.16455   0.00000  Uiso   1.00
H319   H     0.27908   0.77710   0.14692   0.00000  Uiso   1.00
N320   N     0.11392   0.68131   0.36427   0.00000  Uiso   1.00
H321   H     0.08053   0.69542   0.34824   0.00000  Uiso   1.00
H322   H     0.10171   0.65610   0.38619   0.00000  Uiso   1.00
C323   C     0.08091   0.70640   0.11450   0.00000  Uiso   1.00
O324   O     0.08844   0.67747   0.14432   0.00000  Uiso   1.00
O325   O     0.03078   0.71195   0.09204   0.00000  Uiso   1.00
H326   H     0.00570   0.68681   0.09869   0.00000  Uiso   1.00
C327   C     0.21714   0.82257   0.37850   0.00000  Uiso   1.00
O328   O     0.25749   0.81682   0.36325   0.00000  Uiso   1.00
O329   O     0.19886   0.86490   0.37915   0.00000  Uiso   1.00
H330   H     0.22163   0.88781   0.36462   0.00000  Uiso   1.00
N331   N     0.07542   0.72485   0.01607   0.00000  Uiso   1.00
H332   H     0.06995   0.74809   0.48858   0.00000  Uiso   1.00
H333   H     0.07502   0.69306   0.00183   0.00000  Uiso   1.00
N334   N     0.20180   0.82805   0.47444   0.00000  Uiso   1.00
H335   H     0.17563   0.83429   0.49809   0.00000  Uiso   1.00
H336   H     0.23875   0.82652   0.49325   0.00000  Uiso   1.00
C337   C     0.50143   0.66483   0.25016   0.00000  Uiso   1.00
C338   C     0.50051   0.83478   0.25012   0.00000  Uiso   1.00
C339   C     0.54379   0.76375   0.05931   0.00000  Uiso   1.00
C340   C     0.48280   0.71290   0.44363   0.00000  Uiso   1.00
C341   C     0.54125   0.76824   0.10887   0.00000  Uiso   1.00
C342   C     0.47763   0.71509   0.39278   0.00000  Uiso   1.00
C343   C     0.45813   0.73207   0.09786   0.00000  Uiso   1.00
C344   C     0.52236   0.78534   0.39885   0.00000  Uiso   1.00
C345   C     0.45650   0.73504   0.04683   0.00000  Uiso   1.00
C346   C     0.52020   0.78711   0.44906   0.00000  Uiso   1.00
C347   C     0.50103   0.74869   0.02689   0.00000  Uiso   1.00
C348   C     0.50227   0.74946   0.47280   0.00000  Uiso   1.00
C349   C     0.40143   0.74857   0.23802   0.00000  Uiso   1.00
C350   C     0.59856   0.75091   0.26228   0.00000  Uiso   1.00
C351   C     0.34630   0.74063   0.23405   0.00000  Uiso   1.00
C352   C     0.65385   0.75726   0.26783   0.00000  Uiso   1.00
C353   C     0.51013   0.54665   0.29445   0.00000  Uiso   1.00
C354   C     0.53904   0.95340   0.22801   0.00000  Uiso   1.00
C355   C     0.51084   0.59268   0.29473   0.00000  Uiso   1.00
C356   C     0.53843   0.90743   0.22778   0.00000  Uiso   1.00
C357   C     0.50442   0.61601   0.25052   0.00000  Uiso   1.00
C358   C     0.50169   0.88292   0.25054   0.00000  Uiso   1.00
C359   C     0.50163   0.59171   0.20675   0.00000  Uiso   1.00
C360   C     0.46660   0.90479   0.27441   0.00000  Uiso   1.00
C361   C     0.50187   0.54573   0.20768   0.00000  Uiso   1.00
C362   C     0.46827   0.95089   0.27497   0.00000  Uiso   1.00
C363   C     0.50503   0.52325   0.25119   0.00000  Uiso   1.00
C364   C     0.50411   0.97510   0.25146   0.00000  Uiso   1.00
Cu365  Cu    0.50000   0.75000   0.29822   0.00000  Uiso   1.00
Cu366  Cu    0.50000   0.75001   0.20179   0.00000  Uiso   1.00
H367   H     0.51449   0.52910   0.32832   0.00000  Uiso   1.00
H368   H     0.56740   0.97222   0.21054   0.00000  Uiso   1.00
H369   H     0.49893   0.52744   0.17408   0.00000  Uiso   1.00
H370   H     0.44099   0.96777   0.29294   0.00000  Uiso   1.00
H371   H     0.57922   0.77424   0.04618   0.00000  Uiso   1.00
H372   H     0.47006   0.68285   0.46014   0.00000  Uiso   1.00
N373   N     0.50000   0.75001   0.12935   0.00000  Uiso   1.00
N374   N     0.50000   0.74999   0.37066   0.00000  Uiso   1.00
O375   O     0.50000   0.68573   0.29072   0.00000  Uiso   1.00
O376   O     0.50000   0.81428   0.20929   0.00000  Uiso   1.00
O377   O     0.50000   0.68573   0.20928   0.00000  Uiso   1.00
O378   O     0.50000   0.81427   0.29072   0.00000  Uiso   1.00
O379   O     0.42495   0.75000   0.28132   0.00000  Uiso   1.00
O380   O     0.57505   0.75001   0.21868   0.00000  Uiso   1.00
O381   O     0.42495   0.75000   0.19989   0.00000  Uiso   1.00
O382   O     0.57505   0.75000   0.30012   0.00000  Uiso   1.00
N383   N     0.65475   0.70887   0.19923   0.00000  Uiso   1.00
H384   H     0.65962   0.72092   0.16549   0.00000  Uiso   1.00
H385   H     0.34032   0.67949   0.20418   0.00000  Uiso   1.00
N386   N     0.34592   0.78547   0.30622   0.00000  Uiso   1.00
H387   H     0.66295   0.81613   0.30304   0.00000  Uiso   1.00
H388   H     0.33897   0.77155   0.33895   0.00000  Uiso   1.00
N389   N     0.51984   0.61525   0.34026   0.00000  Uiso   1.00
H390   H     0.49279   0.60251   0.36138   0.00000  Uiso   1.00
H391   H     0.55620   0.60782   0.35738   0.00000  Uiso   1.00
N392   N     0.57631   0.88580   0.20588   0.00000  Uiso   1.00
H393   H     0.61264   0.89692   0.22308   0.00000  Uiso   1.00
H394   H     0.57341   0.89551   0.16987   0.00000  Uiso   1.00
N395   N     0.49924   0.61317   0.16108   0.00000  Uiso   1.00
H396   H     0.53142   0.60528   0.14545   0.00000  Uiso   1.00
H397   H     0.46652   0.60026   0.13884   0.00000  Uiso   1.00
N398   N     0.42847   0.88021   0.29699   0.00000  Uiso   1.00
H399   H     0.39224   0.88910   0.28100   0.00000  Uiso   1.00
H400   H     0.43296   0.88964   0.33327   0.00000  Uiso   1.00
N401   N     0.58122   0.79581   0.13546   0.00000  Uiso   1.00
H402   H     0.56833   0.81039   0.16455   0.00000  Uiso   1.00
H403   H     0.61241   0.77710   0.14692   0.00000  Uiso   1.00
N404   N     0.44726   0.68131   0.36427   0.00000  Uiso   1.00
H405   H     0.41387   0.69542   0.34824   0.00000  Uiso   1.00
H406   H     0.43504   0.65610   0.38619   0.00000  Uiso   1.00
C407   C     0.41424   0.70640   0.11450   0.00000  Uiso   1.00
O408   O     0.42177   0.67747   0.14432   0.00000  Uiso   1.00
O409   O     0.36411   0.71195   0.09204   0.00000  Uiso   1.00
H410   H     0.33903   0.68681   0.09869   0.00000  Uiso   1.00
C411   C     0.55048   0.82257   0.37850   0.00000  Uiso   1.00
O412   O     0.59082   0.81682   0.36325   0.00000  Uiso   1.00
O413   O     0.53220   0.86490   0.37915   0.00000  Uiso   1.00
H414   H     0.55496   0.88781   0.36462   0.00000  Uiso   1.00
N415   N     0.40875   0.72485   0.01607   0.00000  Uiso   1.00
H416   H     0.40328   0.74809   0.48858   0.00000  Uiso   1.00
H417   H     0.40835   0.69306   0.00183   0.00000  Uiso   1.00
N418   N     0.53514   0.82805   0.47444   0.00000  Uiso   1.00
H419   H     0.50896   0.83429   0.49809   0.00000  Uiso   1.00
H420   H     0.57209   0.82652   0.49325   0.00000  Uiso   1.00
C421   C     0.83476   0.66483   0.25016   0.00000  Uiso   1.00
C422   C     0.83385   0.83478   0.25012   0.00000  Uiso   1.00
C423   C     0.87713   0.76375   0.05931   0.00000  Uiso   1.00
C424   C     0.81613   0.71290   0.44363   0.00000  Uiso   1.00
C425   C     0.87458   0.76824   0.10887   0.00000  Uiso   1.00
C426   C     0.81096   0.71509   0.39278   0.00000  Uiso   1.00
C427   C     0.79146   0.73207   0.09786   0.00000  Uiso   1.00
C428   C     0.85570   0.78534   0.39885   0.00000  Uiso   1.00
C429   C     0.78983   0.73504   0.04683   0.00000  Uiso   1.00
C430   C     0.85354   0.78711   0.44906   0.00000  Uiso   1.00
C431   C     0.83436   0.74869   0.02689   0.00000  Uiso   1.00
C432   C     0.83561   0.74946   0.47280   0.00000  Uiso   1.00
C433   C     0.73476   0.74857   0.23802   0.00000  Uiso   1.00
C434   C     0.93189   0.75091   0.26228   0.00000  Uiso   1.00
C435   C     0.67963   0.74063   0.23405   0.00000  Uiso   1.00
C436   C     0.98719   0.75726   0.26783   0.00000  Uiso   1.00
C437   C     0.84347   0.54665   0.29445   0.00000  Uiso   1.00
C438   C     0.87238   0.95340   0.22801   0.00000  Uiso   1.00
C439   C     0.84418   0.59268   0.29473   0.00000  Uiso   1.00
C440   C     0.87176   0.90743   0.22778   0.00000  Uiso   1.00
C441   C     0.83776   0.61601   0.25052   0.00000  Uiso   1.00
C442   C     0.83502   0.88292   0.25054   0.00000  Uiso   1.00
C443   C     0.83496   0.59171   0.20675   0.00000  Uiso   1.00
C444   C     0.79993   0.90479   0.27441   0.00000  Uiso   1.00
C445   C     0.83521   0.54573   0.20768   0.00000  Uiso   1.00
C446   C     0.80160   0.95089   0.27497   0.00000  Uiso   1.00
C447   C     0.83836   0.52325   0.25119   0.00000  Uiso   1.00
C448   C     0.83744   0.97510   0.25146   0.00000  Uiso   1.00
Cu449  Cu    0.83333   0.75000   0.29822   0.00000  Uiso   1.00
Cu450  Cu    0.83333   0.75001   0.20179   0.00000  Uiso   1.00
H451   H     0.84783   0.52910   0.32832   0.00000  Uiso   1.00
H452   H     0.90074   0.97222   0.21054   0.00000  Uiso   1.00
H453   H     0.83227   0.52744   0.17408   0.00000  Uiso   1.00
H454   H     0.77433   0.96777   0.29294   0.00000  Uiso   1.00
H455   H     0.91255   0.77424   0.04618   0.00000  Uiso   1.00
H456   H     0.80339   0.68285   0.46014   0.00000  Uiso   1.00
N457   N     0.83333   0.75001   0.12935   0.00000  Uiso   1.00
N458   N     0.83333   0.74999   0.37066   0.00000  Uiso   1.00
O459   O     0.83334   0.68573   0.29072   0.00000  Uiso   1.00
O460   O     0.83333   0.81428   0.20929   0.00000  Uiso   1.00
O461   O     0.83334   0.68573   0.20928   0.00000  Uiso   1.00
O462   O     0.83333   0.81427   0.29072   0.00000  Uiso   1.00
O463   O     0.75828   0.75000   0.28132   0.00000  Uiso   1.00
O464   O     0.90839   0.75001   0.21868   0.00000  Uiso   1.00
O465   O     0.75828   0.75000   0.19989   0.00000  Uiso   1.00
O466   O     0.90839   0.75000   0.30012   0.00000  Uiso   1.00
N467   N     0.98809   0.70887   0.19923   0.00000  Uiso   1.00
H468   H     0.99295   0.72092   0.16549   0.00000  Uiso   1.00
H469   H     0.67366   0.67949   0.20418   0.00000  Uiso   1.00
N470   N     0.67925   0.78547   0.30622   0.00000  Uiso   1.00
H471   H     0.99628   0.81613   0.30304   0.00000  Uiso   1.00
H472   H     0.67230   0.77155   0.33895   0.00000  Uiso   1.00
N473   N     0.85318   0.61525   0.34026   0.00000  Uiso   1.00
H474   H     0.82612   0.60251   0.36138   0.00000  Uiso   1.00
H475   H     0.88954   0.60782   0.35738   0.00000  Uiso   1.00
N476   N     0.90964   0.88580   0.20588   0.00000  Uiso   1.00
H477   H     0.94598   0.89692   0.22308   0.00000  Uiso   1.00
H478   H     0.90674   0.89551   0.16987   0.00000  Uiso   1.00
N479   N     0.83257   0.61317   0.16108   0.00000  Uiso   1.00
H480   H     0.86475   0.60528   0.14545   0.00000  Uiso   1.00
H481   H     0.79985   0.60026   0.13884   0.00000  Uiso   1.00
N482   N     0.76181   0.88021   0.29699   0.00000  Uiso   1.00
H483   H     0.72557   0.88910   0.28100   0.00000  Uiso   1.00
H484   H     0.76629   0.88964   0.33327   0.00000  Uiso   1.00
N485   N     0.91456   0.79581   0.13546   0.00000  Uiso   1.00
H486   H     0.90166   0.81039   0.16455   0.00000  Uiso   1.00
H487   H     0.94574   0.77710   0.14692   0.00000  Uiso   1.00
N488   N     0.78059   0.68131   0.36427   0.00000  Uiso   1.00
H489   H     0.74720   0.69542   0.34824   0.00000  Uiso   1.00
H490   H     0.76838   0.65610   0.38619   0.00000  Uiso   1.00
C491   C     0.74757   0.70640   0.11450   0.00000  Uiso   1.00
O492   O     0.75511   0.67747   0.14432   0.00000  Uiso   1.00
O493   O     0.69744   0.71195   0.09204   0.00000  Uiso   1.00
H494   H     0.67236   0.68681   0.09869   0.00000  Uiso   1.00
C495   C     0.88381   0.82257   0.37850   0.00000  Uiso   1.00
O496   O     0.92415   0.81682   0.36325   0.00000  Uiso   1.00
O497   O     0.86553   0.86490   0.37915   0.00000  Uiso   1.00
H498   H     0.88830   0.88781   0.36462   0.00000  Uiso   1.00
N499   N     0.74208   0.72485   0.01607   0.00000  Uiso   1.00
H500   H     0.73662   0.74809   0.48858   0.00000  Uiso   1.00
H501   H     0.74169   0.69306   0.00183   0.00000  Uiso   1.00
N502   N     0.86847   0.82805   0.47444   0.00000  Uiso   1.00
H503   H     0.84229   0.83429   0.49809   0.00000  Uiso   1.00
H504   H     0.90542   0.82652   0.49325   0.00000  Uiso   1.00
C505   C     0.16809   0.16483   0.75016   0.00000  Uiso   1.00
C506   C     0.16718   0.33478   0.75012   0.00000  Uiso   1.00
C507   C     0.21046   0.26375   0.55931   0.00000  Uiso   1.00
C508   C     0.14946   0.21290   0.94363   0.00000  Uiso   1.00
C509   C     0.20792   0.26824   0.60887   0.00000  Uiso   1.00
C510   C     0.14429   0.21509   0.89278   0.00000  Uiso   1.00
C511   C     0.12479   0.23207   0.59786   0.00000  Uiso   1.00
C512   C     0.18903   0.28534   0.89885   0.00000  Uiso   1.00
C513   C     0.12317   0.23504   0.54683   0.00000  Uiso   1.00
C514   C     0.18687   0.28711   0.94906   0.00000  Uiso   1.00
C515   C     0.16770   0.24869   0.52689   0.00000  Uiso   1.00
C516   C     0.16894   0.24946   0.97280   0.00000  Uiso   1.00
C517   C     0.06809   0.24857   0.73802   0.00000  Uiso   1.00
C518   C     0.26522   0.25091   0.76228   0.00000  Uiso   1.00
C519   C     0.01297   0.24063   0.73405   0.00000  Uiso   1.00
C520   C     0.32052   0.25726   0.76783   0.00000  Uiso   1.00
C521   C     0.17680   0.04665   0.79445   0.00000  Uiso   1.00
C522   C     0.20571   0.45340   0.72801   0.00000  Uiso   1.00
C523   C     0.17751   0.09268   0.79473   0.00000  Uiso   1.00
C524   C     0.20509   0.40743   0.72778   0.00000  Uiso   1.00
C525   C     0.17109   0.11601   0.75052   0.00000  Uiso   1.00
C526   C     0.16835   0.38292   0.75054   0.00000  Uiso   1.00
C527   C     0.16830   0.09171   0.70675   0.00000  Uiso   1.00
C528   C     0.13326   0.40479   0.77441   0.00000  Uiso   1.00
C529   C     0.16854   0.04573   0.70768   0.00000  Uiso   1.00
C530   C     0.13494   0.45089   0.77497   0.00000  Uiso   1.00
C531   C     0.17169   0.02325   0.75119   0.00000  Uiso   1.00
C532   C     0.17078   0.47510   0.75146   0.00000  Uiso   1.00
Cu533  Cu    0.16667   0.25000   0.79822   0.00000  Uiso   1.00
Cu534  Cu    0.16667   0.25001   0.70179   0.00000  Uiso   1.00
H535   H     0.18116   0.02910   0.82832   0.00000  Uiso   1.00
H536   H     0.23407   0.47222   0.71054   0.00000  Uiso   1.00
H537   H     0.16560   0.02744   0.67408   0.00000  Uiso   1.00
H538   H     0.10766   0.46777   0.79294   0.00000  Uiso   1.00
H539   H     0.24589   0.27424   0.54618   0.00000  Uiso   1.00
H540   H     0.13673   0.18285   0.96014   0.00000  Uiso   1.00
N541   N     0.16667   0.25001   0.62935   0.00000  Uiso   1.00
N542   N     0.16667   0.24999   0.87066   0.00000  Uiso   1.00
O543   O     0.16667   0.18573   0.79072   0.00000  Uiso   1.00
O544   O     0.16666   0.31428   0.70929   0.00000  Uiso   1.00
O545   O     0.16667   0.18573   0.70928   0.00000  Uiso   1.00
O546   O     0.16666   0.31427   0.79072   0.00000  Uiso   1.00
O547   O     0.09161   0.25000   0.78132   0.00000  Uiso   1.00
O548   O     0.24172   0.25001   0.71868   0.00000  Uiso   1.00
O549   O     0.09161   0.25000   0.69989   0.00000  Uiso   1.00
O550   O     0.24172   0.25000   0.80012   0.00000  Uiso   1.00
N551   N     0.32142   0.20887   0.69923   0.00000  Uiso   1.00
H552   H     0.32629   0.22092   0.66549   0.00000  Uiso   1.00
H553   H     0.00699   0.17949   0.70418   0.00000  Uiso   1.00
N554   N     0.01258   0.28547   0.80622   0.00000  Uiso   1.00
H555   H     0.32962   0.31613   0.80304   0.00000  Uiso   1.00
H556   H     0.00563   0.27155   0.83895   0.00000  Uiso   1.00
N557   N     0.18651   0.11525   0.84026   0.00000  Uiso   1.00
H558   H     0.15946   0.10251   0.86138   0.00000  Uiso   1.00
H559   H     0.22287   0.10782   0.85738   0.00000  Uiso   1.00
N560   N     0.24298   0.38580   0.70588   0.00000  Uiso   1.00
H561   H     0.27931   0.39692   0.72308   0.00000  Uiso   1.00
H562   H     0.24008   0.39551   0.66987   0.00000  Uiso   1.00
N563   N     0.16591   0.11317   0.66108   0.00000  Uiso   1.00
H564   H     0.19808   0.10528   0.64545   0.00000  Uiso   1.00
H565   H     0.13319   0.10026   0.63884   0.00000  Uiso   1.00
N566   N     0.09514   0.38021   0.79699   0.00000  Uiso   1.00
H567   H     0.05891   0.38910   0.78100   0.00000  Uiso   1.00
H568   H     0.09962   0.38964   0.83327   0.00000  Uiso   1.00
N569   N     0.24789   0.29581   0.63546   0.00000  Uiso   1.00
H570   H     0.23500   0.31039   0.66455   0.00000  Uiso   1.00
H571   H     0.27908   0.27710   0.64692   0.00000  Uiso   1.00
N572   N     0.11392   0.18131   0.86427   0.00000  Uiso   1.00
H573   H     0.08053   0.19542   0.84824   0.00000  Uiso   1.00
H574   H     0.10171   0.15610   0.88619   0.00000  Uiso   1.00
C575   C     0.08091   0.20640   0.61450   0.00000  Uiso   1.00
O576   O     0.08844   0.17747   0.64432   0.00000  Uiso   1.00
O577   O     0.03078   0.21195   0.59204   0.00000  Uiso   1.00
H578   H     0.00570   0.18681   0.59869   0.00000  Uiso   1.00
C579   C     0.21714   0.32257   0.87850   0.00000  Uiso   1.00
O580   O     0.25749   0.31682   0.86325   0.00000  Uiso   1.00
O581   O     0.19886   0.36490   0.87915   0.00000  Uiso   1.00
H582   H     0.22163   0.38781   0.86462   0.00000  Uiso   1.00
N583   N     0.07542   0.22485   0.51607   0.00000  Uiso   1.00
H584   H     0.06995   0.24809   0.98858   0.00000  Uiso   1.00
H585   H     0.07502   0.19306   0.50183   0.00000  Uiso   1.00
N586   N     0.20180   0.32805   0.97444   0.00000  Uiso   1.00
H587   H     0.17563   0.33429   0.99809   0.00000  Uiso   1.00
H588   H     0.23875   0.32652   0.99325   0.00000  Uiso   1.00
C589   C     0.50143   0.16483   0.75016   0.00000  Uiso   1.00
C590   C     0.50051   0.33478   0.75012   0.00000  Uiso   1.00
C591   C     0.54379   0.26375   0.55931   0.00000  Uiso   1.00
C592   C     0.48280   0.21290   0.94363   0.00000  Uiso   1.00
C593   C     0.54125   0.26824   0.60887   0.00000  Uiso   1.00
C594   C     0.47763   0.21509   0.89278   0.00000  Uiso   1.00
C595   C     0.45813   0.23207   0.59786   0.00000  Uiso   1.00
C596   C     0.52236   0.28534   0.89885   0.00000  Uiso   1.00
C597   C     0.45650   0.23504   0.54683   0.00000  Uiso   1.00
C598   C     0.52020   0.28711   0.94906   0.00000  Uiso   1.00
C599   C     0.50103   0.24869   0.52689   0.00000  Uiso   1.00
C600   C     0.50227   0.24946   0.97280   0.00000  Uiso   1.00
C601   C     0.40143   0.24857   0.73802   0.00000  Uiso   1.00
C602   C     0.59856   0.25091   0.76228   0.00000  Uiso   1.00
C603   C     0.34630   0.24063   0.73405   0.00000  Uiso   1.00
C604   C     0.65385   0.25726   0.76783   0.00000  Uiso   1.00
C605   C     0.51013   0.04665   0.79445   0.00000  Uiso   1.00
C606   C     0.53904   0.45340   0.72801   0.00000  Uiso   1.00
C607   C     0.51084   0.09268   0.79473   0.00000  Uiso   1.00
C608   C     0.53843   0.40743   0.72778   0.00000  Uiso   1.00
C609   C     0.50442   0.11601   0.75052   0.00000  Uiso   1.00
C610   C     0.50169   0.38292   0.75054   0.00000  Uiso   1.00
C611   C     0.50163   0.09171   0.70675   0.00000  Uiso   1.00
C612   C     0.46660   0.40479   0.77441   0.00000  Uiso   1.00
C613   C     0.50187   0.04573   0.70768   0.00000  Uiso   1.00
C614   C     0.46827   0.45089   0.77497   0.00000  Uiso   1.00
C615   C     0.50503   0.02325   0.75119   0.00000  Uiso   1.00
C616   C     0.50411   0.47510   0.75146   0.00000  Uiso   1.00
Cu617  Cu    0.50000   0.25000   0.79822   0.00000  Uiso   1.00
Cu618  Cu    0.50000   0.25001   0.70179   0.00000  Uiso   1.00
H619   H     0.51449   0.02910   0.82832   0.00000  Uiso   1.00
H620   H     0.56740   0.47222   0.71054   0.00000  Uiso   1.00
H621   H     0.49893   0.02744   0.67408   0.00000  Uiso   1.00
H622   H     0.44099   0.46777   0.79294   0.00000  Uiso   1.00
H623   H     0.57922   0.27424   0.54618   0.00000  Uiso   1.00
H624   H     0.47006   0.18285   0.96014   0.00000  Uiso   1.00
N625   N     0.50000   0.25001   0.62935   0.00000  Uiso   1.00
N626   N     0.50000   0.24999   0.87066   0.00000  Uiso   1.00
O627   O     0.50000   0.18573   0.79072   0.00000  Uiso   1.00
O628   O     0.50000   0.31428   0.70929   0.00000  Uiso   1.00
O629   O     0.50000   0.18573   0.70928   0.00000  Uiso   1.00
O630   O     0.50000   0.31427   0.79072   0.00000  Uiso   1.00
O631   O     0.42495   0.25000   0.78132   0.00000  Uiso   1.00
O632   O     0.57505   0.25001   0.71868   0.00000  Uiso   1.00
O633   O     0.42495   0.25000   0.69989   0.00000  Uiso   1.00
O634   O     0.57505   0.25000   0.80012   0.00000  Uiso   1.00
N635   N     0.65475   0.20887   0.69923   0.00000  Uiso   1.00
H636   H     0.65962   0.22092   0.66549   0.00000  Uiso   1.00
H637   H     0.34032   0.17949   0.70418   0.00000  Uiso   1.00
N638   N     0.34592   0.28547   0.80622   0.00000  Uiso   1.00
H639   H     0.66295   0.31613   0.80304   0.00000  Uiso   1.00
H640   H     0.33897   0.27155   0.83895   0.00000  Uiso   1.00
N641   N     0.51984   0.11525   0.84026   0.00000  Uiso   1.00
H642   H     0.49279   0.10251   0.86138   0.00000  Uiso   1.00
H643   H     0.55620   0.10782   0.85738   0.00000  Uiso   1.00
N644   N     0.57631   0.38580   0.70588   0.00000  Uiso   1.00
H645   H     0.61264   0.39692   0.72308   0.00000  Uiso   1.00
H646   H     0.57341   0.39551   0.66987   0.00000  Uiso   1.00
N647   N     0.49924   0.11317   0.66108   0.00000  Uiso   1.00
H648   H     0.53142   0.10528   0.64545   0.00000  Uiso   1.00
H649   H     0.46652   0.10026   0.63884   0.00000  Uiso   1.00
N650   N     0.42847   0.38021   0.79699   0.00000  Uiso   1.00
H651   H     0.39224   0.38910   0.78100   0.00000  Uiso   1.00
H652   H     0.43296   0.38964   0.83327   0.00000  Uiso   1.00
N653   N     0.58122   0.29581   0.63546   0.00000  Uiso   1.00
H654   H     0.56833   0.31039   0.66455   0.00000  Uiso   1.00
H655   H     0.61241   0.27710   0.64692   0.00000  Uiso   1.00
N656   N     0.44726   0.18131   0.86427   0.00000  Uiso   1.00
H657   H     0.41387   0.19542   0.84824   0.00000  Uiso   1.00
H658   H     0.43504   0.15610   0.88619   0.00000  Uiso   1.00
C659   C     0.41424   0.20640   0.61450   0.00000  Uiso   1.00
O660   O     0.42177   0.17747   0.64432   0.00000  Uiso   1.00
O661   O     0.36411   0.21195   0.59204   0.00000  Uiso   1.00
H662   H     0.33903   0.18681   0.59869   0.00000  Uiso   1.00
C663   C     0.55048   0.32257   0.87850   0.00000  Uiso   1.00
O664   O     0.59082   0.31682   0.86325   0.00000  Uiso   1.00
O665   O     0.53220   0.36490   0.87915   0.00000  Uiso   1.00
H666   H     0.55496   0.38781   0.86462   0.00000  Uiso   1.00
N667   N     0.40875   0.22485   0.51607   0.00000  Uiso   1.00
H668   H     0.40328   0.24809   0.98858   0.00000  Uiso   1.00
H669   H     0.40835   0.19306   0.50183   0.00000  Uiso   1.00
N670   N     0.53514   0.32805   0.97444   0.00000  Uiso   1.00
H671   H     0.50896   0.33429   0.99809   0.00000  Uiso   1.00
H672   H     0.57209   0.32652   0.99325   0.00000  Uiso   1.00
C673   C     0.83476   0.16483   0.75016   0.00000  Uiso   1.00
C674   C     0.83385   0.33478   0.75012   0.00000  Uiso   1.00
C675   C     0.87713   0.26375   0.55931   0.00000  Uiso   1.00
C676   C     0.81613   0.21290   0.94363   0.00000  Uiso   1.00
C677   C     0.87458   0.26824   0.60887   0.00000  Uiso   1.00
C678   C     0.81096   0.21509   0.89278   0.00000  Uiso   1.00
C679   C     0.79146   0.23207   0.59786   0.00000  Uiso   1.00
C680   C     0.85570   0.28534   0.89885   0.00000  Uiso   1.00
C681   C     0.78983   0.23504   0.54683   0.00000  Uiso   1.00
C682   C     0.85354   0.28711   0.94906   0.00000  Uiso   1.00
C683   C     0.83436   0.24869   0.52689   0.00000  Uiso   1.00
C684   C     0.83561   0.24946   0.97280   0.00000  Uiso   1.00
C685   C     0.73476   0.24857   0.73802   0.00000  Uiso   1.00
C686   C     0.93189   0.25091   0.76228   0.00000  Uiso   1.00
C687   C     0.67963   0.24063   0.73405   0.00000  Uiso   1.00
C688   C     0.98719   0.25726   0.76783   0.00000  Uiso   1.00
C689   C     0.84347   0.04665   0.79445   0.00000  Uiso   1.00
C690   C     0.87238   0.45340   0.72801   0.00000  Uiso   1.00
C691   C     0.84418   0.09268   0.79473   0.00000  Uiso   1.00
C692   C     0.87176   0.40743   0.72778   0.00000  Uiso   1.00
C693   C     0.83776   0.11601   0.75052   0.00000  Uiso   1.00
C694   C     0.83502   0.38292   0.75054   0.00000  Uiso   1.00
C695   C     0.83496   0.09171   0.70675   0.00000  Uiso   1.00
C696   C     0.79993   0.40479   0.77441   0.00000  Uiso   1.00
C697   C     0.83521   0.04573   0.70768   0.00000  Uiso   1.00
C698   C     0.80160   0.45089   0.77497   0.00000  Uiso   1.00
C699   C     0.83836   0.02325   0.75119   0.00000  Uiso   1.00
C700   C     0.83744   0.47510   0.75146   0.00000  Uiso   1.00
Cu701  Cu    0.83333   0.25000   0.79822   0.00000  Uiso   1.00
Cu702  Cu    0.83333   0.25001   0.70179   0.00000  Uiso   1.00
H703   H     0.84783   0.02910   0.82832   0.00000  Uiso   1.00
H704   H     0.90074   0.47222   0.71054   0.00000  Uiso   1.00
H705   H     0.83227   0.02744   0.67408   0.00000  Uiso   1.00
H706   H     0.77433   0.46777   0.79294   0.00000  Uiso   1.00
H707   H     0.91255   0.27424   0.54618   0.00000  Uiso   1.00
H708   H     0.80339   0.18285   0.96014   0.00000  Uiso   1.00
N709   N     0.83333   0.25001   0.62935   0.00000  Uiso   1.00
N710   N     0.83333   0.24999   0.87066   0.00000  Uiso   1.00
O711   O     0.83334   0.18573   0.79072   0.00000  Uiso   1.00
O712   O     0.83333   0.31428   0.70929   0.00000  Uiso   1.00
O713   O     0.83334   0.18573   0.70928   0.00000  Uiso   1.00
O714   O     0.83333   0.31427   0.79072   0.00000  Uiso   1.00
O715   O     0.75828   0.25000   0.78132   0.00000  Uiso   1.00
O716   O     0.90839   0.25001   0.71868   0.00000  Uiso   1.00
O717   O     0.75828   0.25000   0.69989   0.00000  Uiso   1.00
O718   O     0.90839   0.25000   0.80012   0.00000  Uiso   1.00
N719   N     0.98809   0.20887   0.69923   0.00000  Uiso   1.00
H720   H     0.99295   0.22092   0.66549   0.00000  Uiso   1.00
H721   H     0.67366   0.17949   0.70418   0.00000  Uiso   1.00
N722   N     0.67925   0.28547   0.80622   0.00000  Uiso   1.00
H723   H     0.99628   0.31613   0.80304   0.00000  Uiso   1.00
H724   H     0.67230   0.27155   0.83895   0.00000  Uiso   1.00
N725   N     0.85318   0.11525   0.84026   0.00000  Uiso   1.00
H726   H     0.82612   0.10251   0.86138   0.00000  Uiso   1.00
H727   H     0.88954   0.10782   0.85738   0.00000  Uiso   1.00
N728   N     0.90964   0.38580   0.70588   0.00000  Uiso   1.00
H729   H     0.94598   0.39692   0.72308   0.00000  Uiso   1.00
H730   H     0.90674   0.39551   0.66987   0.00000  Uiso   1.00
N731   N     0.83257   0.11317   0.66108   0.00000  Uiso   1.00
H732   H     0.86475   0.10528   0.64545   0.00000  Uiso   1.00
H733   H     0.79985   0.10026   0.63884   0.00000  Uiso   1.00
N734   N     0.76181   0.38021   0.79699   0.00000  Uiso   1.00
H735   H     0.72557   0.38910   0.78100   0.00000  Uiso   1.00
H736   H     0.76629   0.38964   0.83327   0.00000  Uiso   1.00
N737   N     0.91456   0.29581   0.63546   0.00000  Uiso   1.00
H738   H     0.90166   0.31039   0.66455   0.00000  Uiso   1.00
H739   H     0.94574   0.27710   0.64692   0.00000  Uiso   1.00
N740   N     0.78059   0.18131   0.86427   0.00000  Uiso   1.00
H741   H     0.74720   0.19542   0.84824   0.00000  Uiso   1.00
H742   H     0.76838   0.15610   0.88619   0.00000  Uiso   1.00
C743   C     0.74757   0.20640   0.61450   0.00000  Uiso   1.00
O744   O     0.75511   0.17747   0.64432   0.00000  Uiso   1.00
O745   O     0.69744   0.21195   0.59204   0.00000  Uiso   1.00
H746   H     0.67236   0.18681   0.59869   0.00000  Uiso   1.00
C747   C     0.88381   0.32257   0.87850   0.00000  Uiso   1.00
O748   O     0.92415   0.31682   0.86325   0.00000  Uiso   1.00
O749   O     0.86553   0.36490   0.87915   0.00000  Uiso   1.00
H750   H     0.88830   0.38781   0.86462   0.00000  Uiso   1.00
N751   N     0.74208   0.22485   0.51607   0.00000  Uiso   1.00
H752   H     0.73662   0.24809   0.98858   0.00000  Uiso   1.00
H753   H     0.74169   0.19306   0.50183   0.00000  Uiso   1.00
N754   N     0.86847   0.32805   0.97444   0.00000  Uiso   1.00
H755   H     0.84229   0.33429   0.99809   0.00000  Uiso   1.00
H756   H     0.90542   0.32652   0.99325   0.00000  Uiso   1.00
C757   C     0.16809   0.66483   0.75016   0.00000  Uiso   1.00
C758   C     0.16718   0.83478   0.75012   0.00000  Uiso   1.00
C759   C     0.21046   0.76375   0.55931   0.00000  Uiso   1.00
C760   C     0.14946   0.71290   0.94363   0.00000  Uiso   1.00
C761   C     0.20792   0.76824   0.60887   0.00000  Uiso   1.00
C762   C     0.14429   0.71509   0.89278   0.00000  Uiso   1.00
C763   C     0.12479   0.73207   0.59786   0.00000  Uiso   1.00
C764   C     0.18903   0.78534   0.89885   0.00000  Uiso   1.00
C765   C     0.12317   0.73504   0.54683   0.00000  Uiso   1.00
C766   C     0.18687   0.78711   0.94906   0.00000  Uiso   1.00
C767   C     0.16770   0.74869   0.52689   0.00000  Uiso   1.00
C768   C     0.16894   0.74946   0.97280   0.00000  Uiso   1.00
C769   C     0.06809   0.74857   0.73802   0.00000  Uiso   1.00
C770   C     0.26522   0.75091   0.76228   0.00000  Uiso   1.00
C771   C     0.01297   0.74063   0.73405   0.00000  Uiso   1.00
C772   C     0.32052   0.75726   0.76783   0.00000  Uiso   1.00
C773   C     0.17680   0.54665   0.79445   0.00000  Uiso   1.00
C774   C     0.20571   0.95340   0.72801   0.00000  Uiso   1.00
C775   C     0.17751   0.59268   0.79473   0.00000  Uiso   1.00
C776   C     0.20509   0.90743   0.72778   0.00000  Uiso   1.00
C777   C     0.17109   0.61601   0.75052   0.00000  Uiso   1.00
C778   C     0.16835   0.88292   0.75054   0.00000  Uiso   1.00
C779   C     0.16830   0.59171   0.70675   0.00000  Uiso   1.00
C780   C     0.13326   0.90479   0.77441   0.00000  Uiso   1.00
C781   C     0.16854   0.54573   0.70768   0.00000  Uiso   1.00
C782   C     0.13494   0.95089   0.77497   0.00000  Uiso   1.00
C783   C     0.17169   0.52325   0.75119   0.00000  Uiso   1.00
C784   C     0.17078   0.97510   0.75146   0.00000  Uiso   1.00
Cu785  Cu    0.16667   0.75000   0.79822   0.00000  Uiso   1.00
Cu786  Cu    0.16667   0.75001   0.70179   0.00000  Uiso   1.00
H787   H     0.18116   0.52910   0.82832   0.00000  Uiso   1.00
H788   H     0.23407   0.97222   0.71054   0.00000  Uiso   1.00
H789   H     0.16560   0.52744   0.67408   0.00000  Uiso   1.00
H790   H     0.10766   0.96777   0.79294   0.00000  Uiso   1.00
H791   H     0.24589   0.77424   0.54618   0.00000  Uiso   1.00
H792   H     0.13673   0.68285   0.96014   0.00000  Uiso   1.00
N793   N     0.16667   0.75001   0.62935   0.00000  Uiso   1.00
N794   N     0.16667   0.74999   0.87066   0.00000  Uiso   1.00
O795   O     0.16667   0.68573   0.79072   0.00000  Uiso   1.00
O796   O     0.16666   0.81428   0.70929   0.00000  Uiso   1.00
O797   O     0.16667   0.68573   0.70928   0.00000  Uiso   1.00
O798   O     0.16666   0.81427   0.79072   0.00000  Uiso   1.00
O799   O     0.09161   0.75000   0.78132   0.00000  Uiso   1.00
O800   O     0.24172   0.75001   0.71868   0.00000  Uiso   1.00
O801   O     0.09161   0.75000   0.69989   0.00000  Uiso   1.00
O802   O     0.24172   0.75000   0.80012   0.00000  Uiso   1.00
N803   N     0.32142   0.70887   0.69923   0.00000  Uiso   1.00
H804   H     0.32629   0.72092   0.66549   0.00000  Uiso   1.00
H805   H     0.00699   0.67949   0.70418   0.00000  Uiso   1.00
N806   N     0.01258   0.78547   0.80622   0.00000  Uiso   1.00
H807   H     0.32962   0.81613   0.80304   0.00000  Uiso   1.00
H808   H     0.00563   0.77155   0.83895   0.00000  Uiso   1.00
N809   N     0.18651   0.61525   0.84026   0.00000  Uiso   1.00
H810   H     0.15946   0.60251   0.86138   0.00000  Uiso   1.00
H811   H     0.22287   0.60782   0.85738   0.00000  Uiso   1.00
N812   N     0.24298   0.88580   0.70588   0.00000  Uiso   1.00
H813   H     0.27931   0.89692   0.72308   0.00000  Uiso   1.00
H814   H     0.24008   0.89551   0.66987   0.00000  Uiso   1.00
N815   N     0.16591   0.61317   0.66108   0.00000  Uiso   1.00
H816   H     0.19808   0.60528   0.64545   0.00000  Uiso   1.00
H817   H     0.13319   0.60026   0.63884   0.00000  Uiso   1.00
N818   N     0.09514   0.88021   0.79699   0.00000  Uiso   1.00
H819   H     0.05891   0.88910   0.78100   0.00000  Uiso   1.00
H820   H     0.09962   0.88964   0.83327   0.00000  Uiso   1.00
N821   N     0.24789   0.79581   0.63546   0.00000  Uiso   1.00
H822   H     0.23500   0.81039   0.66455   0.00000  Uiso   1.00
H823   H     0.27908   0.77710   0.64692   0.00000  Uiso   1.00
N824   N     0.11392   0.68131   0.86427   0.00000  Uiso   1.00
H825   H     0.08053   0.69542   0.84824   0.00000  Uiso   1.00
H826   H     0.10171   0.65610   0.88619   0.00000  Uiso   1.00
C827   C     0.08091   0.70640   0.61450   0.00000  Uiso   1.00
O828   O     0.08844   0.67747   0.64432   0.00000  Uiso   1.00
O829   O     0.03078   0.71195   0.59204   0.00000  Uiso   1.00
H830   H     0.00570   0.68681   0.59869   0.00000  Uiso   1.00
C831   C     0.21714   0.82257   0.87850   0.00000  Uiso   1.00
O832   O     0.25749   0.81682   0.86325   0.00000  Uiso   1.00
O833   O     0.19886   0.86490   0.87915   0.00000  Uiso   1.00
H834   H     0.22163   0.88781   0.86462   0.00000  Uiso   1.00
N835   N     0.07542   0.72485   0.51607   0.00000  Uiso   1.00
H836   H     0.06995   0.74809   0.98858   0.00000  Uiso   1.00
H837   H     0.07502   0.69306   0.50183   0.00000  Uiso   1.00
N838   N     0.20180   0.82805   0.97444   0.00000  Uiso   1.00
H839   H     0.17563   0.83429   0.99809   0.00000  Uiso   1.00
H840   H     0.23875   0.82652   0.99325   0.00000  Uiso   1.00
C841   C     0.50143   0.66483   0.75016   0.00000  Uiso   1.00
C842   C     0.50051   0.83478   0.75012   0.00000  Uiso   1.00
C843   C     0.54379   0.76375   0.55931   0.00000  Uiso   1.00
C844   C     0.48280   0.71290   0.94363   0.00000  Uiso   1.00
C845   C     0.54125   0.76824   0.60887   0.00000  Uiso   1.00
C846   C     0.47763   0.71509   0.89278   0.00000  Uiso   1.00
C847   C     0.45813   0.73207   0.59786   0.00000  Uiso   1.00
C848   C     0.52236   0.78534   0.89885   0.00000  Uiso   1.00
C849   C     0.45650   0.73504   0.54683   0.00000  Uiso   1.00
C850   C     0.52020   0.78711   0.94906   0.00000  Uiso   1.00
C851   C     0.50103   0.74869   0.52689   0.00000  Uiso   1.00
C852   C     0.50227   0.74946   0.97280   0.00000  Uiso   1.00
C853   C     0.40143   0.74857   0.73802   0.00000  Uiso   1.00
C854   C     0.59856   0.75091   0.76228   0.00000  Uiso   1.00
C855   C     0.34630   0.74063   0.73405   0.00000  Uiso   1.00
C856   C     0.65385   0.75726   0.76783   0.00000  Uiso   1.00
C857   C     0.51013   0.54665   0.79445   0.00000  Uiso   1.00
C858   C     0.53904   0.95340   0.72801   0.00000  Uiso   1.00
C859   C     0.51084   0.59268   0.79473   0.00000  Uiso   1.00
C860   C     0.53843   0.90743   0.72778   0.00000  Uiso   1.00
C861   C     0.50442   0.61601   0.75052   0.00000  Uiso   1.00
C862   C     0.50169   0.88292   0.75054   0.00000  Uiso   1.00
C863   C     0.50163   0.59171   0.70675   0.00000  Uiso   1.00
C864   C     0.46660   0.90479   0.77441   0.00000  Uiso   1.00
C865   C     0.50187   0.54573   0.70768   0.00000  Uiso   1.00
C866   C     0.46827   0.95089   0.77497   0.00000  Uiso   1.00
C867   C     0.50503   0.52325   0.75119   0.00000  Uiso   1.00
C868   C     0.50411   0.97510   0.75146   0.00000  Uiso   1.00
Cu869  Cu    0.50000   0.75000   0.79822   0.00000  Uiso   1.00
Cu870  Cu    0.50000   0.75001   0.70179   0.00000  Uiso   1.00
H871   H     0.51449   0.52910   0.82832   0.00000  Uiso   1.00
H872   H     0.56740   0.97222   0.71054   0.00000  Uiso   1.00
H873   H     0.49893   0.52744   0.67408   0.00000  Uiso   1.00
H874   H     0.44099   0.96777   0.79294   0.00000  Uiso   1.00
H875   H     0.57922   0.77424   0.54618   0.00000  Uiso   1.00
H876   H     0.47006   0.68285   0.96014   0.00000  Uiso   1.00
N877   N     0.50000   0.75001   0.62935   0.00000  Uiso   1.00
N878   N     0.50000   0.74999   0.87066   0.00000  Uiso   1.00
O879   O     0.50000   0.68573   0.79072   0.00000  Uiso   1.00
O880   O     0.50000   0.81428   0.70929   0.00000  Uiso   1.00
O881   O     0.50000   0.68573   0.70928   0.00000  Uiso   1.00
O882   O     0.50000   0.81427   0.79072   0.00000  Uiso   1.00
O883   O     0.42495   0.75000   0.78132   0.00000  Uiso   1.00
O884   O     0.57505   0.75001   0.71868   0.00000  Uiso   1.00
O885   O     0.42495   0.75000   0.69989   0.00000  Uiso   1.00
O886   O     0.57505   0.75000   0.80012   0.00000  Uiso   1.00
N887   N     0.65475   0.70887   0.69923   0.00000  Uiso   1.00
H888   H     0.65962   0.72092   0.66549   0.00000  Uiso   1.00
H889   H     0.34032   0.67949   0.70418   0.00000  Uiso   1.00
N890   N     0.34592   0.78547   0.80622   0.00000  Uiso   1.00
H891   H     0.66295   0.81613   0.80304   0.00000  Uiso   1.00
H892   H     0.33897   0.77155   0.83895   0.00000  Uiso   1.00
N893   N     0.51984   0.61525   0.84026   0.00000  Uiso   1.00
H894   H     0.49279   0.60251   0.86138   0.00000  Uiso   1.00
H895   H     0.55620   0.60782   0.85738   0.00000  Uiso   1.00
N896   N     0.57631   0.88580   0.70588   0.00000  Uiso   1.00
H897   H     0.61264   0.89692   0.72308   0.00000  Uiso   1.00
H898   H     0.57341   0.89551   0.66987   0.00000  Uiso   1.00
N899   N     0.49924   0.61317   0.66108   0.00000  Uiso   1.00
H900   H     0.53142   0.60528   0.64545   0.00000  Uiso   1.00
H901   H     0.46652   0.60026   0.63884   0.00000  Uiso   1.00
N902   N     0.42847   0.88021   0.79699   0.00000  Uiso   1.00
H903   H     0.39224   0.88910   0.78100   0.00000  Uiso   1.00
H904   H     0.43296   0.88964   0.83327   0.00000  Uiso   1.00
N905   N     0.58122   0.79581   0.63546   0.00000  Uiso   1.00
H906   H     0.56833   0.81039   0.66455   0.00000  Uiso   1.00
H907   H     0.61241   0.77710   0.64692   0.00000  Uiso   1.00
N908   N     0.44726   0.68131   0.86427   0.00000  Uiso   1.00
H909   H     0.41387   0.69542   0.84824   0.00000  Uiso   1.00
H910   H     0.43504   0.65610   0.88619   0.00000  Uiso   1.00
C911   C     0.41424   0.70640   0.61450   0.00000  Uiso   1.00
O912   O     0.42177   0.67747   0.64432   0.00000  Uiso   1.00
O913   O     0.36411   0.71195   0.59204   0.00000  Uiso   1.00
H914   H     0.33903   0.68681   0.59869   0.00000  Uiso   1.00
C915   C     0.55048   0.82257   0.87850   0.00000  Uiso   1.00
O916   O     0.59082   0.81682   0.86325   0.00000  Uiso   1.00
O917   O     0.53220   0.86490   0.87915   0.00000  Uiso   1.00
H918   H     0.55496   0.88781   0.86462   0.00000  Uiso   1.00
N919   N     0.40875   0.72485   0.51607   0.00000  Uiso   1.00
H920   H     0.40328   0.74809   0.98858   0.00000  Uiso   1.00
H921   H     0.40835   0.69306   0.50183   0.00000  Uiso   1.00
N922   N     0.53514   0.82805   0.97444   0.00000  Uiso   1.00
H923   H     0.50896   0.83429   0.99809   0.00000  Uiso   1.00
H924   H     0.57209   0.82652   0.99325   0.00000  Uiso   1.00
C925   C     0.83476   0.66483   0.75016   0.00000  Uiso   1.00
C926   C     0.83385   0.83478   0.75012   0.00000  Uiso   1.00
C927   C     0.87713   0.76375   0.55931   0.00000  Uiso   1.00
C928   C     0.81613   0.71290   0.94363   0.00000  Uiso   1.00
C929   C     0.87458   0.76824   0.60887   0.00000  Uiso   1.00
C930   C     0.81096   0.71509   0.89278   0.00000  Uiso   1.00
C931   C     0.79146   0.73207   0.59786   0.00000  Uiso   1.00
C932   C     0.85570   0.78534   0.89885   0.00000  Uiso   1.00
C933   C     0.78983   0.73504   0.54683   0.00000  Uiso   1.00
C934   C     0.85354   0.78711   0.94906   0.00000  Uiso   1.00
C935   C     0.83436   0.74869   0.52689   0.00000  Uiso   1.00
C936   C     0.83561   0.74946   0.97280   0.00000  Uiso   1.00
C937   C     0.73476   0.74857   0.73802   0.00000  Uiso   1.00
C938   C     0.93189   0.75091   0.76228   0.00000  Uiso   1.00
C939   C     0.67963   0.74063   0.73405   0.00000  Uiso   1.00
C940   C     0.98719   0.75726   0.76783   0.00000  Uiso   1.00
C941   C     0.84347   0.54665   0.79445   0.00000  Uiso   1.00
C942   C     0.87238   0.95340   0.72801   0.00000  Uiso   1.00
C943   C     0.84418   0.59268   0.79473   0.00000  Uiso   1.00
C944   C     0.87176   0.90743   0.72778   0.00000  Uiso   1.00
C945   C     0.83776   0.61601   0.75052   0.00000  Uiso   1.00
C946   C     0.83502   0.88292   0.75054   0.00000  Uiso   1.00
C947   C     0.83496   0.59171   0.70675   0.00000  Uiso   1.00
C948   C     0.79993   0.90479   0.77441   0.00000  Uiso   1.00
C949   C     0.83521   0.54573   0.70768   0.00000  Uiso   1.00
C950   C     0.80160   0.95089   0.77497   0.00000  Uiso   1.00
C951   C     0.83836   0.52325   0.75119   0.00000  Uiso   1.00
C952   C     0.83744   0.97510   0.75146   0.00000  Uiso   1.00
Cu953  Cu    0.83333   0.75000   0.79822   0.00000  Uiso   1.00
Cu954  Cu    0.83333   0.75001   0.70179   0.00000  Uiso   1.00
H955   H     0.84783   0.52910   0.82832   0.00000  Uiso   1.00
H956   H     0.90074   0.97222   0.71054   0.00000  Uiso   1.00
H957   H     0.83227   0.52744   0.67408   0.00000  Uiso   1.00
H958   H     0.77433   0.96777   0.79294   0.00000  Uiso   1.00
H959   H     0.91255   0.77424   0.54618   0.00000  Uiso   1.00
H960   H     0.80339   0.68285   0.96014   0.00000  Uiso   1.00
N961   N     0.83333   0.75001   0.62935   0.00000  Uiso   1.00
N962   N     0.83333   0.74999   0.87066   0.00000  Uiso   1.00
O963   O     0.83334   0.68573   0.79072   0.00000  Uiso   1.00
O964   O     0.83333   0.81428   0.70929   0.00000  Uiso   1.00
O965   O     0.83334   0.68573   0.70928   0.00000  Uiso   1.00
O966   O     0.83333   0.81427   0.79072   0.00000  Uiso   1.00
O967   O     0.75828   0.75000   0.78132   0.00000  Uiso   1.00
O968   O     0.90839   0.75001   0.71868   0.00000  Uiso   1.00
O969   O     0.75828   0.75000   0.69989   0.00000  Uiso   1.00
O970   O     0.90839   0.75000   0.80012   0.00000  Uiso   1.00
N971   N     0.98809   0.70887   0.69923   0.00000  Uiso   1.00
H972   H     0.99295   0.72092   0.66549   0.00000  Uiso   1.00
H973   H     0.67366   0.67949   0.70418   0.00000  Uiso   1.00
N974   N     0.67925   0.78547   0.80622   0.00000  Uiso   1.00
H975   H     0.99628   0.81613   0.80304   0.00000  Uiso   1.00
H976   H     0.67230   0.77155   0.83895   0.00000  Uiso   1.00
N977   N     0.85318   0.61525   0.84026   0.00000  Uiso   1.00
H978   H     0.82612   0.60251   0.86138   0.00000  Uiso   1.00
H979   H     0.88954   0.60782   0.85738   0.00000  Uiso   1.00
N980   N     0.90964   0.88580   0.70588   0.00000  Uiso   1.00
H981   H     0.94598   0.89692   0.72308   0.00000  Uiso   1.00
H982   H     0.90674   0.89551   0.66987   0.00000  Uiso   1.00
N983   N     0.83257   0.61317   0.66108   0.00000  Uiso   1.00
H984   H     0.86475   0.60528   0.64545   0.00000  Uiso   1.00
H985   H     0.79985   0.60026   0.63884   0.00000  Uiso   1.00
N986   N     0.76181   0.88021   0.79699   0.00000  Uiso   1.00
H987   H     0.72557   0.88910   0.78100   0.00000  Uiso   1.00
H988   H     0.76629   0.88964   0.83327   0.00000  Uiso   1.00
N989   N     0.91456   0.79581   0.63546   0.00000  Uiso   1.00
H990   H     0.90166   0.81039   0.66455   0.00000  Uiso   1.00
H991   H     0.94574   0.77710   0.64692   0.00000  Uiso   1.00
N992   N     0.78059   0.68131   0.86427   0.00000  Uiso   1.00
H993   H     0.74720   0.69542   0.84824   0.00000  Uiso   1.00
H994   H     0.76838   0.65610   0.88619   0.00000  Uiso   1.00
C995   C     0.74757   0.70640   0.61450   0.00000  Uiso   1.00
O996   O     0.75511   0.67747   0.64432   0.00000  Uiso   1.00
O997   O     0.69744   0.71195   0.59204   0.00000  Uiso   1.00
H998   H     0.67236   0.68681   0.59869   0.00000  Uiso   1.00
C999   C     0.88381   0.82257   0.87850   0.00000  Uiso   1.00
O1000  O     0.92415   0.81682   0.86325   0.00000  Uiso   1.00
O1001  O     0.86553   0.86490   0.87915   0.00000  Uiso   1.00
H1002  H     0.88830   0.88781   0.86462   0.00000  Uiso   1.00
N1003  N     0.74208   0.72485   0.51607   0.00000  Uiso   1.00
H1004  H     0.73662   0.74809   0.98858   0.00000  Uiso   1.00
H1005  H     0.74169   0.69306   0.50183   0.00000  Uiso   1.00
N1006  N     0.86847   0.82805   0.97444   0.00000  Uiso   1.00
H1007  H     0.84229   0.83429   0.99809   0.00000  Uiso   1.00
H1008  H     0.90542   0.82652   0.99325   0.00000  Uiso   1.00
loop_
_geom_bond_atom_site_label_1
_geom_bond_atom_site_label_2
_geom_bond_distance
_geom_bond_site_symmetry_2
_ccdc_geom_bond_type
C1     C21     1.488   .     S
C1     O41     1.307   .     A
C1     O39     1.308   .     A
C2     C22     1.459   .     S
C2     O42     1.299   .     A
C2     O40     1.301   .     A
C3     H35     1.080   .     S
C3     C5      1.408   .     A
C3     C11     1.398   .     A
C4     H36     1.080   .     S
C4     C12     1.406   .     A
C4     C6      1.416   .     A
C5     N37     1.385   .     A
C5     N65     1.428   .     S
C6     N38     1.372   .     A
C6     N68     1.433   .     S
C7     C71     1.484   .     S
C7     N37     1.395   .     A
C7     C9      1.429   .     A
C8     N38     1.385   .     A
C8     C75     1.473   .     S
C8     C10     1.418   .     A
C9     N79     1.439   .     S
C9     C11     1.408   .     A
C10    N82     1.438   .     S
C10    C12     1.413   .     A
C11    C516    1.522   1_554 S
C12    C515    1.522   .     S
C13    C15     1.445   .     S
C13    O43     1.283   .     A
C13    O45     1.308   .     A
C14    O46     1.300   .     A
C14    C16     1.443   .     S
C14    O44     1.290   .     A
C15    C184    1.353   1_455 S
C15    N215    1.434   1_455 S
C16    C99     1.353   .     S
C16    N134    1.439   .     S
C17    C27     1.391   .     A
C17    H31     1.084   .     S
C17    C19     1.396   .     A
C18    C20     1.394   .     A
C18    C28     1.396   .     A
C18    H32     1.084   .     S
C19    C21     1.422   .     A
C19    N53     1.432   .     S
C20    N56     1.431   .     S
C20    C22     1.409   .     A
C21    C23     1.422   .     A
C22    C24     1.409   .     A
C23    N59     1.433   .     S
C23    C25     1.395   .     A
C24    N62     1.433   .     S
C24    C26     1.397   .     A
C25    C27     1.393   .     A
C25    H33     1.084   .     S
C26    H34     1.084   .     S
C26    C28     1.399   .     A
C27    C280    1.460   1_545 S
C28    C279    1.460   .     S
Cu29   O42     1.961   .     S
Cu29   Cu30    2.704   .     S
Cu29   N38     2.032   .     S
Cu29   O43     1.965   .     S
Cu29   O39     1.961   .     S
Cu29   O46     1.968   .     S
Cu30   O45     1.968   .     S
Cu30   O41     1.961   .     S
Cu30   O44     1.965   .     S
Cu30   N37     2.032   .     S
Cu30   O40     1.961   .     S
N47    H48     1.036   .     S
N47    C99     1.434   .     S
N47    H133    1.046   .     S
H49    N215    1.046   1_455 S
N50    H52     1.045   .     S
N50    C184    1.439   1_455 S
N50    H219    1.045   1_455 S
H51    N134    1.045   .     S
N53    H54     1.045   .     S
N53    H55     1.046   .     S
N56    H57     1.046   .     S
N56    H58     1.046   .     S
N59    H60     1.046   .     S
N59    H61     1.046   .     S
N62    H64     1.045   .     S
N62    H63     1.046   .     S
N65    H67     1.039   .     S
N65    H66     1.035   .     S
N68    H69     1.044   .     S
N68    H70     1.046   .     S
C71    O72     1.218   .     D
C71    O73     1.399   .     S
O73    H74     1.014   .     S
C75    O76     1.220   .     D
C75    O77     1.398   .     S
O77    H78     1.014   .     S
N79    H81     1.043   .     S
N79    H584    1.046   1_554 S
H80    N583    1.046   .     S
N82    H84     1.043   .     S
N82    H83     1.045   .     S
C85    C105    1.488   .     S
C85    O125    1.307   .     A
C85    O123    1.308   .     A
C86    C106    1.459   .     S
C86    O126    1.299   .     A
C86    O124    1.301   .     A
C87    H119    1.080   .     S
C87    C89     1.408   .     A
C87    C95     1.398   .     A
C88    H120    1.080   .     S
C88    C96     1.406   .     A
C88    C90     1.416   .     A
C89    N121    1.385   .     A
C89    N149    1.428   .     S
C90    N122    1.372   .     A
C90    N152    1.433   .     S
C91    C155    1.484   .     S
C91    N121    1.395   .     A
C91    C93     1.429   .     A
C92    N122    1.385   .     A
C92    C159    1.473   .     S
C92    C94     1.418   .     A
C93    N163    1.439   .     S
C93    C95     1.408   .     A
C94    N166    1.438   .     S
C94    C96     1.413   .     A
C95    C600    1.522   1_554 S
C96    C599    1.522   .     S
C97    C99     1.445   .     S
C97    O127    1.283   .     A
C97    O129    1.308   .     A
C98    O130    1.300   .     A
C98    C100    1.443   .     S
C98    O128    1.290   .     A
C100   C183    1.353   .     S
C100   N218    1.439   .     S
C101   C111    1.391   .     A
C101   H115    1.084   .     S
C101   C103    1.396   .     A
C102   C104    1.394   .     A
C102   C112    1.396   .     A
C102   H116    1.084   .     S
C103   C105    1.422   .     A
C103   N137    1.432   .     S
C104   N140    1.431   .     S
C104   C106    1.409   .     A
C105   C107    1.422   .     A
C106   C108    1.409   .     A
C107   N143    1.433   .     S
C107   C109    1.395   .     A
C108   N146    1.433   .     S
C108   C110    1.397   .     A
C109   C111    1.393   .     A
C109   H117    1.084   .     S
C110   H118    1.084   .     S
C110   C112    1.399   .     A
C111   C364    1.460   1_545 S
C112   C363    1.460   .     S
Cu113  O126    1.961   .     S
Cu113  Cu114   2.704   .     S
Cu113  N122    2.032   .     S
Cu113  O127    1.965   .     S
Cu113  O123    1.961   .     S
Cu113  O130    1.968   .     S
Cu114  O129    1.968   .     S
Cu114  O125    1.961   .     S
Cu114  O128    1.965   .     S
Cu114  N121    2.032   .     S
Cu114  O124    1.961   .     S
N131   H132    1.036   .     S
N131   C183    1.434   .     S
N131   H217    1.046   .     S
N134   H136    1.045   .     S
H135   N218    1.045   .     S
N137   H138    1.045   .     S
N137   H139    1.046   .     S
N140   H141    1.046   .     S
N140   H142    1.046   .     S
N143   H144    1.046   .     S
N143   H145    1.046   .     S
N146   H148    1.045   .     S
N146   H147    1.046   .     S
N149   H151    1.039   .     S
N149   H150    1.035   .     S
N152   H153    1.044   .     S
N152   H154    1.046   .     S
C155   O156    1.218   .     D
C155   O157    1.399   .     S
O157   H158    1.014   .     S
C159   O160    1.220   .     D
C159   O161    1.398   .     S
O161   H162    1.014   .     S
N163   H165    1.043   .     S
N163   H668    1.046   1_554 S
H164   N667    1.046   .     S
N166   H168    1.043   .     S
N166   H167    1.045   .     S
C169   C189    1.488   .     S
C169   O209    1.307   .     A
C169   O207    1.308   .     A
C170   C190    1.459   .     S
C170   O210    1.299   .     A
C170   O208    1.301   .     A
C171   H203    1.080   .     S
C171   C173    1.408   .     A
C171   C179    1.398   .     A
C172   H204    1.080   .     S
C172   C180    1.406   .     A
C172   C174    1.416   .     A
C173   N205    1.385   .     A
C173   N233    1.428   .     S
C174   N206    1.372   .     A
C174   N236    1.433   .     S
C175   C239    1.484   .     S
C175   N205    1.395   .     A
C175   C177    1.429   .     A
C176   N206    1.385   .     A
C176   C243    1.473   .     S
C176   C178    1.418   .     A
C177   N247    1.439   .     S
C177   C179    1.408   .     A
C178   N250    1.438   .     S
C178   C180    1.413   .     A
C179   C684    1.522   1_554 S
C180   C683    1.522   .     S
C181   C183    1.445   .     S
C181   O211    1.283   .     A
C181   O213    1.308   .     A
C182   O214    1.300   .     A
C182   C184    1.443   .     S
C182   O212    1.290   .     A
C184   C15     1.353   1_655 S
C184   N50     1.439   1_655 S
C185   C195    1.391   .     A
C185   H199    1.084   .     S
C185   C187    1.396   .     A
C186   C188    1.394   .     A
C186   C196    1.396   .     A
C186   H200    1.084   .     S
C187   C189    1.422   .     A
C187   N221    1.432   .     S
C188   N224    1.431   .     S
C188   C190    1.409   .     A
C189   C191    1.422   .     A
C190   C192    1.409   .     A
C191   N227    1.433   .     S
C191   C193    1.395   .     A
C192   N230    1.433   .     S
C192   C194    1.397   .     A
C193   C195    1.393   .     A
C193   H201    1.084   .     S
C194   H202    1.084   .     S
C194   C196    1.399   .     A
C195   C448    1.460   1_545 S
C196   C447    1.460   .     S
Cu197  O210    1.961   .     S
Cu197  Cu198   2.704   .     S
Cu197  N206    2.032   .     S
Cu197  O211    1.965   .     S
Cu197  O207    1.961   .     S
Cu197  O214    1.968   .     S
Cu198  O213    1.968   .     S
Cu198  O209    1.961   .     S
Cu198  O212    1.965   .     S
Cu198  N205    2.032   .     S
Cu198  O208    1.961   .     S
N215   H216    1.036   .     S
N215   C15     1.434   1_655 S
N215   H49     1.046   1_655 S
N218   H220    1.045   .     S
H219   N50     1.045   1_655 S
N221   H222    1.045   .     S
N221   H223    1.046   .     S
N224   H225    1.046   .     S
N224   H226    1.046   .     S
N227   H228    1.046   .     S
N227   H229    1.046   .     S
N230   H232    1.045   .     S
N230   H231    1.046   .     S
N233   H235    1.039   .     S
N233   H234    1.035   .     S
N236   H237    1.044   .     S
N236   H238    1.046   .     S
C239   O240    1.218   .     D
C239   O241    1.399   .     S
O241   H242    1.014   .     S
C243   O244    1.220   .     D
C243   O245    1.398   .     S
O245   H246    1.014   .     S
N247   H249    1.043   .     S
N247   H752    1.046   1_554 S
H248   N751    1.046   .     S
N250   H252    1.043   .     S
N250   H251    1.045   .     S
C253   C273    1.488   .     S
C253   O293    1.307   .     A
C253   O291    1.308   .     A
C254   C274    1.459   .     S
C254   O294    1.299   .     A
C254   O292    1.301   .     A
C255   H287    1.080   .     S
C255   C257    1.408   .     A
C255   C263    1.398   .     A
C256   H288    1.080   .     S
C256   C264    1.406   .     A
C256   C258    1.416   .     A
C257   N289    1.385   .     A
C257   N317    1.428   .     S
C258   N290    1.372   .     A
C258   N320    1.433   .     S
C259   C323    1.484   .     S
C259   N289    1.395   .     A
C259   C261    1.429   .     A
C260   N290    1.385   .     A
C260   C327    1.473   .     S
C260   C262    1.418   .     A
C261   N331    1.439   .     S
C261   C263    1.408   .     A
C262   N334    1.438   .     S
C262   C264    1.413   .     A
C263   C768    1.522   1_554 S
C264   C767    1.522   .     S
C265   C267    1.445   .     S
C265   O295    1.283   .     A
C265   O297    1.308   .     A
C266   O298    1.300   .     A
C266   C268    1.443   .     S
C266   O296    1.290   .     A
C267   C436    1.353   1_455 S
C267   N467    1.434   1_455 S
C268   C351    1.353   .     S
C268   N386    1.439   .     S
C269   C279    1.391   .     A
C269   H283    1.084   .     S
C269   C271    1.396   .     A
C270   C272    1.394   .     A
C270   C280    1.396   .     A
C270   H284    1.084   .     S
C271   C273    1.422   .     A
C271   N305    1.432   .     S
C272   N308    1.431   .     S
C272   C274    1.409   .     A
C273   C275    1.422   .     A
C274   C276    1.409   .     A
C275   N311    1.433   .     S
C275   C277    1.395   .     A
C276   N314    1.433   .     S
C276   C278    1.397   .     A
C277   C279    1.393   .     A
C277   H285    1.084   .     S
C278   H286    1.084   .     S
C278   C280    1.399   .     A
C280   C27     1.460   1_565 S
Cu281  O294    1.961   .     S
Cu281  Cu282   2.704   .     S
Cu281  N290    2.032   .     S
Cu281  O295    1.965   .     S
Cu281  O291    1.961   .     S
Cu281  O298    1.968   .     S
Cu282  O297    1.968   .     S
Cu282  O293    1.961   .     S
Cu282  O296    1.965   .     S
Cu282  N289    2.032   .     S
Cu282  O292    1.961   .     S
N299   H300    1.036   .     S
N299   C351    1.434   .     S
N299   H385    1.046   .     S
H301   N467    1.046   1_455 S
N302   H304    1.045   .     S
N302   C436    1.439   1_455 S
N302   H471    1.045   1_455 S
H303   N386    1.045   .     S
N305   H306    1.045   .     S
N305   H307    1.046   .     S
N308   H309    1.046   .     S
N308   H310    1.046   .     S
N311   H312    1.046   .     S
N311   H313    1.046   .     S
N314   H316    1.045   .     S
N314   H315    1.046   .     S
N317   H319    1.039   .     S
N317   H318    1.035   .     S
N320   H321    1.044   .     S
N320   H322    1.046   .     S
C323   O324    1.218   .     D
C323   O325    1.399   .     S
O325   H326    1.014   .     S
C327   O328    1.220   .     D
C327   O329    1.398   .     S
O329   H330    1.014   .     S
N331   H333    1.043   .     S
N331   H836    1.046   1_554 S
H332   N835    1.046   .     S
N334   H336    1.043   .     S
N334   H335    1.045   .     S
C337   C357    1.488   .     S
C337   O377    1.307   .     A
C337   O375    1.308   .     A
C338   C358    1.459   .     S
C338   O378    1.299   .     A
C338   O376    1.301   .     A
C339   H371    1.080   .     S
C339   C341    1.408   .     A
C339   C347    1.398   .     A
C340   H372    1.080   .     S
C340   C348    1.406   .     A
C340   C342    1.416   .     A
C341   N373    1.385   .     A
C341   N401    1.428   .     S
C342   N374    1.372   .     A
C342   N404    1.433   .     S
C343   C407    1.484   .     S
C343   N373    1.395   .     A
C343   C345    1.429   .     A
C344   N374    1.385   .     A
C344   C411    1.473   .     S
C344   C346    1.418   .     A
C345   N415    1.439   .     S
C345   C347    1.408   .     A
C346   N418    1.438   .     S
C346   C348    1.413   .     A
C347   C852    1.522   1_554 S
C348   C851    1.522   .     S
C349   C351    1.445   .     S
C349   O379    1.283   .     A
C349   O381    1.308   .     A
C350   O382    1.300   .     A
C350   C352    1.443   .     S
C350   O380    1.290   .     A
C352   C435    1.353   .     S
C352   N470    1.439   .     S
C353   C363    1.391   .     A
C353   H367    1.084   .     S
C353   C355    1.396   .     A
C354   C356    1.394   .     A
C354   C364    1.396   .     A
C354   H368    1.084   .     S
C355   C357    1.422   .     A
C355   N389    1.432   .     S
C356   N392    1.431   .     S
C356   C358    1.409   .     A
C357   C359    1.422   .     A
C358   C360    1.409   .     A
C359   N395    1.433   .     S
C359   C361    1.395   .     A
C360   N398    1.433   .     S
C360   C362    1.397   .     A
C361   C363    1.393   .     A
C361   H369    1.084   .     S
C362   H370    1.084   .     S
C362   C364    1.399   .     A
C364   C111    1.460   1_565 S
Cu365  O378    1.961   .     S
Cu365  Cu366   2.704   .     S
Cu365  N374    2.032   .     S
Cu365  O379    1.965   .     S
Cu365  O375    1.961   .     S
Cu365  O382    1.968   .     S
Cu366  O381    1.968   .     S
Cu366  O377    1.961   .     S
Cu366  O380    1.965   .     S
Cu366  N373    2.032   .     S
Cu366  O376    1.961   .     S
N383   H384    1.036   .     S
N383   C435    1.434   .     S
N383   H469    1.046   .     S
N386   H388    1.045   .     S
H387   N470    1.045   .     S
N389   H390    1.045   .     S
N389   H391    1.046   .     S
N392   H393    1.046   .     S
N392   H394    1.046   .     S
N395   H396    1.046   .     S
N395   H397    1.046   .     S
N398   H400    1.045   .     S
N398   H399    1.046   .     S
N401   H403    1.039   .     S
N401   H402    1.035   .     S
N404   H405    1.044   .     S
N404   H406    1.046   .     S
C407   O408    1.218   .     D
C407   O409    1.399   .     S
O409   H410    1.014   .     S
C411   O412    1.220   .     D
C411   O413    1.398   .     S
O413   H414    1.014   .     S
N415   H417    1.043   .     S
N415   H920    1.046   1_554 S
H416   N919    1.046   .     S
N418   H420    1.043   .     S
N418   H419    1.045   .     S
C421   C441    1.488   .     S
C421   O461    1.307   .     A
C421   O459    1.308   .     A
C422   C442    1.459   .     S
C422   O462    1.299   .     A
C422   O460    1.301   .     A
C423   H455    1.080   .     S
C423   C425    1.408   .     A
C423   C431    1.398   .     A
C424   H456    1.080   .     S
C424   C432    1.406   .     A
C424   C426    1.416   .     A
C425   N457    1.385   .     A
C425   N485    1.428   .     S
C426   N458    1.372   .     A
C426   N488    1.433   .     S
C427   C491    1.484   .     S
C427   N457    1.395   .     A
C427   C429    1.429   .     A
C428   N458    1.385   .     A
C428   C495    1.473   .     S
C428   C430    1.418   .     A
C429   N499    1.439   .     S
C429   C431    1.408   .     A
C430   N502    1.438   .     S
C430   C432    1.413   .     A
C431   C936    1.522   1_554 S
C432   C935    1.522   .     S
C433   C435    1.445   .     S
C433   O463    1.283   .     A
C433   O465    1.308   .     A
C434   O466    1.300   .     A
C434   C436    1.443   .     S
C434   O464    1.290   .     A
C436   C267    1.353   1_655 S
C436   N302    1.439   1_655 S
C437   C447    1.391   .     A
C437   H451    1.084   .     S
C437   C439    1.396   .     A
C438   C440    1.394   .     A
C438   C448    1.396   .     A
C438   H452    1.084   .     S
C439   C441    1.422   .     A
C439   N473    1.432   .     S
C440   N476    1.431   .     S
C440   C442    1.409   .     A
C441   C443    1.422   .     A
C442   C444    1.409   .     A
C443   N479    1.433   .     S
C443   C445    1.395   .     A
C444   N482    1.433   .     S
C444   C446    1.397   .     A
C445   C447    1.393   .     A
C445   H453    1.084   .     S
C446   H454    1.084   .     S
C446   C448    1.399   .     A
C448   C195    1.460   1_565 S
Cu449  O462    1.961   .     S
Cu449  Cu450   2.704   .     S
Cu449  N458    2.032   .     S
Cu449  O463    1.965   .     S
Cu449  O459    1.961   .     S
Cu449  O466    1.968   .     S
Cu450  O465    1.968   .     S
Cu450  O461    1.961   .     S
Cu450  O464    1.965   .     S
Cu450  N457    2.032   .     S
Cu450  O460    1.961   .     S
N467   H468    1.036   .     S
N467   C267    1.434   1_655 S
N467   H301    1.046   1_655 S
N470   H472    1.045   .     S
H471   N302    1.045   1_655 S
N473   H474    1.045   .     S
N473   H475    1.046   .     S
N476   H477    1.046   .     S
N476   H478    1.046   .     S
N479   H480    1.046   .     S
N479   H481    1.046   .     S
N482   H484    1.045   .     S
N482   H483    1.046   .     S
N485   H487    1.039   .     S
N485   H486    1.035   .     S
N488   H489    1.044   .     S
N488   H490    1.046   .     S
C491   O492    1.218   .     D
C491   O493    1.399   .     S
O493   H494    1.014   .     S
C495   O496    1.220   .     D
C495   O497    1.398   .     S
O497   H498    1.014   .     S
N499   H501    1.043   .     S
N499   H1004   1.046   1_554 S
H500   N1003   1.046   .     S
N502   H504    1.043   .     S
N502   H503    1.045   .     S
C505   C525    1.488   .     S
C505   O545    1.307   .     A
C505   O543    1.308   .     A
C506   C526    1.459   .     S
C506   O546    1.299   .     A
C506   O544    1.301   .     A
C507   H539    1.080   .     S
C507   C509    1.408   .     A
C507   C515    1.398   .     A
C508   H540    1.080   .     S
C508   C516    1.406   .     A
C508   C510    1.416   .     A
C509   N541    1.385   .     A
C509   N569    1.428   .     S
C510   N542    1.372   .     A
C510   N572    1.433   .     S
C511   C575    1.484   .     S
C511   N541    1.395   .     A
C511   C513    1.429   .     A
C512   N542    1.385   .     A
C512   C579    1.473   .     S
C512   C514    1.418   .     A
C513   N583    1.439   .     S
C513   C515    1.408   .     A
C514   N586    1.438   .     S
C514   C516    1.413   .     A
C516   C11     1.522   1_556 S
C517   C519    1.445   .     S
C517   O547    1.283   .     A
C517   O549    1.308   .     A
C518   O550    1.300   .     A
C518   C520    1.443   .     S
C518   O548    1.290   .     A
C519   C688    1.353   1_455 S
C519   N719    1.434   1_455 S
C520   C603    1.353   .     S
C520   N638    1.439   .     S
C521   C531    1.391   .     A
C521   H535    1.084   .     S
C521   C523    1.396   .     A
C522   C524    1.394   .     A
C522   C532    1.396   .     A
C522   H536    1.084   .     S
C523   C525    1.422   .     A
C523   N557    1.432   .     S
C524   N560    1.431   .     S
C524   C526    1.409   .     A
C525   C527    1.422   .     A
C526   C528    1.409   .     A
C527   N563    1.433   .     S
C527   C529    1.395   .     A
C528   N566    1.433   .     S
C528   C530    1.397   .     A
C529   C531    1.393   .     A
C529   H537    1.084   .     S
C530   H538    1.084   .     S
C530   C532    1.399   .     A
C531   C784    1.460   1_545 S
C532   C783    1.460   .     S
Cu533  O546    1.961   .     S
Cu533  Cu534   2.704   .     S
Cu533  N542    2.032   .     S
Cu533  O547    1.965   .     S
Cu533  O543    1.961   .     S
Cu533  O550    1.968   .     S
Cu534  O549    1.968   .     S
Cu534  O545    1.961   .     S
Cu534  O548    1.965   .     S
Cu534  N541    2.032   .     S
Cu534  O544    1.961   .     S
N551   H552    1.036   .     S
N551   C603    1.434   .     S
N551   H637    1.046   .     S
H553   N719    1.046   1_455 S
N554   H556    1.045   .     S
N554   C688    1.439   1_455 S
N554   H723    1.045   1_455 S
H555   N638    1.045   .     S
N557   H558    1.045   .     S
N557   H559    1.046   .     S
N560   H561    1.046   .     S
N560   H562    1.046   .     S
N563   H564    1.046   .     S
N563   H565    1.046   .     S
N566   H568    1.045   .     S
N566   H567    1.046   .     S
N569   H571    1.039   .     S
N569   H570    1.035   .     S
N572   H573    1.044   .     S
N572   H574    1.046   .     S
C575   O576    1.218   .     D
C575   O577    1.399   .     S
O577   H578    1.014   .     S
C579   O580    1.220   .     D
C579   O581    1.398   .     S
O581   H582    1.014   .     S
N583   H585    1.043   .     S
H584   N79     1.046   1_556 S
N586   H588    1.043   .     S
N586   H587    1.045   .     S
C589   C609    1.488   .     S
C589   O629    1.307   .     A
C589   O627    1.308   .     A
C590   C610    1.459   .     S
C590   O630    1.299   .     A
C590   O628    1.301   .     A
C591   H623    1.080   .     S
C591   C593    1.408   .     A
C591   C599    1.398   .     A
C592   H624    1.080   .     S
C592   C600    1.406   .     A
C592   C594    1.416   .     A
C593   N625    1.385   .     A
C593   N653    1.428   .     S
C594   N626    1.372   .     A
C594   N656    1.433   .     S
C595   C659    1.484   .     S
C595   N625    1.395   .     A
C595   C597    1.429   .     A
C596   N626    1.385   .     A
C596   C663    1.473   .     S
C596   C598    1.418   .     A
C597   N667    1.439   .     S
C597   C599    1.408   .     A
C598   N670    1.438   .     S
C598   C600    1.413   .     A
C600   C95     1.522   1_556 S
C601   C603    1.445   .     S
C601   O631    1.283   .     A
C601   O633    1.308   .     A
C602   O634    1.300   .     A
C602   C604    1.443   .     S
C602   O632    1.290   .     A
C604   C687    1.353   .     S
C604   N722    1.439   .     S
C605   C615    1.391   .     A
C605   H619    1.084   .     S
C605   C607    1.396   .     A
C606   C608    1.394   .     A
C606   C616    1.396   .     A
C606   H620    1.084   .     S
C607   C609    1.422   .     A
C607   N641    1.432   .     S
C608   N644    1.431   .     S
C608   C610    1.409   .     A
C609   C611    1.422   .     A
C610   C612    1.409   .     A
C611   N647    1.433   .     S
C611   C613    1.395   .     A
C612   N650    1.433   .     S
C612   C614    1.397   .     A
C613   C615    1.393   .     A
C613   H621    1.084   .     S
C614   H622    1.084   .     S
C614   C616    1.399   .     A
C615   C868    1.460   1_545 S
C616   C867    1.460   .     S
Cu617  O630    1.961   .     S
Cu617  Cu618   2.704   .     S
Cu617  N626    2.032   .     S
Cu617  O631    1.965   .     S
Cu617  O627    1.961   .     S
Cu617  O634    1.968   .     S
Cu618  O633    1.968   .     S
Cu618  O629    1.961   .     S
Cu618  O632    1.965   .     S
Cu618  N625    2.032   .     S
Cu618  O628    1.961   .     S
N635   H636    1.036   .     S
N635   C687    1.434   .     S
N635   H721    1.046   .     S
N638   H640    1.045   .     S
H639   N722    1.045   .     S
N641   H642    1.045   .     S
N641   H643    1.046   .     S
N644   H645    1.046   .     S
N644   H646    1.046   .     S
N647   H648    1.046   .     S
N647   H649    1.046   .     S
N650   H652    1.045   .     S
N650   H651    1.046   .     S
N653   H655    1.039   .     S
N653   H654    1.035   .     S
N656   H657    1.044   .     S
N656   H658    1.046   .     S
C659   O660    1.218   .     D
C659   O661    1.399   .     S
O661   H662    1.014   .     S
C663   O664    1.220   .     D
C663   O665    1.398   .     S
O665   H666    1.014   .     S
N667   H669    1.043   .     S
H668   N163    1.046   1_556 S
N670   H672    1.043   .     S
N670   H671    1.045   .     S
C673   C693    1.488   .     S
C673   O713    1.307   .     A
C673   O711    1.308   .     A
C674   C694    1.459   .     S
C674   O714    1.299   .     A
C674   O712    1.301   .     A
C675   H707    1.080   .     S
C675   C677    1.408   .     A
C675   C683    1.398   .     A
C676   H708    1.080   .     S
C676   C684    1.406   .     A
C676   C678    1.416   .     A
C677   N709    1.385   .     A
C677   N737    1.428   .     S
C678   N710    1.372   .     A
C678   N740    1.433   .     S
C679   C743    1.484   .     S
C679   N709    1.395   .     A
C679   C681    1.429   .     A
C680   N710    1.385   .     A
C680   C747    1.473   .     S
C680   C682    1.418   .     A
C681   N751    1.439   .     S
C681   C683    1.408   .     A
C682   N754    1.438   .     S
C682   C684    1.413   .     A
C684   C179    1.522   1_556 S
C685   C687    1.445   .     S
C685   O715    1.283   .     A
C685   O717    1.308   .     A
C686   O718    1.300   .     A
C686   C688    1.443   .     S
C686   O716    1.290   .     A
C688   C519    1.353   1_655 S
C688   N554    1.439   1_655 S
C689   C699    1.391   .     A
C689   H703    1.084   .     S
C689   C691    1.396   .     A
C690   C692    1.394   .     A
C690   C700    1.396   .     A
C690   H704    1.084   .     S
C691   C693    1.422   .     A
C691   N725    1.432   .     S
C692   N728    1.431   .     S
C692   C694    1.409   .     A
C693   C695    1.422   .     A
C694   C696    1.409   .     A
C695   N731    1.433   .     S
C695   C697    1.395   .     A
C696   N734    1.433   .     S
C696   C698    1.397   .     A
C697   C699    1.393   .     A
C697   H705    1.084   .     S
C698   H706    1.084   .     S
C698   C700    1.399   .     A
C699   C952    1.460   1_545 S
C700   C951    1.460   .     S
Cu701  O714    1.961   .     S
Cu701  Cu702   2.704   .     S
Cu701  N710    2.032   .     S
Cu701  O715    1.965   .     S
Cu701  O711    1.961   .     S
Cu701  O718    1.968   .     S
Cu702  O717    1.968   .     S
Cu702  O713    1.961   .     S
Cu702  O716    1.965   .     S
Cu702  N709    2.032   .     S
Cu702  O712    1.961   .     S
N719   H720    1.036   .     S
N719   C519    1.434   1_655 S
N719   H553    1.046   1_655 S
N722   H724    1.045   .     S
H723   N554    1.045   1_655 S
N725   H726    1.045   .     S
N725   H727    1.046   .     S
N728   H729    1.046   .     S
N728   H730    1.046   .     S
N731   H732    1.046   .     S
N731   H733    1.046   .     S
N734   H736    1.045   .     S
N734   H735    1.046   .     S
N737   H739    1.039   .     S
N737   H738    1.035   .     S
N740   H741    1.044   .     S
N740   H742    1.046   .     S
C743   O744    1.218   .     D
C743   O745    1.399   .     S
O745   H746    1.014   .     S
C747   O748    1.220   .     D
C747   O749    1.398   .     S
O749   H750    1.014   .     S
N751   H753    1.043   .     S
H752   N247    1.046   1_556 S
N754   H756    1.043   .     S
N754   H755    1.045   .     S
C757   C777    1.488   .     S
C757   O797    1.307   .     A
C757   O795    1.308   .     A
C758   C778    1.459   .     S
C758   O798    1.299   .     A
C758   O796    1.301   .     A
C759   H791    1.080   .     S
C759   C761    1.408   .     A
C759   C767    1.398   .     A
C760   H792    1.080   .     S
C760   C768    1.406   .     A
C760   C762    1.416   .     A
C761   N793    1.385   .     A
C761   N821    1.428   .     S
C762   N794    1.372   .     A
C762   N824    1.433   .     S
C763   C827    1.484   .     S
C763   N793    1.395   .     A
C763   C765    1.429   .     A
C764   N794    1.385   .     A
C764   C831    1.473   .     S
C764   C766    1.418   .     A
C765   N835    1.439   .     S
C765   C767    1.408   .     A
C766   N838    1.438   .     S
C766   C768    1.413   .     A
C768   C263    1.522   1_556 S
C769   C771    1.445   .     S
C769   O799    1.283   .     A
C769   O801    1.308   .     A
C770   O802    1.300   .     A
C770   C772    1.443   .     S
C770   O800    1.290   .     A
C771   C940    1.353   1_455 S
C771   N971    1.434   1_455 S
C772   C855    1.353   .     S
C772   N890    1.439   .     S
C773   C783    1.391   .     A
C773   H787    1.084   .     S
C773   C775    1.396   .     A
C774   C776    1.394   .     A
C774   C784    1.396   .     A
C774   H788    1.084   .     S
C775   C777    1.422   .     A
C775   N809    1.432   .     S
C776   N812    1.431   .     S
C776   C778    1.409   .     A
C777   C779    1.422   .     A
C778   C780    1.409   .     A
C779   N815    1.433   .     S
C779   C781    1.395   .     A
C780   N818    1.433   .     S
C780   C782    1.397   .     A
C781   C783    1.393   .     A
C781   H789    1.084   .     S
C782   H790    1.084   .     S
C782   C784    1.399   .     A
C784   C531    1.460   1_565 S
Cu785  O798    1.961   .     S
Cu785  Cu786   2.704   .     S
Cu785  N794    2.032   .     S
Cu785  O799    1.965   .     S
Cu785  O795    1.961   .     S
Cu785  O802    1.968   .     S
Cu786  O801    1.968   .     S
Cu786  O797    1.961   .     S
Cu786  O800    1.965   .     S
Cu786  N793    2.032   .     S
Cu786  O796    1.961   .     S
N803   H804    1.036   .     S
N803   C855    1.434   .     S
N803   H889    1.046   .     S
H805   N971    1.046   1_455 S
N806   H808    1.045   .     S
N806   C940    1.439   1_455 S
N806   H975    1.045   1_455 S
H807   N890    1.045   .     S
N809   H810    1.045   .     S
N809   H811    1.046   .     S
N812   H813    1.046   .     S
N812   H814    1.046   .     S
N815   H816    1.046   .     S
N815   H817    1.046   .     S
N818   H820    1.045   .     S
N818   H819    1.046   .     S
N821   H823    1.039   .     S
N821   H822    1.035   .     S
N824   H825    1.044   .     S
N824   H826    1.046   .     S
C827   O828    1.218   .     D
C827   O829    1.399   .     S
O829   H830    1.014   .     S
C831   O832    1.220   .     D
C831   O833    1.398   .     S
O833   H834    1.014   .     S
N835   H837    1.043   .     S
H836   N331    1.046   1_556 S
N838   H840    1.043   .     S
N838   H839    1.045   .     S
C841   C861    1.488   .     S
C841   O881    1.307   .     A
C841   O879    1.308   .     A
C842   C862    1.459   .     S
C842   O882    1.299   .     A
C842   O880    1.301   .     A
C843   H875    1.080   .     S
C843   C845    1.408   .     A
C843   C851    1.398   .     A
C844   H876    1.080   .     S
C844   C852    1.406   .     A
C844   C846    1.416   .     A
C845   N877    1.385   .     A
C845   N905    1.428   .     S
C846   N878    1.372   .     A
C846   N908    1.433   .     S
C847   C911    1.484   .     S
C847   N877    1.395   .     A
C847   C849    1.429   .     A
C848   N878    1.385   .     A
C848   C915    1.473   .     S
C848   C850    1.418   .     A
C849   N919    1.439   .     S
C849   C851    1.408   .     A
C850   N922    1.438   .     S
C850   C852    1.413   .     A
C852   C347    1.522   1_556 S
C853   C855    1.445   .     S
C853   O883    1.283   .     A
C853   O885    1.308   .     A
C854   O886    1.300   .     A
C854   C856    1.443   .     S
C854   O884    1.290   .     A
C856   C939    1.353   .     S
C856   N974    1.439   .     S
C857   C867    1.391   .     A
C857   H871    1.084   .     S
C857   C859    1.396   .     A
C858   C860    1.394   .     A
C858   C868    1.396   .     A
C858   H872    1.084   .     S
C859   C861    1.422   .     A
C859   N893    1.432   .     S
C860   N896    1.431   .     S
C860   C862    1.409   .     A
C861   C863    1.422   .     A
C862   C864    1.409   .     A
C863   N899    1.433   .     S
C863   C865    1.395   .     A
C864   N902    1.433   .     S
C864   C866    1.397   .     A
C865   C867    1.393   .     A
C865   H873    1.084   .     S
C866   H874    1.084   .     S
C866   C868    1.399   .     A
C868   C615    1.460   1_565 S
Cu869  O882    1.961   .     S
Cu869  Cu870   2.704   .     S
Cu869  N878    2.032   .     S
Cu869  O883    1.965   .     S
Cu869  O879    1.961   .     S
Cu869  O886    1.968   .     S
Cu870  O885    1.968   .     S
Cu870  O881    1.961   .     S
Cu870  O884    1.965   .     S
Cu870  N877    2.032   .     S
Cu870  O880    1.961   .     S
N887   H888    1.036   .     S
N887   C939    1.434   .     S
N887   H973    1.046   .     S
N890   H892    1.045   .     S
H891   N974    1.045   .     S
N893   H894    1.045   .     S
N893   H895    1.046   .     S
N896   H897    1.046   .     S
N896   H898    1.046   .     S
N899   H900    1.046   .     S
N899   H901    1.046   .     S
N902   H904    1.045   .     S
N902   H903    1.046   .     S
N905   H907    1.039   .     S
N905   H906    1.035   .     S
N908   H909    1.044   .     S
N908   H910    1.046   .     S
C911   O912    1.218   .     D
C911   O913    1.399   .     S
O913   H914    1.014   .     S
C915   O916    1.220   .     D
C915   O917    1.398   .     S
O917   H918    1.014   .     S
N919   H921    1.043   .     S
H920   N415    1.046   1_556 S
N922   H924    1.043   .     S
N922   H923    1.045   .     S
C925   C945    1.488   .     S
C925   O965    1.307   .     A
C925   O963    1.308   .     A
C926   C946    1.459   .     S
C926   O966    1.299   .     A
C926   O964    1.301   .     A
C927   H959    1.080   .     S
C927   C929    1.408   .     A
C927   C935    1.398   .     A
C928   H960    1.080   .     S
C928   C936    1.406   .     A
C928   C930    1.416   .     A
C929   N961    1.385   .     A
C929   N989    1.428   .     S
C930   N962    1.372   .     A
C930   N992    1.433   .     S
C931   C995    1.484   .     S
C931   N961    1.395   .     A
C931   C933    1.429   .     A
C932   N962    1.385   .     A
C932   C999    1.473   .     S
C932   C934    1.418   .     A
C933   N1003   1.439   .     S
C933   C935    1.408   .     A
C934   N1006   1.438   .     S
C934   C936    1.413   .     A
C936   C431    1.522   1_556 S
C937   C939    1.445   .     S
C937   O967    1.283   .     A
C937   O969    1.308   .     A
C938   O970    1.300   .     A
C938   C940    1.443   .     S
C938   O968    1.290   .     A
C940   C771    1.353   1_655 S
C940   N806    1.439   1_655 S
C941   C951    1.391   .     A
C941   H955    1.084   .     S
C941   C943    1.396   .     A
C942   C944    1.394   .     A
C942   C952    1.396   .     A
C942   H956    1.084   .     S
C943   C945    1.422   .     A
C943   N977    1.432   .     S
C944   N980    1.431   .     S
C944   C946    1.409   .     A
C945   C947    1.422   .     A
C946   C948    1.409   .     A
C947   N983    1.433   .     S
C947   C949    1.395   .     A
C948   N986    1.433   .     S
C948   C950    1.397   .     A
C949   C951    1.393   .     A
C949   H957    1.084   .     S
C950   H958    1.084   .     S
C950   C952    1.399   .     A
C952   C699    1.460   1_565 S
Cu953  O966    1.961   .     S
Cu953  Cu954   2.704   .     S
Cu953  N962    2.032   .     S
Cu953  O967    1.965   .     S
Cu953  O963    1.961   .     S
Cu953  O970    1.968   .     S
Cu954  O969    1.968   .     S
Cu954  O965    1.961   .     S
Cu954  O968    1.965   .     S
Cu954  N961    2.032   .     S
Cu954  O964    1.961   .     S
N971   H972    1.036   .     S
N971   C771    1.434   1_655 S
N971   H805    1.046   1_655 S
N974   H976    1.045   .     S
H975   N806    1.045   1_655 S
N977   H978    1.045   .     S
N977   H979    1.046   .     S
N980   H981    1.046   .     S
N980   H982    1.046   .     S
N983   H984    1.046   .     S
N983   H985    1.046   .     S
N986   H988    1.045   .     S
N986   H987    1.046   .     S
N989   H991    1.039   .     S
N989   H990    1.035   .     S
N992   H993    1.044   .     S
N992   H994    1.046   .     S
C995   O996    1.218   .     D
C995   O997    1.399   .     S
O997   H998    1.014   .     S
C999   O1000   1.220   .     D
C999   O1001   1.398   .     S
O1001  H1002   1.014   .     S
N1003  H1005   1.043   .     S
H1004  N499    1.046   1_556 S
N1006  H1008   1.043   .     S
N1006  H1007   1.045   .     S
