data_str_m1_o10_o16_pcu_sym.24
_audit_creation_date              2020-01-03
_audit_creation_method            'Materials Studio'
_symmetry_space_group_name_H-M    'P1'
_symmetry_Int_Tables_number       1
_symmetry_cell_setting            triclinic
loop_
_symmetry_equiv_pos_as_xyz
  x,y,z
_cell_length_a                    32.5772
_cell_length_b                    32.5343
_cell_length_c                    31.2022
_cell_angle_alpha                 96.1979
_cell_angle_beta                  74.2268
_cell_angle_gamma                 98.8277
loop_
_atom_site_label
_atom_site_type_symbol
_atom_site_fract_x
_atom_site_fract_y
_atom_site_fract_z
_atom_site_U_iso_or_equiv
_atom_site_adp_type
_atom_site_occupancy
C1     C     0.05272   0.15944   0.26035   0.00000  Uiso   1.00
C2     C     0.16532   0.15986   0.06171   0.00000  Uiso   1.00
C3     C     0.23169   0.13115   0.05578   0.00000  Uiso   1.00
C4     C     0.28100   0.17398   0.23972   0.00000  Uiso   1.00
C5     C     0.13643   0.18764   0.41979   0.00000  Uiso   1.00
C6     C     0.32743   0.17669   0.23471   0.00000  Uiso   1.00
C7     C     0.00755   0.15769   0.26351   0.00000  Uiso   1.00
C8     C     0.18179   0.32309   0.23622   0.00000  Uiso   1.00
C9     C     0.15219   0.01169   0.26323   0.00000  Uiso   1.00
C10    C     0.15572   0.05599   0.26055   0.00000  Uiso   1.00
C11    C     0.17698   0.27809   0.24010   0.00000  Uiso   1.00
C12    C     0.07645   0.18125   0.48543   0.00000  Uiso   1.00
C13    C     0.18566   0.14830   0.12945   0.00000  Uiso   1.00
C14    C     0.14889   0.18496   0.37070   0.00000  Uiso   1.00
C15    C     0.24471   0.13642   0.01045   0.00000  Uiso   1.00
C16    C     0.19293   0.14386   0.08138   0.00000  Uiso   1.00
C17    C     0.09317   0.19094   0.44136   0.00000  Uiso   1.00
C18    C     0.10280   0.16929   0.00890   0.00000  Uiso   1.00
C19    C     0.14766   0.17066   0.49026   0.00000  Uiso   1.00
C20    C     0.16443   0.17924   0.44455   0.00000  Uiso   1.00
C21    C     0.17591   0.16060   0.01434   0.00000  Uiso   1.00
C22    C     0.21797   0.15234   0.48988   0.00000  Uiso   1.00
C23    C     0.23403   0.16212   0.44559   0.00000  Uiso   1.00
C24    C     0.20849   0.17790   0.42419   0.00000  Uiso   1.00
H25    H     0.25333   0.12005   0.07155   0.00000  Uiso   1.00
H26    H     0.12454   0.33039   0.28730   0.00000  Uiso   1.00
H27    H     0.27630   0.12915   0.49165   0.00000  Uiso   1.00
H28    H     0.10482   0.16313   0.10266   0.00000  Uiso   1.00
H29    H     0.12833   0.20848   0.07602   0.00000  Uiso   1.00
H30    H     0.00928   0.21545   0.18309   0.00000  Uiso   1.00
H31    H     0.04035   0.17749   0.17641   0.00000  Uiso   1.00
H32    H     0.31850   0.14088   0.29043   0.00000  Uiso   1.00
H33    H     0.26705   0.15876   0.42775   0.00000  Uiso   1.00
H34    H     0.07127   0.19736   0.42302   0.00000  Uiso   1.00
H35    H     0.08690   0.15725   0.04079   0.00000  Uiso   1.00
H36    H     0.04231   0.18079   0.00076   0.00000  Uiso   1.00
H37    H     0.22363   0.18800   0.39104   0.00000  Uiso   1.00
H38    H     0.24057   0.32349   0.18993   0.00000  Uiso   1.00
H39    H     0.20613   0.01808   0.17843   0.00000  Uiso   1.00
N40    N     0.21772   0.01034   0.20425   0.00000  Uiso   1.00
N41    N     0.13319   0.18305   0.09099   0.00000  Uiso   1.00
N42    N     0.02483   0.19934   0.19987   0.00000  Uiso   1.00
O43    O     0.16667   0.16667   0.25000   0.00000  Uiso   1.00
O44    O     0.15451   0.12637   0.15458   0.00000  Uiso   1.00
O45    O     0.12940   0.20391   0.34968   0.00000  Uiso   1.00
O46    O     0.20824   0.17759   0.14606   0.00000  Uiso   1.00
O47    O     0.17451   0.15880   0.34968   0.00000  Uiso   1.00
O48    O     0.17930   0.08019   0.28213   0.00000  Uiso   1.00
O49    O     0.14632   0.26085   0.27013   0.00000  Uiso   1.00
O50    O     0.07412   0.13291   0.23413   0.00000  Uiso   1.00
O51    O     0.26693   0.19272   0.21360   0.00000  Uiso   1.00
O52    O     0.07071   0.18878   0.28213   0.00000  Uiso   1.00
O53    O     0.25491   0.15226   0.27013   0.00000  Uiso   1.00
O54    O     0.13760   0.06944   0.23413   0.00000  Uiso   1.00
O55    O     0.20345   0.25620   0.21360   0.00000  Uiso   1.00
Zn56   Zn    0.19338   0.13994   0.28734   0.00000  Uiso   1.00
Zn57   Zn    0.13379   0.12458   0.21875   0.00000  Uiso   1.00
Zn58   Zn    0.21056   0.19775   0.20657   0.00000  Uiso   1.00
Zn59   Zn    0.12893   0.20439   0.28733   0.00000  Uiso   1.00
C60    C     0.38605   0.15944   0.26035   0.00000  Uiso   1.00
C61    C     0.49866   0.15986   0.06171   0.00000  Uiso   1.00
C62    C     0.56502   0.13115   0.05578   0.00000  Uiso   1.00
C63    C     0.61433   0.17398   0.23972   0.00000  Uiso   1.00
C64    C     0.46976   0.18764   0.41979   0.00000  Uiso   1.00
C65    C     0.66077   0.17669   0.23471   0.00000  Uiso   1.00
C66    C     0.34088   0.15769   0.26351   0.00000  Uiso   1.00
C67    C     0.51512   0.32309   0.23622   0.00000  Uiso   1.00
C68    C     0.48552   0.01169   0.26323   0.00000  Uiso   1.00
C69    C     0.48905   0.05599   0.26055   0.00000  Uiso   1.00
C70    C     0.51031   0.27809   0.24010   0.00000  Uiso   1.00
C71    C     0.40978   0.18125   0.48543   0.00000  Uiso   1.00
C72    C     0.51900   0.14830   0.12945   0.00000  Uiso   1.00
C73    C     0.48223   0.18496   0.37070   0.00000  Uiso   1.00
C74    C     0.57805   0.13642   0.01045   0.00000  Uiso   1.00
C75    C     0.52626   0.14386   0.08138   0.00000  Uiso   1.00
C76    C     0.42651   0.19094   0.44136   0.00000  Uiso   1.00
C77    C     0.43613   0.16929   0.00890   0.00000  Uiso   1.00
C78    C     0.48099   0.17066   0.49026   0.00000  Uiso   1.00
C79    C     0.49776   0.17924   0.44455   0.00000  Uiso   1.00
C80    C     0.50924   0.16060   0.01434   0.00000  Uiso   1.00
C81    C     0.55130   0.15234   0.48988   0.00000  Uiso   1.00
C82    C     0.56737   0.16212   0.44559   0.00000  Uiso   1.00
C83    C     0.54182   0.17790   0.42419   0.00000  Uiso   1.00
H84    H     0.58666   0.12005   0.07155   0.00000  Uiso   1.00
H85    H     0.45787   0.33039   0.28730   0.00000  Uiso   1.00
H86    H     0.60964   0.12915   0.49165   0.00000  Uiso   1.00
H87    H     0.43815   0.16313   0.10266   0.00000  Uiso   1.00
H88    H     0.46166   0.20848   0.07602   0.00000  Uiso   1.00
H89    H     0.34261   0.21545   0.18309   0.00000  Uiso   1.00
H90    H     0.37368   0.17749   0.17641   0.00000  Uiso   1.00
H91    H     0.65184   0.14088   0.29043   0.00000  Uiso   1.00
H92    H     0.60038   0.15876   0.42775   0.00000  Uiso   1.00
H93    H     0.40460   0.19736   0.42302   0.00000  Uiso   1.00
H94    H     0.42023   0.15725   0.04079   0.00000  Uiso   1.00
H95    H     0.37565   0.18079   0.00076   0.00000  Uiso   1.00
H96    H     0.55696   0.18800   0.39104   0.00000  Uiso   1.00
H97    H     0.57390   0.32349   0.18993   0.00000  Uiso   1.00
H98    H     0.53946   0.01808   0.17843   0.00000  Uiso   1.00
N99    N     0.55105   0.01034   0.20425   0.00000  Uiso   1.00
N100   N     0.46652   0.18305   0.09099   0.00000  Uiso   1.00
N101   N     0.35816   0.19934   0.19987   0.00000  Uiso   1.00
O102   O     0.50000   0.16667   0.25000   0.00000  Uiso   1.00
O103   O     0.48784   0.12637   0.15458   0.00000  Uiso   1.00
O104   O     0.46274   0.20391   0.34968   0.00000  Uiso   1.00
O105   O     0.54157   0.17759   0.14606   0.00000  Uiso   1.00
O106   O     0.50785   0.15880   0.34968   0.00000  Uiso   1.00
O107   O     0.51264   0.08019   0.28213   0.00000  Uiso   1.00
O108   O     0.47965   0.26085   0.27013   0.00000  Uiso   1.00
O109   O     0.40745   0.13291   0.23413   0.00000  Uiso   1.00
O110   O     0.60026   0.19272   0.21360   0.00000  Uiso   1.00
O111   O     0.40405   0.18878   0.28213   0.00000  Uiso   1.00
O112   O     0.58824   0.15226   0.27013   0.00000  Uiso   1.00
O113   O     0.47093   0.06944   0.23413   0.00000  Uiso   1.00
O114   O     0.53678   0.25620   0.21360   0.00000  Uiso   1.00
Zn115  Zn    0.52672   0.13994   0.28734   0.00000  Uiso   1.00
Zn116  Zn    0.46713   0.12458   0.21875   0.00000  Uiso   1.00
Zn117  Zn    0.54389   0.19775   0.20657   0.00000  Uiso   1.00
Zn118  Zn    0.46226   0.20439   0.28733   0.00000  Uiso   1.00
C119   C     0.71939   0.15944   0.26035   0.00000  Uiso   1.00
C120   C     0.83199   0.15986   0.06171   0.00000  Uiso   1.00
C121   C     0.89835   0.13115   0.05578   0.00000  Uiso   1.00
C122   C     0.94767   0.17398   0.23972   0.00000  Uiso   1.00
C123   C     0.80310   0.18764   0.41979   0.00000  Uiso   1.00
C124   C     0.99410   0.17669   0.23471   0.00000  Uiso   1.00
C125   C     0.67421   0.15769   0.26351   0.00000  Uiso   1.00
C126   C     0.84845   0.32309   0.23622   0.00000  Uiso   1.00
C127   C     0.81885   0.01169   0.26323   0.00000  Uiso   1.00
C128   C     0.82239   0.05599   0.26055   0.00000  Uiso   1.00
C129   C     0.84365   0.27809   0.24010   0.00000  Uiso   1.00
C130   C     0.74311   0.18125   0.48543   0.00000  Uiso   1.00
C131   C     0.85233   0.14830   0.12945   0.00000  Uiso   1.00
C132   C     0.81556   0.18496   0.37070   0.00000  Uiso   1.00
C133   C     0.91138   0.13642   0.01045   0.00000  Uiso   1.00
C134   C     0.85960   0.14386   0.08138   0.00000  Uiso   1.00
C135   C     0.75984   0.19094   0.44136   0.00000  Uiso   1.00
C136   C     0.76947   0.16929   0.00890   0.00000  Uiso   1.00
C137   C     0.81433   0.17066   0.49026   0.00000  Uiso   1.00
C138   C     0.83110   0.17924   0.44455   0.00000  Uiso   1.00
C139   C     0.84258   0.16060   0.01434   0.00000  Uiso   1.00
C140   C     0.88464   0.15234   0.48988   0.00000  Uiso   1.00
C141   C     0.90070   0.16212   0.44559   0.00000  Uiso   1.00
C142   C     0.87516   0.17790   0.42419   0.00000  Uiso   1.00
H143   H     0.92000   0.12005   0.07155   0.00000  Uiso   1.00
H144   H     0.79121   0.33039   0.28730   0.00000  Uiso   1.00
H145   H     0.94297   0.12915   0.49165   0.00000  Uiso   1.00
H146   H     0.77148   0.16313   0.10266   0.00000  Uiso   1.00
H147   H     0.79500   0.20848   0.07602   0.00000  Uiso   1.00
H148   H     0.67594   0.21545   0.18309   0.00000  Uiso   1.00
H149   H     0.70701   0.17749   0.17641   0.00000  Uiso   1.00
H150   H     0.98517   0.14088   0.29043   0.00000  Uiso   1.00
H151   H     0.93371   0.15876   0.42775   0.00000  Uiso   1.00
H152   H     0.73793   0.19736   0.42302   0.00000  Uiso   1.00
H153   H     0.75356   0.15725   0.04079   0.00000  Uiso   1.00
H154   H     0.70898   0.18079   0.00076   0.00000  Uiso   1.00
H155   H     0.89030   0.18800   0.39104   0.00000  Uiso   1.00
H156   H     0.90724   0.32349   0.18993   0.00000  Uiso   1.00
H157   H     0.87279   0.01808   0.17843   0.00000  Uiso   1.00
N158   N     0.88438   0.01034   0.20425   0.00000  Uiso   1.00
N159   N     0.79986   0.18305   0.09099   0.00000  Uiso   1.00
N160   N     0.69150   0.19934   0.19987   0.00000  Uiso   1.00
O161   O     0.83333   0.16667   0.25000   0.00000  Uiso   1.00
O162   O     0.82118   0.12637   0.15458   0.00000  Uiso   1.00
O163   O     0.79607   0.20391   0.34968   0.00000  Uiso   1.00
O164   O     0.87491   0.17759   0.14606   0.00000  Uiso   1.00
O165   O     0.84118   0.15880   0.34968   0.00000  Uiso   1.00
O166   O     0.84597   0.08019   0.28213   0.00000  Uiso   1.00
O167   O     0.81298   0.26085   0.27013   0.00000  Uiso   1.00
O168   O     0.74078   0.13291   0.23413   0.00000  Uiso   1.00
O169   O     0.93360   0.19272   0.21360   0.00000  Uiso   1.00
O170   O     0.73738   0.18878   0.28213   0.00000  Uiso   1.00
O171   O     0.92158   0.15226   0.27013   0.00000  Uiso   1.00
O172   O     0.80426   0.06944   0.23413   0.00000  Uiso   1.00
O173   O     0.87012   0.25620   0.21360   0.00000  Uiso   1.00
Zn174  Zn    0.86005   0.13994   0.28734   0.00000  Uiso   1.00
Zn175  Zn    0.80046   0.12458   0.21875   0.00000  Uiso   1.00
Zn176  Zn    0.87723   0.19775   0.20657   0.00000  Uiso   1.00
Zn177  Zn    0.79560   0.20439   0.28733   0.00000  Uiso   1.00
C178   C     0.05272   0.49278   0.26035   0.00000  Uiso   1.00
C179   C     0.16532   0.49320   0.06171   0.00000  Uiso   1.00
C180   C     0.23169   0.46448   0.05578   0.00000  Uiso   1.00
C181   C     0.28100   0.50731   0.23972   0.00000  Uiso   1.00
C182   C     0.13643   0.52097   0.41979   0.00000  Uiso   1.00
C183   C     0.32743   0.51002   0.23471   0.00000  Uiso   1.00
C184   C     0.00755   0.49102   0.26351   0.00000  Uiso   1.00
C185   C     0.18179   0.65642   0.23622   0.00000  Uiso   1.00
C186   C     0.15219   0.34503   0.26323   0.00000  Uiso   1.00
C187   C     0.15572   0.38932   0.26055   0.00000  Uiso   1.00
C188   C     0.17698   0.61143   0.24010   0.00000  Uiso   1.00
C189   C     0.07645   0.51459   0.48543   0.00000  Uiso   1.00
C190   C     0.18566   0.48163   0.12945   0.00000  Uiso   1.00
C191   C     0.14889   0.51830   0.37070   0.00000  Uiso   1.00
C192   C     0.24471   0.46975   0.01045   0.00000  Uiso   1.00
C193   C     0.19293   0.47719   0.08138   0.00000  Uiso   1.00
C194   C     0.09317   0.52427   0.44136   0.00000  Uiso   1.00
C195   C     0.10280   0.50262   0.00890   0.00000  Uiso   1.00
C196   C     0.14766   0.50400   0.49026   0.00000  Uiso   1.00
C197   C     0.16443   0.51257   0.44455   0.00000  Uiso   1.00
C198   C     0.17591   0.49393   0.01434   0.00000  Uiso   1.00
C199   C     0.21797   0.48567   0.48988   0.00000  Uiso   1.00
C200   C     0.23403   0.49545   0.44559   0.00000  Uiso   1.00
C201   C     0.20849   0.51123   0.42419   0.00000  Uiso   1.00
H202   H     0.25333   0.45338   0.07155   0.00000  Uiso   1.00
H203   H     0.12454   0.66372   0.28730   0.00000  Uiso   1.00
H204   H     0.27630   0.46249   0.49165   0.00000  Uiso   1.00
H205   H     0.10482   0.49646   0.10266   0.00000  Uiso   1.00
H206   H     0.12833   0.54182   0.07602   0.00000  Uiso   1.00
H207   H     0.00928   0.54878   0.18309   0.00000  Uiso   1.00
H208   H     0.04035   0.51083   0.17641   0.00000  Uiso   1.00
H209   H     0.31850   0.47421   0.29043   0.00000  Uiso   1.00
H210   H     0.26705   0.49209   0.42775   0.00000  Uiso   1.00
H211   H     0.07127   0.53069   0.42302   0.00000  Uiso   1.00
H212   H     0.08690   0.49059   0.04079   0.00000  Uiso   1.00
H213   H     0.04231   0.51412   0.00076   0.00000  Uiso   1.00
H214   H     0.22363   0.52133   0.39104   0.00000  Uiso   1.00
H215   H     0.24057   0.65682   0.18993   0.00000  Uiso   1.00
H216   H     0.20613   0.35141   0.17843   0.00000  Uiso   1.00
N217   N     0.21772   0.34367   0.20425   0.00000  Uiso   1.00
N218   N     0.13319   0.51638   0.09099   0.00000  Uiso   1.00
N219   N     0.02483   0.53268   0.19987   0.00000  Uiso   1.00
O220   O     0.16667   0.50000   0.25000   0.00000  Uiso   1.00
O221   O     0.15451   0.45970   0.15458   0.00000  Uiso   1.00
O222   O     0.12940   0.53724   0.34968   0.00000  Uiso   1.00
O223   O     0.20824   0.51092   0.14606   0.00000  Uiso   1.00
O224   O     0.17451   0.49213   0.34968   0.00000  Uiso   1.00
O225   O     0.17930   0.41352   0.28213   0.00000  Uiso   1.00
O226   O     0.14632   0.59418   0.27013   0.00000  Uiso   1.00
O227   O     0.07412   0.46625   0.23413   0.00000  Uiso   1.00
O228   O     0.26693   0.52605   0.21360   0.00000  Uiso   1.00
O229   O     0.07071   0.52211   0.28213   0.00000  Uiso   1.00
O230   O     0.25491   0.48559   0.27013   0.00000  Uiso   1.00
O231   O     0.13760   0.40277   0.23413   0.00000  Uiso   1.00
O232   O     0.20345   0.58953   0.21360   0.00000  Uiso   1.00
Zn233  Zn    0.19338   0.47327   0.28734   0.00000  Uiso   1.00
Zn234  Zn    0.13379   0.45791   0.21875   0.00000  Uiso   1.00
Zn235  Zn    0.21056   0.53109   0.20657   0.00000  Uiso   1.00
Zn236  Zn    0.12893   0.53773   0.28733   0.00000  Uiso   1.00
C237   C     0.38605   0.49278   0.26035   0.00000  Uiso   1.00
C238   C     0.49866   0.49320   0.06171   0.00000  Uiso   1.00
C239   C     0.56502   0.46448   0.05578   0.00000  Uiso   1.00
C240   C     0.61433   0.50731   0.23972   0.00000  Uiso   1.00
C241   C     0.46976   0.52097   0.41979   0.00000  Uiso   1.00
C242   C     0.66077   0.51002   0.23471   0.00000  Uiso   1.00
C243   C     0.34088   0.49102   0.26351   0.00000  Uiso   1.00
C244   C     0.51512   0.65642   0.23622   0.00000  Uiso   1.00
C245   C     0.48552   0.34503   0.26323   0.00000  Uiso   1.00
C246   C     0.48905   0.38932   0.26055   0.00000  Uiso   1.00
C247   C     0.51031   0.61143   0.24010   0.00000  Uiso   1.00
C248   C     0.40978   0.51459   0.48543   0.00000  Uiso   1.00
C249   C     0.51900   0.48163   0.12945   0.00000  Uiso   1.00
C250   C     0.48223   0.51830   0.37070   0.00000  Uiso   1.00
C251   C     0.57805   0.46975   0.01045   0.00000  Uiso   1.00
C252   C     0.52626   0.47719   0.08138   0.00000  Uiso   1.00
C253   C     0.42651   0.52427   0.44136   0.00000  Uiso   1.00
C254   C     0.43613   0.50262   0.00890   0.00000  Uiso   1.00
C255   C     0.48099   0.50400   0.49026   0.00000  Uiso   1.00
C256   C     0.49776   0.51257   0.44455   0.00000  Uiso   1.00
C257   C     0.50924   0.49393   0.01434   0.00000  Uiso   1.00
C258   C     0.55130   0.48567   0.48988   0.00000  Uiso   1.00
C259   C     0.56737   0.49545   0.44559   0.00000  Uiso   1.00
C260   C     0.54182   0.51123   0.42419   0.00000  Uiso   1.00
H261   H     0.58666   0.45338   0.07155   0.00000  Uiso   1.00
H262   H     0.45787   0.66372   0.28730   0.00000  Uiso   1.00
H263   H     0.60964   0.46249   0.49165   0.00000  Uiso   1.00
H264   H     0.43815   0.49646   0.10266   0.00000  Uiso   1.00
H265   H     0.46166   0.54182   0.07602   0.00000  Uiso   1.00
H266   H     0.34261   0.54878   0.18309   0.00000  Uiso   1.00
H267   H     0.37368   0.51083   0.17641   0.00000  Uiso   1.00
H268   H     0.65184   0.47421   0.29043   0.00000  Uiso   1.00
H269   H     0.60038   0.49209   0.42775   0.00000  Uiso   1.00
H270   H     0.40460   0.53069   0.42302   0.00000  Uiso   1.00
H271   H     0.42023   0.49059   0.04079   0.00000  Uiso   1.00
H272   H     0.37565   0.51412   0.00076   0.00000  Uiso   1.00
H273   H     0.55696   0.52133   0.39104   0.00000  Uiso   1.00
H274   H     0.57390   0.65682   0.18993   0.00000  Uiso   1.00
H275   H     0.53946   0.35141   0.17843   0.00000  Uiso   1.00
N276   N     0.55105   0.34367   0.20425   0.00000  Uiso   1.00
N277   N     0.46652   0.51638   0.09099   0.00000  Uiso   1.00
N278   N     0.35816   0.53268   0.19987   0.00000  Uiso   1.00
O279   O     0.50000   0.50000   0.25000   0.00000  Uiso   1.00
O280   O     0.48784   0.45970   0.15458   0.00000  Uiso   1.00
O281   O     0.46274   0.53724   0.34968   0.00000  Uiso   1.00
O282   O     0.54157   0.51092   0.14606   0.00000  Uiso   1.00
O283   O     0.50785   0.49213   0.34968   0.00000  Uiso   1.00
O284   O     0.51264   0.41352   0.28213   0.00000  Uiso   1.00
O285   O     0.47965   0.59418   0.27013   0.00000  Uiso   1.00
O286   O     0.40745   0.46625   0.23413   0.00000  Uiso   1.00
O287   O     0.60026   0.52605   0.21360   0.00000  Uiso   1.00
O288   O     0.40405   0.52211   0.28213   0.00000  Uiso   1.00
O289   O     0.58824   0.48559   0.27013   0.00000  Uiso   1.00
O290   O     0.47093   0.40277   0.23413   0.00000  Uiso   1.00
O291   O     0.53678   0.58953   0.21360   0.00000  Uiso   1.00
Zn292  Zn    0.52672   0.47327   0.28734   0.00000  Uiso   1.00
Zn293  Zn    0.46713   0.45791   0.21875   0.00000  Uiso   1.00
Zn294  Zn    0.54389   0.53109   0.20657   0.00000  Uiso   1.00
Zn295  Zn    0.46226   0.53773   0.28733   0.00000  Uiso   1.00
C296   C     0.71939   0.49278   0.26035   0.00000  Uiso   1.00
C297   C     0.83199   0.49320   0.06171   0.00000  Uiso   1.00
C298   C     0.89835   0.46448   0.05578   0.00000  Uiso   1.00
C299   C     0.94767   0.50731   0.23972   0.00000  Uiso   1.00
C300   C     0.80310   0.52097   0.41979   0.00000  Uiso   1.00
C301   C     0.99410   0.51002   0.23471   0.00000  Uiso   1.00
C302   C     0.67421   0.49102   0.26351   0.00000  Uiso   1.00
C303   C     0.84845   0.65642   0.23622   0.00000  Uiso   1.00
C304   C     0.81885   0.34503   0.26323   0.00000  Uiso   1.00
C305   C     0.82239   0.38932   0.26055   0.00000  Uiso   1.00
C306   C     0.84365   0.61143   0.24010   0.00000  Uiso   1.00
C307   C     0.74311   0.51459   0.48543   0.00000  Uiso   1.00
C308   C     0.85233   0.48163   0.12945   0.00000  Uiso   1.00
C309   C     0.81556   0.51830   0.37070   0.00000  Uiso   1.00
C310   C     0.91138   0.46975   0.01045   0.00000  Uiso   1.00
C311   C     0.85960   0.47719   0.08138   0.00000  Uiso   1.00
C312   C     0.75984   0.52427   0.44136   0.00000  Uiso   1.00
C313   C     0.76947   0.50262   0.00890   0.00000  Uiso   1.00
C314   C     0.81433   0.50400   0.49026   0.00000  Uiso   1.00
C315   C     0.83110   0.51257   0.44455   0.00000  Uiso   1.00
C316   C     0.84258   0.49393   0.01434   0.00000  Uiso   1.00
C317   C     0.88464   0.48567   0.48988   0.00000  Uiso   1.00
C318   C     0.90070   0.49545   0.44559   0.00000  Uiso   1.00
C319   C     0.87516   0.51123   0.42419   0.00000  Uiso   1.00
H320   H     0.92000   0.45338   0.07155   0.00000  Uiso   1.00
H321   H     0.79121   0.66372   0.28730   0.00000  Uiso   1.00
H322   H     0.94297   0.46249   0.49165   0.00000  Uiso   1.00
H323   H     0.77148   0.49646   0.10266   0.00000  Uiso   1.00
H324   H     0.79500   0.54182   0.07602   0.00000  Uiso   1.00
H325   H     0.67594   0.54878   0.18309   0.00000  Uiso   1.00
H326   H     0.70701   0.51083   0.17641   0.00000  Uiso   1.00
H327   H     0.98517   0.47421   0.29043   0.00000  Uiso   1.00
H328   H     0.93371   0.49209   0.42775   0.00000  Uiso   1.00
H329   H     0.73793   0.53069   0.42302   0.00000  Uiso   1.00
H330   H     0.75356   0.49059   0.04079   0.00000  Uiso   1.00
H331   H     0.70898   0.51412   0.00076   0.00000  Uiso   1.00
H332   H     0.89030   0.52133   0.39104   0.00000  Uiso   1.00
H333   H     0.90724   0.65682   0.18993   0.00000  Uiso   1.00
H334   H     0.87279   0.35141   0.17843   0.00000  Uiso   1.00
N335   N     0.88438   0.34367   0.20425   0.00000  Uiso   1.00
N336   N     0.79986   0.51638   0.09099   0.00000  Uiso   1.00
N337   N     0.69150   0.53268   0.19987   0.00000  Uiso   1.00
O338   O     0.83333   0.50000   0.25000   0.00000  Uiso   1.00
O339   O     0.82118   0.45970   0.15458   0.00000  Uiso   1.00
O340   O     0.79607   0.53724   0.34968   0.00000  Uiso   1.00
O341   O     0.87491   0.51092   0.14606   0.00000  Uiso   1.00
O342   O     0.84118   0.49213   0.34968   0.00000  Uiso   1.00
O343   O     0.84597   0.41352   0.28213   0.00000  Uiso   1.00
O344   O     0.81298   0.59418   0.27013   0.00000  Uiso   1.00
O345   O     0.74078   0.46625   0.23413   0.00000  Uiso   1.00
O346   O     0.93360   0.52605   0.21360   0.00000  Uiso   1.00
O347   O     0.73738   0.52211   0.28213   0.00000  Uiso   1.00
O348   O     0.92158   0.48559   0.27013   0.00000  Uiso   1.00
O349   O     0.80426   0.40277   0.23413   0.00000  Uiso   1.00
O350   O     0.87012   0.58953   0.21360   0.00000  Uiso   1.00
Zn351  Zn    0.86005   0.47327   0.28734   0.00000  Uiso   1.00
Zn352  Zn    0.80046   0.45791   0.21875   0.00000  Uiso   1.00
Zn353  Zn    0.87723   0.53109   0.20657   0.00000  Uiso   1.00
Zn354  Zn    0.79560   0.53773   0.28733   0.00000  Uiso   1.00
C355   C     0.05272   0.82611   0.26035   0.00000  Uiso   1.00
C356   C     0.16532   0.82653   0.06171   0.00000  Uiso   1.00
C357   C     0.23169   0.79782   0.05578   0.00000  Uiso   1.00
C358   C     0.28100   0.84064   0.23972   0.00000  Uiso   1.00
C359   C     0.13643   0.85430   0.41979   0.00000  Uiso   1.00
C360   C     0.32743   0.84335   0.23471   0.00000  Uiso   1.00
C361   C     0.00755   0.82435   0.26351   0.00000  Uiso   1.00
C362   C     0.18179   0.98976   0.23622   0.00000  Uiso   1.00
C363   C     0.15219   0.67836   0.26323   0.00000  Uiso   1.00
C364   C     0.15572   0.72266   0.26055   0.00000  Uiso   1.00
C365   C     0.17698   0.94476   0.24010   0.00000  Uiso   1.00
C366   C     0.07645   0.84792   0.48543   0.00000  Uiso   1.00
C367   C     0.18566   0.81496   0.12945   0.00000  Uiso   1.00
C368   C     0.14889   0.85163   0.37070   0.00000  Uiso   1.00
C369   C     0.24471   0.80309   0.01045   0.00000  Uiso   1.00
C370   C     0.19293   0.81052   0.08138   0.00000  Uiso   1.00
C371   C     0.09317   0.85761   0.44136   0.00000  Uiso   1.00
C372   C     0.10280   0.83595   0.00890   0.00000  Uiso   1.00
C373   C     0.14766   0.83733   0.49026   0.00000  Uiso   1.00
C374   C     0.16443   0.84590   0.44455   0.00000  Uiso   1.00
C375   C     0.17591   0.82726   0.01434   0.00000  Uiso   1.00
C376   C     0.21797   0.81901   0.48988   0.00000  Uiso   1.00
C377   C     0.23403   0.82879   0.44559   0.00000  Uiso   1.00
C378   C     0.20849   0.84456   0.42419   0.00000  Uiso   1.00
H379   H     0.25333   0.78672   0.07155   0.00000  Uiso   1.00
H380   H     0.12454   0.99705   0.28730   0.00000  Uiso   1.00
H381   H     0.27630   0.79582   0.49165   0.00000  Uiso   1.00
H382   H     0.10482   0.82980   0.10266   0.00000  Uiso   1.00
H383   H     0.12833   0.87515   0.07602   0.00000  Uiso   1.00
H384   H     0.00928   0.88212   0.18309   0.00000  Uiso   1.00
H385   H     0.04035   0.84416   0.17641   0.00000  Uiso   1.00
H386   H     0.31850   0.80754   0.29043   0.00000  Uiso   1.00
H387   H     0.26705   0.82542   0.42775   0.00000  Uiso   1.00
H388   H     0.07127   0.86402   0.42302   0.00000  Uiso   1.00
H389   H     0.08690   0.82392   0.04079   0.00000  Uiso   1.00
H390   H     0.04231   0.84745   0.00076   0.00000  Uiso   1.00
H391   H     0.22363   0.85467   0.39104   0.00000  Uiso   1.00
H392   H     0.24057   0.99016   0.18993   0.00000  Uiso   1.00
H393   H     0.20613   0.68474   0.17843   0.00000  Uiso   1.00
N394   N     0.21772   0.67701   0.20425   0.00000  Uiso   1.00
N395   N     0.13319   0.84972   0.09099   0.00000  Uiso   1.00
N396   N     0.02483   0.86601   0.19987   0.00000  Uiso   1.00
O397   O     0.16667   0.83333   0.25000   0.00000  Uiso   1.00
O398   O     0.15451   0.79304   0.15458   0.00000  Uiso   1.00
O399   O     0.12940   0.87058   0.34968   0.00000  Uiso   1.00
O400   O     0.20824   0.84425   0.14606   0.00000  Uiso   1.00
O401   O     0.17451   0.82546   0.34968   0.00000  Uiso   1.00
O402   O     0.17930   0.74686   0.28213   0.00000  Uiso   1.00
O403   O     0.14632   0.92751   0.27013   0.00000  Uiso   1.00
O404   O     0.07412   0.79958   0.23413   0.00000  Uiso   1.00
O405   O     0.26693   0.85939   0.21360   0.00000  Uiso   1.00
O406   O     0.07071   0.85544   0.28213   0.00000  Uiso   1.00
O407   O     0.25491   0.81892   0.27013   0.00000  Uiso   1.00
O408   O     0.13760   0.73610   0.23413   0.00000  Uiso   1.00
O409   O     0.20345   0.92286   0.21360   0.00000  Uiso   1.00
Zn410  Zn    0.19338   0.80661   0.28734   0.00000  Uiso   1.00
Zn411  Zn    0.13379   0.79124   0.21875   0.00000  Uiso   1.00
Zn412  Zn    0.21056   0.86442   0.20657   0.00000  Uiso   1.00
Zn413  Zn    0.12893   0.87106   0.28733   0.00000  Uiso   1.00
C414   C     0.38605   0.82611   0.26035   0.00000  Uiso   1.00
C415   C     0.49866   0.82653   0.06171   0.00000  Uiso   1.00
C416   C     0.56502   0.79782   0.05578   0.00000  Uiso   1.00
C417   C     0.61433   0.84064   0.23972   0.00000  Uiso   1.00
C418   C     0.46976   0.85430   0.41979   0.00000  Uiso   1.00
C419   C     0.66077   0.84335   0.23471   0.00000  Uiso   1.00
C420   C     0.34088   0.82435   0.26351   0.00000  Uiso   1.00
C421   C     0.51512   0.98976   0.23622   0.00000  Uiso   1.00
C422   C     0.48552   0.67836   0.26323   0.00000  Uiso   1.00
C423   C     0.48905   0.72266   0.26055   0.00000  Uiso   1.00
C424   C     0.51031   0.94476   0.24010   0.00000  Uiso   1.00
C425   C     0.40978   0.84792   0.48543   0.00000  Uiso   1.00
C426   C     0.51900   0.81496   0.12945   0.00000  Uiso   1.00
C427   C     0.48223   0.85163   0.37070   0.00000  Uiso   1.00
C428   C     0.57805   0.80309   0.01045   0.00000  Uiso   1.00
C429   C     0.52626   0.81052   0.08138   0.00000  Uiso   1.00
C430   C     0.42651   0.85761   0.44136   0.00000  Uiso   1.00
C431   C     0.43613   0.83595   0.00890   0.00000  Uiso   1.00
C432   C     0.48099   0.83733   0.49026   0.00000  Uiso   1.00
C433   C     0.49776   0.84590   0.44455   0.00000  Uiso   1.00
C434   C     0.50924   0.82726   0.01434   0.00000  Uiso   1.00
C435   C     0.55130   0.81901   0.48988   0.00000  Uiso   1.00
C436   C     0.56737   0.82879   0.44559   0.00000  Uiso   1.00
C437   C     0.54182   0.84456   0.42419   0.00000  Uiso   1.00
H438   H     0.58666   0.78672   0.07155   0.00000  Uiso   1.00
H439   H     0.45787   0.99705   0.28730   0.00000  Uiso   1.00
H440   H     0.60964   0.79582   0.49165   0.00000  Uiso   1.00
H441   H     0.43815   0.82980   0.10266   0.00000  Uiso   1.00
H442   H     0.46166   0.87515   0.07602   0.00000  Uiso   1.00
H443   H     0.34261   0.88212   0.18309   0.00000  Uiso   1.00
H444   H     0.37368   0.84416   0.17641   0.00000  Uiso   1.00
H445   H     0.65184   0.80754   0.29043   0.00000  Uiso   1.00
H446   H     0.60038   0.82542   0.42775   0.00000  Uiso   1.00
H447   H     0.40460   0.86402   0.42302   0.00000  Uiso   1.00
H448   H     0.42023   0.82392   0.04079   0.00000  Uiso   1.00
H449   H     0.37565   0.84745   0.00076   0.00000  Uiso   1.00
H450   H     0.55696   0.85467   0.39104   0.00000  Uiso   1.00
H451   H     0.57390   0.99016   0.18993   0.00000  Uiso   1.00
H452   H     0.53946   0.68474   0.17843   0.00000  Uiso   1.00
N453   N     0.55105   0.67701   0.20425   0.00000  Uiso   1.00
N454   N     0.46652   0.84972   0.09099   0.00000  Uiso   1.00
N455   N     0.35816   0.86601   0.19987   0.00000  Uiso   1.00
O456   O     0.50000   0.83333   0.25000   0.00000  Uiso   1.00
O457   O     0.48784   0.79304   0.15458   0.00000  Uiso   1.00
O458   O     0.46274   0.87058   0.34968   0.00000  Uiso   1.00
O459   O     0.54157   0.84425   0.14606   0.00000  Uiso   1.00
O460   O     0.50785   0.82546   0.34968   0.00000  Uiso   1.00
O461   O     0.51264   0.74686   0.28213   0.00000  Uiso   1.00
O462   O     0.47965   0.92751   0.27013   0.00000  Uiso   1.00
O463   O     0.40745   0.79958   0.23413   0.00000  Uiso   1.00
O464   O     0.60026   0.85939   0.21360   0.00000  Uiso   1.00
O465   O     0.40405   0.85544   0.28213   0.00000  Uiso   1.00
O466   O     0.58824   0.81892   0.27013   0.00000  Uiso   1.00
O467   O     0.47093   0.73610   0.23413   0.00000  Uiso   1.00
O468   O     0.53678   0.92286   0.21360   0.00000  Uiso   1.00
Zn469  Zn    0.52672   0.80661   0.28734   0.00000  Uiso   1.00
Zn470  Zn    0.46713   0.79124   0.21875   0.00000  Uiso   1.00
Zn471  Zn    0.54389   0.86442   0.20657   0.00000  Uiso   1.00
Zn472  Zn    0.46226   0.87106   0.28733   0.00000  Uiso   1.00
C473   C     0.71939   0.82611   0.26035   0.00000  Uiso   1.00
C474   C     0.83199   0.82653   0.06171   0.00000  Uiso   1.00
C475   C     0.89835   0.79782   0.05578   0.00000  Uiso   1.00
C476   C     0.94767   0.84064   0.23972   0.00000  Uiso   1.00
C477   C     0.80310   0.85430   0.41979   0.00000  Uiso   1.00
C478   C     0.99410   0.84335   0.23471   0.00000  Uiso   1.00
C479   C     0.67421   0.82435   0.26351   0.00000  Uiso   1.00
C480   C     0.84845   0.98976   0.23622   0.00000  Uiso   1.00
C481   C     0.81885   0.67836   0.26323   0.00000  Uiso   1.00
C482   C     0.82239   0.72266   0.26055   0.00000  Uiso   1.00
C483   C     0.84365   0.94476   0.24010   0.00000  Uiso   1.00
C484   C     0.74311   0.84792   0.48543   0.00000  Uiso   1.00
C485   C     0.85233   0.81496   0.12945   0.00000  Uiso   1.00
C486   C     0.81556   0.85163   0.37070   0.00000  Uiso   1.00
C487   C     0.91138   0.80309   0.01045   0.00000  Uiso   1.00
C488   C     0.85960   0.81052   0.08138   0.00000  Uiso   1.00
C489   C     0.75984   0.85761   0.44136   0.00000  Uiso   1.00
C490   C     0.76947   0.83595   0.00890   0.00000  Uiso   1.00
C491   C     0.81433   0.83733   0.49026   0.00000  Uiso   1.00
C492   C     0.83110   0.84590   0.44455   0.00000  Uiso   1.00
C493   C     0.84258   0.82726   0.01434   0.00000  Uiso   1.00
C494   C     0.88464   0.81901   0.48988   0.00000  Uiso   1.00
C495   C     0.90070   0.82879   0.44559   0.00000  Uiso   1.00
C496   C     0.87516   0.84456   0.42419   0.00000  Uiso   1.00
H497   H     0.92000   0.78672   0.07155   0.00000  Uiso   1.00
H498   H     0.79121   0.99705   0.28730   0.00000  Uiso   1.00
H499   H     0.94297   0.79582   0.49165   0.00000  Uiso   1.00
H500   H     0.77148   0.82980   0.10266   0.00000  Uiso   1.00
H501   H     0.79500   0.87515   0.07602   0.00000  Uiso   1.00
H502   H     0.67594   0.88212   0.18309   0.00000  Uiso   1.00
H503   H     0.70701   0.84416   0.17641   0.00000  Uiso   1.00
H504   H     0.98517   0.80754   0.29043   0.00000  Uiso   1.00
H505   H     0.93371   0.82542   0.42775   0.00000  Uiso   1.00
H506   H     0.73793   0.86402   0.42302   0.00000  Uiso   1.00
H507   H     0.75356   0.82392   0.04079   0.00000  Uiso   1.00
H508   H     0.70898   0.84745   0.00076   0.00000  Uiso   1.00
H509   H     0.89030   0.85467   0.39104   0.00000  Uiso   1.00
H510   H     0.90724   0.99016   0.18993   0.00000  Uiso   1.00
H511   H     0.87279   0.68474   0.17843   0.00000  Uiso   1.00
N512   N     0.88438   0.67701   0.20425   0.00000  Uiso   1.00
N513   N     0.79986   0.84972   0.09099   0.00000  Uiso   1.00
N514   N     0.69150   0.86601   0.19987   0.00000  Uiso   1.00
O515   O     0.83333   0.83333   0.25000   0.00000  Uiso   1.00
O516   O     0.82118   0.79304   0.15458   0.00000  Uiso   1.00
O517   O     0.79607   0.87058   0.34968   0.00000  Uiso   1.00
O518   O     0.87491   0.84425   0.14606   0.00000  Uiso   1.00
O519   O     0.84118   0.82546   0.34968   0.00000  Uiso   1.00
O520   O     0.84597   0.74686   0.28213   0.00000  Uiso   1.00
O521   O     0.81298   0.92751   0.27013   0.00000  Uiso   1.00
O522   O     0.74078   0.79958   0.23413   0.00000  Uiso   1.00
O523   O     0.93360   0.85939   0.21360   0.00000  Uiso   1.00
O524   O     0.73738   0.85544   0.28213   0.00000  Uiso   1.00
O525   O     0.92158   0.81892   0.27013   0.00000  Uiso   1.00
O526   O     0.80426   0.73610   0.23413   0.00000  Uiso   1.00
O527   O     0.87012   0.92286   0.21360   0.00000  Uiso   1.00
Zn528  Zn    0.86005   0.80661   0.28734   0.00000  Uiso   1.00
Zn529  Zn    0.80046   0.79124   0.21875   0.00000  Uiso   1.00
Zn530  Zn    0.87723   0.86442   0.20657   0.00000  Uiso   1.00
Zn531  Zn    0.79560   0.87106   0.28733   0.00000  Uiso   1.00
C532   C     0.05272   0.15944   0.76035   0.00000  Uiso   1.00
C533   C     0.16532   0.15986   0.56171   0.00000  Uiso   1.00
C534   C     0.23169   0.13115   0.55578   0.00000  Uiso   1.00
C535   C     0.28100   0.17398   0.73972   0.00000  Uiso   1.00
C536   C     0.13643   0.18764   0.91979   0.00000  Uiso   1.00
C537   C     0.32743   0.17669   0.73471   0.00000  Uiso   1.00
C538   C     0.00755   0.15769   0.76351   0.00000  Uiso   1.00
C539   C     0.18179   0.32309   0.73622   0.00000  Uiso   1.00
C540   C     0.15219   0.01169   0.76323   0.00000  Uiso   1.00
C541   C     0.15572   0.05599   0.76055   0.00000  Uiso   1.00
C542   C     0.17698   0.27809   0.74010   0.00000  Uiso   1.00
C543   C     0.07645   0.18125   0.98543   0.00000  Uiso   1.00
C544   C     0.18566   0.14830   0.62945   0.00000  Uiso   1.00
C545   C     0.14889   0.18496   0.87070   0.00000  Uiso   1.00
C546   C     0.24471   0.13642   0.51045   0.00000  Uiso   1.00
C547   C     0.19293   0.14386   0.58138   0.00000  Uiso   1.00
C548   C     0.09317   0.19094   0.94136   0.00000  Uiso   1.00
C549   C     0.10280   0.16929   0.50890   0.00000  Uiso   1.00
C550   C     0.14766   0.17066   0.99026   0.00000  Uiso   1.00
C551   C     0.16443   0.17924   0.94455   0.00000  Uiso   1.00
C552   C     0.17591   0.16060   0.51434   0.00000  Uiso   1.00
C553   C     0.21797   0.15234   0.98988   0.00000  Uiso   1.00
C554   C     0.23403   0.16212   0.94559   0.00000  Uiso   1.00
C555   C     0.20849   0.17790   0.92419   0.00000  Uiso   1.00
H556   H     0.25333   0.12005   0.57155   0.00000  Uiso   1.00
H557   H     0.12454   0.33039   0.78730   0.00000  Uiso   1.00
H558   H     0.27630   0.12915   0.99165   0.00000  Uiso   1.00
H559   H     0.10482   0.16313   0.60266   0.00000  Uiso   1.00
H560   H     0.12833   0.20848   0.57602   0.00000  Uiso   1.00
H561   H     0.00928   0.21545   0.68309   0.00000  Uiso   1.00
H562   H     0.04035   0.17749   0.67641   0.00000  Uiso   1.00
H563   H     0.31850   0.14088   0.79043   0.00000  Uiso   1.00
H564   H     0.26705   0.15876   0.92775   0.00000  Uiso   1.00
H565   H     0.07127   0.19736   0.92302   0.00000  Uiso   1.00
H566   H     0.08690   0.15725   0.54079   0.00000  Uiso   1.00
H567   H     0.04231   0.18079   0.50076   0.00000  Uiso   1.00
H568   H     0.22363   0.18800   0.89104   0.00000  Uiso   1.00
H569   H     0.24057   0.32349   0.68993   0.00000  Uiso   1.00
H570   H     0.20613   0.01808   0.67843   0.00000  Uiso   1.00
N571   N     0.21772   0.01034   0.70425   0.00000  Uiso   1.00
N572   N     0.13319   0.18305   0.59099   0.00000  Uiso   1.00
N573   N     0.02483   0.19934   0.69987   0.00000  Uiso   1.00
O574   O     0.16667   0.16667   0.75000   0.00000  Uiso   1.00
O575   O     0.15451   0.12637   0.65458   0.00000  Uiso   1.00
O576   O     0.12940   0.20391   0.84968   0.00000  Uiso   1.00
O577   O     0.20824   0.17759   0.64606   0.00000  Uiso   1.00
O578   O     0.17451   0.15880   0.84968   0.00000  Uiso   1.00
O579   O     0.17930   0.08019   0.78213   0.00000  Uiso   1.00
O580   O     0.14632   0.26085   0.77013   0.00000  Uiso   1.00
O581   O     0.07412   0.13291   0.73413   0.00000  Uiso   1.00
O582   O     0.26693   0.19272   0.71360   0.00000  Uiso   1.00
O583   O     0.07071   0.18878   0.78213   0.00000  Uiso   1.00
O584   O     0.25491   0.15226   0.77013   0.00000  Uiso   1.00
O585   O     0.13760   0.06944   0.73413   0.00000  Uiso   1.00
O586   O     0.20345   0.25620   0.71360   0.00000  Uiso   1.00
Zn587  Zn    0.19338   0.13994   0.78734   0.00000  Uiso   1.00
Zn588  Zn    0.13379   0.12458   0.71875   0.00000  Uiso   1.00
Zn589  Zn    0.21056   0.19775   0.70657   0.00000  Uiso   1.00
Zn590  Zn    0.12893   0.20439   0.78733   0.00000  Uiso   1.00
C591   C     0.38605   0.15944   0.76035   0.00000  Uiso   1.00
C592   C     0.49866   0.15986   0.56171   0.00000  Uiso   1.00
C593   C     0.56502   0.13115   0.55578   0.00000  Uiso   1.00
C594   C     0.61433   0.17398   0.73972   0.00000  Uiso   1.00
C595   C     0.46976   0.18764   0.91979   0.00000  Uiso   1.00
C596   C     0.66077   0.17669   0.73471   0.00000  Uiso   1.00
C597   C     0.34088   0.15769   0.76351   0.00000  Uiso   1.00
C598   C     0.51512   0.32309   0.73622   0.00000  Uiso   1.00
C599   C     0.48552   0.01169   0.76323   0.00000  Uiso   1.00
C600   C     0.48905   0.05599   0.76055   0.00000  Uiso   1.00
C601   C     0.51031   0.27809   0.74010   0.00000  Uiso   1.00
C602   C     0.40978   0.18125   0.98543   0.00000  Uiso   1.00
C603   C     0.51900   0.14830   0.62945   0.00000  Uiso   1.00
C604   C     0.48223   0.18496   0.87070   0.00000  Uiso   1.00
C605   C     0.57805   0.13642   0.51045   0.00000  Uiso   1.00
C606   C     0.52626   0.14386   0.58138   0.00000  Uiso   1.00
C607   C     0.42651   0.19094   0.94136   0.00000  Uiso   1.00
C608   C     0.43613   0.16929   0.50890   0.00000  Uiso   1.00
C609   C     0.48099   0.17066   0.99026   0.00000  Uiso   1.00
C610   C     0.49776   0.17924   0.94455   0.00000  Uiso   1.00
C611   C     0.50924   0.16060   0.51434   0.00000  Uiso   1.00
C612   C     0.55130   0.15234   0.98988   0.00000  Uiso   1.00
C613   C     0.56737   0.16212   0.94559   0.00000  Uiso   1.00
C614   C     0.54182   0.17790   0.92419   0.00000  Uiso   1.00
H615   H     0.58666   0.12005   0.57155   0.00000  Uiso   1.00
H616   H     0.45787   0.33039   0.78730   0.00000  Uiso   1.00
H617   H     0.60964   0.12915   0.99165   0.00000  Uiso   1.00
H618   H     0.43815   0.16313   0.60266   0.00000  Uiso   1.00
H619   H     0.46166   0.20848   0.57602   0.00000  Uiso   1.00
H620   H     0.34261   0.21545   0.68309   0.00000  Uiso   1.00
H621   H     0.37368   0.17749   0.67641   0.00000  Uiso   1.00
H622   H     0.65184   0.14088   0.79043   0.00000  Uiso   1.00
H623   H     0.60038   0.15876   0.92775   0.00000  Uiso   1.00
H624   H     0.40460   0.19736   0.92302   0.00000  Uiso   1.00
H625   H     0.42023   0.15725   0.54079   0.00000  Uiso   1.00
H626   H     0.37565   0.18079   0.50076   0.00000  Uiso   1.00
H627   H     0.55696   0.18800   0.89104   0.00000  Uiso   1.00
H628   H     0.57390   0.32349   0.68993   0.00000  Uiso   1.00
H629   H     0.53946   0.01808   0.67843   0.00000  Uiso   1.00
N630   N     0.55105   0.01034   0.70425   0.00000  Uiso   1.00
N631   N     0.46652   0.18305   0.59099   0.00000  Uiso   1.00
N632   N     0.35816   0.19934   0.69987   0.00000  Uiso   1.00
O633   O     0.50000   0.16667   0.75000   0.00000  Uiso   1.00
O634   O     0.48784   0.12637   0.65458   0.00000  Uiso   1.00
O635   O     0.46274   0.20391   0.84968   0.00000  Uiso   1.00
O636   O     0.54157   0.17759   0.64606   0.00000  Uiso   1.00
O637   O     0.50785   0.15880   0.84968   0.00000  Uiso   1.00
O638   O     0.51264   0.08019   0.78213   0.00000  Uiso   1.00
O639   O     0.47965   0.26085   0.77013   0.00000  Uiso   1.00
O640   O     0.40745   0.13291   0.73413   0.00000  Uiso   1.00
O641   O     0.60026   0.19272   0.71360   0.00000  Uiso   1.00
O642   O     0.40405   0.18878   0.78213   0.00000  Uiso   1.00
O643   O     0.58824   0.15226   0.77013   0.00000  Uiso   1.00
O644   O     0.47093   0.06944   0.73413   0.00000  Uiso   1.00
O645   O     0.53678   0.25620   0.71360   0.00000  Uiso   1.00
Zn646  Zn    0.52672   0.13994   0.78734   0.00000  Uiso   1.00
Zn647  Zn    0.46713   0.12458   0.71875   0.00000  Uiso   1.00
Zn648  Zn    0.54389   0.19775   0.70657   0.00000  Uiso   1.00
Zn649  Zn    0.46226   0.20439   0.78733   0.00000  Uiso   1.00
C650   C     0.71939   0.15944   0.76035   0.00000  Uiso   1.00
C651   C     0.83199   0.15986   0.56171   0.00000  Uiso   1.00
C652   C     0.89835   0.13115   0.55578   0.00000  Uiso   1.00
C653   C     0.94767   0.17398   0.73972   0.00000  Uiso   1.00
C654   C     0.80310   0.18764   0.91979   0.00000  Uiso   1.00
C655   C     0.99410   0.17669   0.73471   0.00000  Uiso   1.00
C656   C     0.67421   0.15769   0.76351   0.00000  Uiso   1.00
C657   C     0.84845   0.32309   0.73622   0.00000  Uiso   1.00
C658   C     0.81885   0.01169   0.76323   0.00000  Uiso   1.00
C659   C     0.82239   0.05599   0.76055   0.00000  Uiso   1.00
C660   C     0.84365   0.27809   0.74010   0.00000  Uiso   1.00
C661   C     0.74311   0.18125   0.98543   0.00000  Uiso   1.00
C662   C     0.85233   0.14830   0.62945   0.00000  Uiso   1.00
C663   C     0.81556   0.18496   0.87070   0.00000  Uiso   1.00
C664   C     0.91138   0.13642   0.51045   0.00000  Uiso   1.00
C665   C     0.85960   0.14386   0.58138   0.00000  Uiso   1.00
C666   C     0.75984   0.19094   0.94136   0.00000  Uiso   1.00
C667   C     0.76947   0.16929   0.50890   0.00000  Uiso   1.00
C668   C     0.81433   0.17066   0.99026   0.00000  Uiso   1.00
C669   C     0.83110   0.17924   0.94455   0.00000  Uiso   1.00
C670   C     0.84258   0.16060   0.51434   0.00000  Uiso   1.00
C671   C     0.88464   0.15234   0.98988   0.00000  Uiso   1.00
C672   C     0.90070   0.16212   0.94559   0.00000  Uiso   1.00
C673   C     0.87516   0.17790   0.92419   0.00000  Uiso   1.00
H674   H     0.92000   0.12005   0.57155   0.00000  Uiso   1.00
H675   H     0.79121   0.33039   0.78730   0.00000  Uiso   1.00
H676   H     0.94297   0.12915   0.99165   0.00000  Uiso   1.00
H677   H     0.77148   0.16313   0.60266   0.00000  Uiso   1.00
H678   H     0.79500   0.20848   0.57602   0.00000  Uiso   1.00
H679   H     0.67594   0.21545   0.68309   0.00000  Uiso   1.00
H680   H     0.70701   0.17749   0.67641   0.00000  Uiso   1.00
H681   H     0.98517   0.14088   0.79043   0.00000  Uiso   1.00
H682   H     0.93371   0.15876   0.92775   0.00000  Uiso   1.00
H683   H     0.73793   0.19736   0.92302   0.00000  Uiso   1.00
H684   H     0.75356   0.15725   0.54079   0.00000  Uiso   1.00
H685   H     0.70898   0.18079   0.50076   0.00000  Uiso   1.00
H686   H     0.89030   0.18800   0.89104   0.00000  Uiso   1.00
H687   H     0.90724   0.32349   0.68993   0.00000  Uiso   1.00
H688   H     0.87279   0.01808   0.67843   0.00000  Uiso   1.00
N689   N     0.88438   0.01034   0.70425   0.00000  Uiso   1.00
N690   N     0.79986   0.18305   0.59099   0.00000  Uiso   1.00
N691   N     0.69150   0.19934   0.69987   0.00000  Uiso   1.00
O692   O     0.83333   0.16667   0.75000   0.00000  Uiso   1.00
O693   O     0.82118   0.12637   0.65458   0.00000  Uiso   1.00
O694   O     0.79607   0.20391   0.84968   0.00000  Uiso   1.00
O695   O     0.87491   0.17759   0.64606   0.00000  Uiso   1.00
O696   O     0.84118   0.15880   0.84968   0.00000  Uiso   1.00
O697   O     0.84597   0.08019   0.78213   0.00000  Uiso   1.00
O698   O     0.81298   0.26085   0.77013   0.00000  Uiso   1.00
O699   O     0.74078   0.13291   0.73413   0.00000  Uiso   1.00
O700   O     0.93360   0.19272   0.71360   0.00000  Uiso   1.00
O701   O     0.73738   0.18878   0.78213   0.00000  Uiso   1.00
O702   O     0.92158   0.15226   0.77013   0.00000  Uiso   1.00
O703   O     0.80426   0.06944   0.73413   0.00000  Uiso   1.00
O704   O     0.87012   0.25620   0.71360   0.00000  Uiso   1.00
Zn705  Zn    0.86005   0.13994   0.78734   0.00000  Uiso   1.00
Zn706  Zn    0.80046   0.12458   0.71875   0.00000  Uiso   1.00
Zn707  Zn    0.87723   0.19775   0.70657   0.00000  Uiso   1.00
Zn708  Zn    0.79560   0.20439   0.78733   0.00000  Uiso   1.00
C709   C     0.05272   0.49278   0.76035   0.00000  Uiso   1.00
C710   C     0.16532   0.49320   0.56171   0.00000  Uiso   1.00
C711   C     0.23169   0.46448   0.55578   0.00000  Uiso   1.00
C712   C     0.28100   0.50731   0.73972   0.00000  Uiso   1.00
C713   C     0.13643   0.52097   0.91979   0.00000  Uiso   1.00
C714   C     0.32743   0.51002   0.73471   0.00000  Uiso   1.00
C715   C     0.00755   0.49102   0.76351   0.00000  Uiso   1.00
C716   C     0.18179   0.65642   0.73622   0.00000  Uiso   1.00
C717   C     0.15219   0.34503   0.76323   0.00000  Uiso   1.00
C718   C     0.15572   0.38932   0.76055   0.00000  Uiso   1.00
C719   C     0.17698   0.61143   0.74010   0.00000  Uiso   1.00
C720   C     0.07645   0.51459   0.98543   0.00000  Uiso   1.00
C721   C     0.18566   0.48163   0.62945   0.00000  Uiso   1.00
C722   C     0.14889   0.51830   0.87070   0.00000  Uiso   1.00
C723   C     0.24471   0.46975   0.51045   0.00000  Uiso   1.00
C724   C     0.19293   0.47719   0.58138   0.00000  Uiso   1.00
C725   C     0.09317   0.52427   0.94136   0.00000  Uiso   1.00
C726   C     0.10280   0.50262   0.50890   0.00000  Uiso   1.00
C727   C     0.14766   0.50400   0.99026   0.00000  Uiso   1.00
C728   C     0.16443   0.51257   0.94455   0.00000  Uiso   1.00
C729   C     0.17591   0.49393   0.51434   0.00000  Uiso   1.00
C730   C     0.21797   0.48567   0.98988   0.00000  Uiso   1.00
C731   C     0.23403   0.49545   0.94559   0.00000  Uiso   1.00
C732   C     0.20849   0.51123   0.92419   0.00000  Uiso   1.00
H733   H     0.25333   0.45338   0.57155   0.00000  Uiso   1.00
H734   H     0.12454   0.66372   0.78730   0.00000  Uiso   1.00
H735   H     0.27630   0.46249   0.99165   0.00000  Uiso   1.00
H736   H     0.10482   0.49646   0.60266   0.00000  Uiso   1.00
H737   H     0.12833   0.54182   0.57602   0.00000  Uiso   1.00
H738   H     0.00928   0.54878   0.68309   0.00000  Uiso   1.00
H739   H     0.04035   0.51083   0.67641   0.00000  Uiso   1.00
H740   H     0.31850   0.47421   0.79043   0.00000  Uiso   1.00
H741   H     0.26705   0.49209   0.92775   0.00000  Uiso   1.00
H742   H     0.07127   0.53069   0.92302   0.00000  Uiso   1.00
H743   H     0.08690   0.49059   0.54079   0.00000  Uiso   1.00
H744   H     0.04231   0.51412   0.50076   0.00000  Uiso   1.00
H745   H     0.22363   0.52133   0.89104   0.00000  Uiso   1.00
H746   H     0.24057   0.65682   0.68993   0.00000  Uiso   1.00
H747   H     0.20613   0.35141   0.67843   0.00000  Uiso   1.00
N748   N     0.21772   0.34367   0.70425   0.00000  Uiso   1.00
N749   N     0.13319   0.51638   0.59099   0.00000  Uiso   1.00
N750   N     0.02483   0.53268   0.69987   0.00000  Uiso   1.00
O751   O     0.16667   0.50000   0.75000   0.00000  Uiso   1.00
O752   O     0.15451   0.45970   0.65458   0.00000  Uiso   1.00
O753   O     0.12940   0.53724   0.84968   0.00000  Uiso   1.00
O754   O     0.20824   0.51092   0.64606   0.00000  Uiso   1.00
O755   O     0.17451   0.49213   0.84968   0.00000  Uiso   1.00
O756   O     0.17930   0.41352   0.78213   0.00000  Uiso   1.00
O757   O     0.14632   0.59418   0.77013   0.00000  Uiso   1.00
O758   O     0.07412   0.46625   0.73413   0.00000  Uiso   1.00
O759   O     0.26693   0.52605   0.71360   0.00000  Uiso   1.00
O760   O     0.07071   0.52211   0.78213   0.00000  Uiso   1.00
O761   O     0.25491   0.48559   0.77013   0.00000  Uiso   1.00
O762   O     0.13760   0.40277   0.73413   0.00000  Uiso   1.00
O763   O     0.20345   0.58953   0.71360   0.00000  Uiso   1.00
Zn764  Zn    0.19338   0.47327   0.78734   0.00000  Uiso   1.00
Zn765  Zn    0.13379   0.45791   0.71875   0.00000  Uiso   1.00
Zn766  Zn    0.21056   0.53109   0.70657   0.00000  Uiso   1.00
Zn767  Zn    0.12893   0.53773   0.78733   0.00000  Uiso   1.00
C768   C     0.38605   0.49278   0.76035   0.00000  Uiso   1.00
C769   C     0.49866   0.49320   0.56171   0.00000  Uiso   1.00
C770   C     0.56502   0.46448   0.55578   0.00000  Uiso   1.00
C771   C     0.61433   0.50731   0.73972   0.00000  Uiso   1.00
C772   C     0.46976   0.52097   0.91979   0.00000  Uiso   1.00
C773   C     0.66077   0.51002   0.73471   0.00000  Uiso   1.00
C774   C     0.34088   0.49102   0.76351   0.00000  Uiso   1.00
C775   C     0.51512   0.65642   0.73622   0.00000  Uiso   1.00
C776   C     0.48552   0.34503   0.76323   0.00000  Uiso   1.00
C777   C     0.48905   0.38932   0.76055   0.00000  Uiso   1.00
C778   C     0.51031   0.61143   0.74010   0.00000  Uiso   1.00
C779   C     0.40978   0.51459   0.98543   0.00000  Uiso   1.00
C780   C     0.51900   0.48163   0.62945   0.00000  Uiso   1.00
C781   C     0.48223   0.51830   0.87070   0.00000  Uiso   1.00
C782   C     0.57805   0.46975   0.51045   0.00000  Uiso   1.00
C783   C     0.52626   0.47719   0.58138   0.00000  Uiso   1.00
C784   C     0.42651   0.52427   0.94136   0.00000  Uiso   1.00
C785   C     0.43613   0.50262   0.50890   0.00000  Uiso   1.00
C786   C     0.48099   0.50400   0.99026   0.00000  Uiso   1.00
C787   C     0.49776   0.51257   0.94455   0.00000  Uiso   1.00
C788   C     0.50924   0.49393   0.51434   0.00000  Uiso   1.00
C789   C     0.55130   0.48567   0.98988   0.00000  Uiso   1.00
C790   C     0.56737   0.49545   0.94559   0.00000  Uiso   1.00
C791   C     0.54182   0.51123   0.92419   0.00000  Uiso   1.00
H792   H     0.58666   0.45338   0.57155   0.00000  Uiso   1.00
H793   H     0.45787   0.66372   0.78730   0.00000  Uiso   1.00
H794   H     0.60964   0.46249   0.99165   0.00000  Uiso   1.00
H795   H     0.43815   0.49646   0.60266   0.00000  Uiso   1.00
H796   H     0.46166   0.54182   0.57602   0.00000  Uiso   1.00
H797   H     0.34261   0.54878   0.68309   0.00000  Uiso   1.00
H798   H     0.37368   0.51083   0.67641   0.00000  Uiso   1.00
H799   H     0.65184   0.47421   0.79043   0.00000  Uiso   1.00
H800   H     0.60038   0.49209   0.92775   0.00000  Uiso   1.00
H801   H     0.40460   0.53069   0.92302   0.00000  Uiso   1.00
H802   H     0.42023   0.49059   0.54079   0.00000  Uiso   1.00
H803   H     0.37565   0.51412   0.50076   0.00000  Uiso   1.00
H804   H     0.55696   0.52133   0.89104   0.00000  Uiso   1.00
H805   H     0.57390   0.65682   0.68993   0.00000  Uiso   1.00
H806   H     0.53946   0.35141   0.67843   0.00000  Uiso   1.00
N807   N     0.55105   0.34367   0.70425   0.00000  Uiso   1.00
N808   N     0.46652   0.51638   0.59099   0.00000  Uiso   1.00
N809   N     0.35816   0.53268   0.69987   0.00000  Uiso   1.00
O810   O     0.50000   0.50000   0.75000   0.00000  Uiso   1.00
O811   O     0.48784   0.45970   0.65458   0.00000  Uiso   1.00
O812   O     0.46274   0.53724   0.84968   0.00000  Uiso   1.00
O813   O     0.54157   0.51092   0.64606   0.00000  Uiso   1.00
O814   O     0.50785   0.49213   0.84968   0.00000  Uiso   1.00
O815   O     0.51264   0.41352   0.78213   0.00000  Uiso   1.00
O816   O     0.47965   0.59418   0.77013   0.00000  Uiso   1.00
O817   O     0.40745   0.46625   0.73413   0.00000  Uiso   1.00
O818   O     0.60026   0.52605   0.71360   0.00000  Uiso   1.00
O819   O     0.40405   0.52211   0.78213   0.00000  Uiso   1.00
O820   O     0.58824   0.48559   0.77013   0.00000  Uiso   1.00
O821   O     0.47093   0.40277   0.73413   0.00000  Uiso   1.00
O822   O     0.53678   0.58953   0.71360   0.00000  Uiso   1.00
Zn823  Zn    0.52672   0.47327   0.78734   0.00000  Uiso   1.00
Zn824  Zn    0.46713   0.45791   0.71875   0.00000  Uiso   1.00
Zn825  Zn    0.54389   0.53109   0.70657   0.00000  Uiso   1.00
Zn826  Zn    0.46226   0.53773   0.78733   0.00000  Uiso   1.00
C827   C     0.71939   0.49278   0.76035   0.00000  Uiso   1.00
C828   C     0.83199   0.49320   0.56171   0.00000  Uiso   1.00
C829   C     0.89835   0.46448   0.55578   0.00000  Uiso   1.00
C830   C     0.94767   0.50731   0.73972   0.00000  Uiso   1.00
C831   C     0.80310   0.52097   0.91979   0.00000  Uiso   1.00
C832   C     0.99410   0.51002   0.73471   0.00000  Uiso   1.00
C833   C     0.67421   0.49102   0.76351   0.00000  Uiso   1.00
C834   C     0.84845   0.65642   0.73622   0.00000  Uiso   1.00
C835   C     0.81885   0.34503   0.76323   0.00000  Uiso   1.00
C836   C     0.82239   0.38932   0.76055   0.00000  Uiso   1.00
C837   C     0.84365   0.61143   0.74010   0.00000  Uiso   1.00
C838   C     0.74311   0.51459   0.98543   0.00000  Uiso   1.00
C839   C     0.85233   0.48163   0.62945   0.00000  Uiso   1.00
C840   C     0.81556   0.51830   0.87070   0.00000  Uiso   1.00
C841   C     0.91138   0.46975   0.51045   0.00000  Uiso   1.00
C842   C     0.85960   0.47719   0.58138   0.00000  Uiso   1.00
C843   C     0.75984   0.52427   0.94136   0.00000  Uiso   1.00
C844   C     0.76947   0.50262   0.50890   0.00000  Uiso   1.00
C845   C     0.81433   0.50400   0.99026   0.00000  Uiso   1.00
C846   C     0.83110   0.51257   0.94455   0.00000  Uiso   1.00
C847   C     0.84258   0.49393   0.51434   0.00000  Uiso   1.00
C848   C     0.88464   0.48567   0.98988   0.00000  Uiso   1.00
C849   C     0.90070   0.49545   0.94559   0.00000  Uiso   1.00
C850   C     0.87516   0.51123   0.92419   0.00000  Uiso   1.00
H851   H     0.92000   0.45338   0.57155   0.00000  Uiso   1.00
H852   H     0.79121   0.66372   0.78730   0.00000  Uiso   1.00
H853   H     0.94297   0.46249   0.99165   0.00000  Uiso   1.00
H854   H     0.77148   0.49646   0.60266   0.00000  Uiso   1.00
H855   H     0.79500   0.54182   0.57602   0.00000  Uiso   1.00
H856   H     0.67594   0.54878   0.68309   0.00000  Uiso   1.00
H857   H     0.70701   0.51083   0.67641   0.00000  Uiso   1.00
H858   H     0.98517   0.47421   0.79043   0.00000  Uiso   1.00
H859   H     0.93371   0.49209   0.92775   0.00000  Uiso   1.00
H860   H     0.73793   0.53069   0.92302   0.00000  Uiso   1.00
H861   H     0.75356   0.49059   0.54079   0.00000  Uiso   1.00
H862   H     0.70898   0.51412   0.50076   0.00000  Uiso   1.00
H863   H     0.89030   0.52133   0.89104   0.00000  Uiso   1.00
H864   H     0.90724   0.65682   0.68993   0.00000  Uiso   1.00
H865   H     0.87279   0.35141   0.67843   0.00000  Uiso   1.00
N866   N     0.88438   0.34367   0.70425   0.00000  Uiso   1.00
N867   N     0.79986   0.51638   0.59099   0.00000  Uiso   1.00
N868   N     0.69150   0.53268   0.69987   0.00000  Uiso   1.00
O869   O     0.83333   0.50000   0.75000   0.00000  Uiso   1.00
O870   O     0.82118   0.45970   0.65458   0.00000  Uiso   1.00
O871   O     0.79607   0.53724   0.84968   0.00000  Uiso   1.00
O872   O     0.87491   0.51092   0.64606   0.00000  Uiso   1.00
O873   O     0.84118   0.49213   0.84968   0.00000  Uiso   1.00
O874   O     0.84597   0.41352   0.78213   0.00000  Uiso   1.00
O875   O     0.81298   0.59418   0.77013   0.00000  Uiso   1.00
O876   O     0.74078   0.46625   0.73413   0.00000  Uiso   1.00
O877   O     0.93360   0.52605   0.71360   0.00000  Uiso   1.00
O878   O     0.73738   0.52211   0.78213   0.00000  Uiso   1.00
O879   O     0.92158   0.48559   0.77013   0.00000  Uiso   1.00
O880   O     0.80426   0.40277   0.73413   0.00000  Uiso   1.00
O881   O     0.87012   0.58953   0.71360   0.00000  Uiso   1.00
Zn882  Zn    0.86005   0.47327   0.78734   0.00000  Uiso   1.00
Zn883  Zn    0.80046   0.45791   0.71875   0.00000  Uiso   1.00
Zn884  Zn    0.87723   0.53109   0.70657   0.00000  Uiso   1.00
Zn885  Zn    0.79560   0.53773   0.78733   0.00000  Uiso   1.00
C886   C     0.05272   0.82611   0.76035   0.00000  Uiso   1.00
C887   C     0.16532   0.82653   0.56171   0.00000  Uiso   1.00
C888   C     0.23169   0.79782   0.55578   0.00000  Uiso   1.00
C889   C     0.28100   0.84064   0.73972   0.00000  Uiso   1.00
C890   C     0.13643   0.85430   0.91979   0.00000  Uiso   1.00
C891   C     0.32743   0.84335   0.73471   0.00000  Uiso   1.00
C892   C     0.00755   0.82435   0.76351   0.00000  Uiso   1.00
C893   C     0.18179   0.98976   0.73622   0.00000  Uiso   1.00
C894   C     0.15219   0.67836   0.76323   0.00000  Uiso   1.00
C895   C     0.15572   0.72266   0.76055   0.00000  Uiso   1.00
C896   C     0.17698   0.94476   0.74010   0.00000  Uiso   1.00
C897   C     0.07645   0.84792   0.98543   0.00000  Uiso   1.00
C898   C     0.18566   0.81496   0.62945   0.00000  Uiso   1.00
C899   C     0.14889   0.85163   0.87070   0.00000  Uiso   1.00
C900   C     0.24471   0.80309   0.51045   0.00000  Uiso   1.00
C901   C     0.19293   0.81052   0.58138   0.00000  Uiso   1.00
C902   C     0.09317   0.85761   0.94136   0.00000  Uiso   1.00
C903   C     0.10280   0.83595   0.50890   0.00000  Uiso   1.00
C904   C     0.14766   0.83733   0.99026   0.00000  Uiso   1.00
C905   C     0.16443   0.84590   0.94455   0.00000  Uiso   1.00
C906   C     0.17591   0.82726   0.51434   0.00000  Uiso   1.00
C907   C     0.21797   0.81901   0.98988   0.00000  Uiso   1.00
C908   C     0.23403   0.82879   0.94559   0.00000  Uiso   1.00
C909   C     0.20849   0.84456   0.92419   0.00000  Uiso   1.00
H910   H     0.25333   0.78672   0.57155   0.00000  Uiso   1.00
H911   H     0.12454   0.99705   0.78730   0.00000  Uiso   1.00
H912   H     0.27630   0.79582   0.99165   0.00000  Uiso   1.00
H913   H     0.10482   0.82980   0.60266   0.00000  Uiso   1.00
H914   H     0.12833   0.87515   0.57602   0.00000  Uiso   1.00
H915   H     0.00928   0.88212   0.68309   0.00000  Uiso   1.00
H916   H     0.04035   0.84416   0.67641   0.00000  Uiso   1.00
H917   H     0.31850   0.80754   0.79043   0.00000  Uiso   1.00
H918   H     0.26705   0.82542   0.92775   0.00000  Uiso   1.00
H919   H     0.07127   0.86402   0.92302   0.00000  Uiso   1.00
H920   H     0.08690   0.82392   0.54079   0.00000  Uiso   1.00
H921   H     0.04231   0.84745   0.50076   0.00000  Uiso   1.00
H922   H     0.22363   0.85467   0.89104   0.00000  Uiso   1.00
H923   H     0.24057   0.99016   0.68993   0.00000  Uiso   1.00
H924   H     0.20613   0.68474   0.67843   0.00000  Uiso   1.00
N925   N     0.21772   0.67701   0.70425   0.00000  Uiso   1.00
N926   N     0.13319   0.84972   0.59099   0.00000  Uiso   1.00
N927   N     0.02483   0.86601   0.69987   0.00000  Uiso   1.00
O928   O     0.16667   0.83333   0.75000   0.00000  Uiso   1.00
O929   O     0.15451   0.79304   0.65458   0.00000  Uiso   1.00
O930   O     0.12940   0.87058   0.84968   0.00000  Uiso   1.00
O931   O     0.20824   0.84425   0.64606   0.00000  Uiso   1.00
O932   O     0.17451   0.82546   0.84968   0.00000  Uiso   1.00
O933   O     0.17930   0.74686   0.78213   0.00000  Uiso   1.00
O934   O     0.14632   0.92751   0.77013   0.00000  Uiso   1.00
O935   O     0.07412   0.79958   0.73413   0.00000  Uiso   1.00
O936   O     0.26693   0.85939   0.71360   0.00000  Uiso   1.00
O937   O     0.07071   0.85544   0.78213   0.00000  Uiso   1.00
O938   O     0.25491   0.81892   0.77013   0.00000  Uiso   1.00
O939   O     0.13760   0.73610   0.73413   0.00000  Uiso   1.00
O940   O     0.20345   0.92286   0.71360   0.00000  Uiso   1.00
Zn941  Zn    0.19338   0.80661   0.78734   0.00000  Uiso   1.00
Zn942  Zn    0.13379   0.79124   0.71875   0.00000  Uiso   1.00
Zn943  Zn    0.21056   0.86442   0.70657   0.00000  Uiso   1.00
Zn944  Zn    0.12893   0.87106   0.78733   0.00000  Uiso   1.00
C945   C     0.38605   0.82611   0.76035   0.00000  Uiso   1.00
C946   C     0.49866   0.82653   0.56171   0.00000  Uiso   1.00
C947   C     0.56502   0.79782   0.55578   0.00000  Uiso   1.00
C948   C     0.61433   0.84064   0.73972   0.00000  Uiso   1.00
C949   C     0.46976   0.85430   0.91979   0.00000  Uiso   1.00
C950   C     0.66077   0.84335   0.73471   0.00000  Uiso   1.00
C951   C     0.34088   0.82435   0.76351   0.00000  Uiso   1.00
C952   C     0.51512   0.98976   0.73622   0.00000  Uiso   1.00
C953   C     0.48552   0.67836   0.76323   0.00000  Uiso   1.00
C954   C     0.48905   0.72266   0.76055   0.00000  Uiso   1.00
C955   C     0.51031   0.94476   0.74010   0.00000  Uiso   1.00
C956   C     0.40978   0.84792   0.98543   0.00000  Uiso   1.00
C957   C     0.51900   0.81496   0.62945   0.00000  Uiso   1.00
C958   C     0.48223   0.85163   0.87070   0.00000  Uiso   1.00
C959   C     0.57805   0.80309   0.51045   0.00000  Uiso   1.00
C960   C     0.52626   0.81052   0.58138   0.00000  Uiso   1.00
C961   C     0.42651   0.85761   0.94136   0.00000  Uiso   1.00
C962   C     0.43613   0.83595   0.50890   0.00000  Uiso   1.00
C963   C     0.48099   0.83733   0.99026   0.00000  Uiso   1.00
C964   C     0.49776   0.84590   0.94455   0.00000  Uiso   1.00
C965   C     0.50924   0.82726   0.51434   0.00000  Uiso   1.00
C966   C     0.55130   0.81901   0.98988   0.00000  Uiso   1.00
C967   C     0.56737   0.82879   0.94559   0.00000  Uiso   1.00
C968   C     0.54182   0.84456   0.92419   0.00000  Uiso   1.00
H969   H     0.58666   0.78672   0.57155   0.00000  Uiso   1.00
H970   H     0.45787   0.99705   0.78730   0.00000  Uiso   1.00
H971   H     0.60964   0.79582   0.99165   0.00000  Uiso   1.00
H972   H     0.43815   0.82980   0.60266   0.00000  Uiso   1.00
H973   H     0.46166   0.87515   0.57602   0.00000  Uiso   1.00
H974   H     0.34261   0.88212   0.68309   0.00000  Uiso   1.00
H975   H     0.37368   0.84416   0.67641   0.00000  Uiso   1.00
H976   H     0.65184   0.80754   0.79043   0.00000  Uiso   1.00
H977   H     0.60038   0.82542   0.92775   0.00000  Uiso   1.00
H978   H     0.40460   0.86402   0.92302   0.00000  Uiso   1.00
H979   H     0.42023   0.82392   0.54079   0.00000  Uiso   1.00
H980   H     0.37565   0.84745   0.50076   0.00000  Uiso   1.00
H981   H     0.55696   0.85467   0.89104   0.00000  Uiso   1.00
H982   H     0.57390   0.99016   0.68993   0.00000  Uiso   1.00
H983   H     0.53946   0.68474   0.67843   0.00000  Uiso   1.00
N984   N     0.55105   0.67701   0.70425   0.00000  Uiso   1.00
N985   N     0.46652   0.84972   0.59099   0.00000  Uiso   1.00
N986   N     0.35816   0.86601   0.69987   0.00000  Uiso   1.00
O987   O     0.50000   0.83333   0.75000   0.00000  Uiso   1.00
O988   O     0.48784   0.79304   0.65458   0.00000  Uiso   1.00
O989   O     0.46274   0.87058   0.84968   0.00000  Uiso   1.00
O990   O     0.54157   0.84425   0.64606   0.00000  Uiso   1.00
O991   O     0.50785   0.82546   0.84968   0.00000  Uiso   1.00
O992   O     0.51264   0.74686   0.78213   0.00000  Uiso   1.00
O993   O     0.47965   0.92751   0.77013   0.00000  Uiso   1.00
O994   O     0.40745   0.79958   0.73413   0.00000  Uiso   1.00
O995   O     0.60026   0.85939   0.71360   0.00000  Uiso   1.00
O996   O     0.40405   0.85544   0.78213   0.00000  Uiso   1.00
O997   O     0.58824   0.81892   0.77013   0.00000  Uiso   1.00
O998   O     0.47093   0.73610   0.73413   0.00000  Uiso   1.00
O999   O     0.53678   0.92286   0.71360   0.00000  Uiso   1.00
Zn1000 Zn    0.52672   0.80661   0.78734   0.00000  Uiso   1.00
Zn1001 Zn    0.46713   0.79124   0.71875   0.00000  Uiso   1.00
Zn1002 Zn    0.54389   0.86442   0.70657   0.00000  Uiso   1.00
Zn1003 Zn    0.46226   0.87106   0.78733   0.00000  Uiso   1.00
C1004  C     0.71939   0.82611   0.76035   0.00000  Uiso   1.00
C1005  C     0.83199   0.82653   0.56171   0.00000  Uiso   1.00
C1006  C     0.89835   0.79782   0.55578   0.00000  Uiso   1.00
C1007  C     0.94767   0.84064   0.73972   0.00000  Uiso   1.00
C1008  C     0.80310   0.85430   0.91979   0.00000  Uiso   1.00
C1009  C     0.99410   0.84335   0.73471   0.00000  Uiso   1.00
C1010  C     0.67421   0.82435   0.76351   0.00000  Uiso   1.00
C1011  C     0.84845   0.98976   0.73622   0.00000  Uiso   1.00
C1012  C     0.81885   0.67836   0.76323   0.00000  Uiso   1.00
C1013  C     0.82239   0.72266   0.76055   0.00000  Uiso   1.00
C1014  C     0.84365   0.94476   0.74010   0.00000  Uiso   1.00
C1015  C     0.74311   0.84792   0.98543   0.00000  Uiso   1.00
C1016  C     0.85233   0.81496   0.62945   0.00000  Uiso   1.00
C1017  C     0.81556   0.85163   0.87070   0.00000  Uiso   1.00
C1018  C     0.91138   0.80309   0.51045   0.00000  Uiso   1.00
C1019  C     0.85960   0.81052   0.58138   0.00000  Uiso   1.00
C1020  C     0.75984   0.85761   0.94136   0.00000  Uiso   1.00
C1021  C     0.76947   0.83595   0.50890   0.00000  Uiso   1.00
C1022  C     0.81433   0.83733   0.99026   0.00000  Uiso   1.00
C1023  C     0.83110   0.84590   0.94455   0.00000  Uiso   1.00
C1024  C     0.84258   0.82726   0.51434   0.00000  Uiso   1.00
C1025  C     0.88464   0.81901   0.98988   0.00000  Uiso   1.00
C1026  C     0.90070   0.82879   0.94559   0.00000  Uiso   1.00
C1027  C     0.87516   0.84456   0.92419   0.00000  Uiso   1.00
H1028  H     0.92000   0.78672   0.57155   0.00000  Uiso   1.00
H1029  H     0.79121   0.99705   0.78730   0.00000  Uiso   1.00
H1030  H     0.94297   0.79582   0.99165   0.00000  Uiso   1.00
H1031  H     0.77148   0.82980   0.60266   0.00000  Uiso   1.00
H1032  H     0.79500   0.87515   0.57602   0.00000  Uiso   1.00
H1033  H     0.67594   0.88212   0.68309   0.00000  Uiso   1.00
H1034  H     0.70701   0.84416   0.67641   0.00000  Uiso   1.00
H1035  H     0.98517   0.80754   0.79043   0.00000  Uiso   1.00
H1036  H     0.93371   0.82542   0.92775   0.00000  Uiso   1.00
H1037  H     0.73793   0.86402   0.92302   0.00000  Uiso   1.00
H1038  H     0.75356   0.82392   0.54079   0.00000  Uiso   1.00
H1039  H     0.70898   0.84745   0.50076   0.00000  Uiso   1.00
H1040  H     0.89030   0.85467   0.89104   0.00000  Uiso   1.00
H1041  H     0.90724   0.99016   0.68993   0.00000  Uiso   1.00
H1042  H     0.87279   0.68474   0.67843   0.00000  Uiso   1.00
N1043  N     0.88438   0.67701   0.70425   0.00000  Uiso   1.00
N1044  N     0.79986   0.84972   0.59099   0.00000  Uiso   1.00
N1045  N     0.69150   0.86601   0.69987   0.00000  Uiso   1.00
O1046  O     0.83333   0.83333   0.75000   0.00000  Uiso   1.00
O1047  O     0.82118   0.79304   0.65458   0.00000  Uiso   1.00
O1048  O     0.79607   0.87058   0.84968   0.00000  Uiso   1.00
O1049  O     0.87491   0.84425   0.64606   0.00000  Uiso   1.00
O1050  O     0.84118   0.82546   0.84968   0.00000  Uiso   1.00
O1051  O     0.84597   0.74686   0.78213   0.00000  Uiso   1.00
O1052  O     0.81298   0.92751   0.77013   0.00000  Uiso   1.00
O1053  O     0.74078   0.79958   0.73413   0.00000  Uiso   1.00
O1054  O     0.93360   0.85939   0.71360   0.00000  Uiso   1.00
O1055  O     0.73738   0.85544   0.78213   0.00000  Uiso   1.00
O1056  O     0.92158   0.81892   0.77013   0.00000  Uiso   1.00
O1057  O     0.80426   0.73610   0.73413   0.00000  Uiso   1.00
O1058  O     0.87012   0.92286   0.71360   0.00000  Uiso   1.00
Zn1059 Zn    0.86005   0.80661   0.78734   0.00000  Uiso   1.00
Zn1060 Zn    0.80046   0.79124   0.71875   0.00000  Uiso   1.00
Zn1061 Zn    0.87723   0.86442   0.70657   0.00000  Uiso   1.00
Zn1062 Zn    0.79560   0.87106   0.78733   0.00000  Uiso   1.00
loop_
_geom_bond_atom_site_label_1
_geom_bond_atom_site_label_2
_geom_bond_distance
_geom_bond_site_symmetry_2
_ccdc_geom_bond_type
C1     O50     1.274   .     A
C1     O52     1.273   .     A
C1     C7      1.440   .     S
C2     C16     1.403   .     A
C2     C21     1.426   .     A
C2     N41     1.440   .     S
C3     C15     1.383   .     A
C3     H25     1.084   .     S
C3     C16     1.394   .     A
C4     O53     1.282   .     A
C4     O51     1.281   .     A
C4     C6      1.468   .     S
C5     C14     1.471   .     S
C5     C17     1.402   .     A
C5     C20     1.417   .     A
C6     C66     1.341   .     S
C6     N101    1.443   .     S
C7     C124    1.341   1_455 S
C7     H150    1.086   1_455 S
C8     C11     1.463   .     S
C8     C186    1.337   .     S
C8     N217    1.443   .     S
C9     C10     1.438   .     S
C9     C362    1.337   1_545 S
C9     H380    1.086   1_545 S
C10    O48     1.283   .     A
C10    O54     1.281   .     A
C11    O49     1.274   .     A
C11    O55     1.268   .     A
C12    C17     1.386   .     A
C12    C549    1.390   .     S
C12    H567    1.083   .     S
C13    C16     1.448   .     S
C13    O44     1.273   .     A
C13    O46     1.266   .     A
C14    O47     1.285   .     A
C14    O45     1.283   .     A
C15    C553    1.398   1_554 S
C15    H558    1.084   1_554 S
C17    H34     1.083   .     S
C18    H35     1.074   .     S
C18    C543    1.390   1_554 S
C18    C550    1.414   1_554 S
C19    C20     1.423   .     A
C19    C549    1.414   .     S
C19    C552    1.428   .     S
C20    C24     1.408   .     A
C21    C550    1.428   1_554 S
C21    C553    1.426   1_554 S
C22    C23     1.391   .     A
C22    C546    1.398   .     S
C22    C552    1.426   .     S
C23    C24     1.382   .     A
C23    H33     1.084   .     S
C24    H37     1.081   .     S
H26    C186    1.086   .     S
H27    C546    1.084   .     S
H28    N41     1.045   .     S
H29    N41     1.045   .     S
H30    N42     1.044   .     S
H31    N42     1.046   .     S
H32    C66     1.086   .     S
H36    C543    1.083   1_554 S
H38    N217    1.044   .     S
H39    N40     1.046   .     S
N40    H392    1.044   1_545 S
N40    C362    1.443   1_545 S
N42    C124    1.443   1_455 S
O43    Zn59    1.937   .     S
O43    Zn57    1.950   .     S
O43    Zn56    1.968   .     S
O43    Zn58    1.924   .     S
O44    Zn57    1.936   .     S
O45    Zn59    1.951   .     S
O46    Zn58    1.948   .     S
O47    Zn56    1.935   .     S
O48    Zn56    1.927   .     S
O49    Zn59    1.926   .     S
O50    Zn57    1.926   .     S
O51    Zn58    1.941   .     S
O52    Zn59    1.933   .     S
O53    Zn56    1.919   .     S
O54    Zn57    1.937   .     S
O55    Zn58    1.933   .     S
C60    O109    1.274   .     A
C60    O111    1.273   .     A
C60    C66     1.440   .     S
C61    C75     1.403   .     A
C61    C80     1.426   .     A
C61    N100    1.440   .     S
C62    C74     1.383   .     A
C62    H84     1.084   .     S
C62    C75     1.394   .     A
C63    O112    1.282   .     A
C63    O110    1.281   .     A
C63    C65     1.468   .     S
C64    C73     1.471   .     S
C64    C76     1.402   .     A
C64    C79     1.417   .     A
C65    C125    1.341   .     S
C65    N160    1.443   .     S
C67    C70     1.463   .     S
C67    C245    1.337   .     S
C67    N276    1.443   .     S
C68    C69     1.438   .     S
C68    C421    1.337   1_545 S
C68    H439    1.086   1_545 S
C69    O107    1.283   .     A
C69    O113    1.281   .     A
C70    O108    1.274   .     A
C70    O114    1.268   .     A
C71    C76     1.386   .     A
C71    C608    1.390   .     S
C71    H626    1.083   .     S
C72    C75     1.448   .     S
C72    O103    1.273   .     A
C72    O105    1.266   .     A
C73    O106    1.285   .     A
C73    O104    1.283   .     A
C74    C612    1.398   1_554 S
C74    H617    1.084   1_554 S
C76    H93     1.083   .     S
C77    H94     1.074   .     S
C77    C602    1.390   1_554 S
C77    C609    1.414   1_554 S
C78    C79     1.423   .     A
C78    C608    1.414   .     S
C78    C611    1.428   .     S
C79    C83     1.408   .     A
C80    C609    1.428   1_554 S
C80    C612    1.426   1_554 S
C81    C82     1.391   .     A
C81    C605    1.398   .     S
C81    C611    1.426   .     S
C82    C83     1.382   .     A
C82    H92     1.084   .     S
C83    H96     1.081   .     S
H85    C245    1.086   .     S
H86    C605    1.084   .     S
H87    N100    1.045   .     S
H88    N100    1.045   .     S
H89    N101    1.044   .     S
H90    N101    1.046   .     S
H91    C125    1.086   .     S
H95    C602    1.083   1_554 S
H97    N276    1.044   .     S
H98    N99     1.046   .     S
N99    H451    1.044   1_545 S
N99    C421    1.443   1_545 S
O102   Zn118   1.937   .     S
O102   Zn116   1.950   .     S
O102   Zn115   1.968   .     S
O102   Zn117   1.924   .     S
O103   Zn116   1.936   .     S
O104   Zn118   1.951   .     S
O105   Zn117   1.948   .     S
O106   Zn115   1.935   .     S
O107   Zn115   1.927   .     S
O108   Zn118   1.926   .     S
O109   Zn116   1.926   .     S
O110   Zn117   1.941   .     S
O111   Zn118   1.933   .     S
O112   Zn115   1.919   .     S
O113   Zn116   1.937   .     S
O114   Zn117   1.933   .     S
C119   O168    1.274   .     A
C119   O170    1.273   .     A
C119   C125    1.440   .     S
C120   C134    1.403   .     A
C120   C139    1.426   .     A
C120   N159    1.440   .     S
C121   C133    1.383   .     A
C121   H143    1.084   .     S
C121   C134    1.394   .     A
C122   O171    1.282   .     A
C122   O169    1.281   .     A
C122   C124    1.468   .     S
C123   C132    1.471   .     S
C123   C135    1.402   .     A
C123   C138    1.417   .     A
C124   C7      1.341   1_655 S
C124   N42     1.443   1_655 S
C126   C129    1.463   .     S
C126   C304    1.337   .     S
C126   N335    1.443   .     S
C127   C128    1.438   .     S
C127   C480    1.337   1_545 S
C127   H498    1.086   1_545 S
C128   O166    1.283   .     A
C128   O172    1.281   .     A
C129   O167    1.274   .     A
C129   O173    1.268   .     A
C130   C135    1.386   .     A
C130   C667    1.390   .     S
C130   H685    1.083   .     S
C131   C134    1.448   .     S
C131   O162    1.273   .     A
C131   O164    1.266   .     A
C132   O165    1.285   .     A
C132   O163    1.283   .     A
C133   C671    1.398   1_554 S
C133   H676    1.084   1_554 S
C135   H152    1.083   .     S
C136   H153    1.074   .     S
C136   C661    1.390   1_554 S
C136   C668    1.414   1_554 S
C137   C138    1.423   .     A
C137   C667    1.414   .     S
C137   C670    1.428   .     S
C138   C142    1.408   .     A
C139   C668    1.428   1_554 S
C139   C671    1.426   1_554 S
C140   C141    1.391   .     A
C140   C664    1.398   .     S
C140   C670    1.426   .     S
C141   C142    1.382   .     A
C141   H151    1.084   .     S
C142   H155    1.081   .     S
H144   C304    1.086   .     S
H145   C664    1.084   .     S
H146   N159    1.045   .     S
H147   N159    1.045   .     S
H148   N160    1.044   .     S
H149   N160    1.046   .     S
H150   C7      1.086   1_655 S
H154   C661    1.083   1_554 S
H156   N335    1.044   .     S
H157   N158    1.046   .     S
N158   H510    1.044   1_545 S
N158   C480    1.443   1_545 S
O161   Zn177   1.937   .     S
O161   Zn175   1.950   .     S
O161   Zn174   1.968   .     S
O161   Zn176   1.924   .     S
O162   Zn175   1.936   .     S
O163   Zn177   1.951   .     S
O164   Zn176   1.948   .     S
O165   Zn174   1.935   .     S
O166   Zn174   1.927   .     S
O167   Zn177   1.926   .     S
O168   Zn175   1.926   .     S
O169   Zn176   1.941   .     S
O170   Zn177   1.933   .     S
O171   Zn174   1.919   .     S
O172   Zn175   1.937   .     S
O173   Zn176   1.933   .     S
C178   O227    1.274   .     A
C178   O229    1.273   .     A
C178   C184    1.440   .     S
C179   C193    1.403   .     A
C179   C198    1.426   .     A
C179   N218    1.440   .     S
C180   C192    1.383   .     A
C180   H202    1.084   .     S
C180   C193    1.394   .     A
C181   O230    1.282   .     A
C181   O228    1.281   .     A
C181   C183    1.468   .     S
C182   C191    1.471   .     S
C182   C194    1.402   .     A
C182   C197    1.417   .     A
C183   C243    1.341   .     S
C183   N278    1.443   .     S
C184   C301    1.341   1_455 S
C184   H327    1.086   1_455 S
C185   C188    1.463   .     S
C185   C363    1.337   .     S
C185   N394    1.443   .     S
C186   C187    1.438   .     S
C187   O225    1.283   .     A
C187   O231    1.281   .     A
C188   O226    1.274   .     A
C188   O232    1.268   .     A
C189   C194    1.386   .     A
C189   C726    1.390   .     S
C189   H744    1.083   .     S
C190   C193    1.448   .     S
C190   O221    1.273   .     A
C190   O223    1.266   .     A
C191   O224    1.285   .     A
C191   O222    1.283   .     A
C192   C730    1.398   1_554 S
C192   H735    1.084   1_554 S
C194   H211    1.083   .     S
C195   H212    1.074   .     S
C195   C720    1.390   1_554 S
C195   C727    1.414   1_554 S
C196   C197    1.423   .     A
C196   C726    1.414   .     S
C196   C729    1.428   .     S
C197   C201    1.408   .     A
C198   C727    1.428   1_554 S
C198   C730    1.426   1_554 S
C199   C200    1.391   .     A
C199   C723    1.398   .     S
C199   C729    1.426   .     S
C200   C201    1.382   .     A
C200   H210    1.084   .     S
C201   H214    1.081   .     S
H203   C363    1.086   .     S
H204   C723    1.084   .     S
H205   N218    1.045   .     S
H206   N218    1.045   .     S
H207   N219    1.044   .     S
H208   N219    1.046   .     S
H209   C243    1.086   .     S
H213   C720    1.083   1_554 S
H215   N394    1.044   .     S
H216   N217    1.046   .     S
N219   C301    1.443   1_455 S
O220   Zn236   1.937   .     S
O220   Zn234   1.950   .     S
O220   Zn233   1.968   .     S
O220   Zn235   1.924   .     S
O221   Zn234   1.936   .     S
O222   Zn236   1.951   .     S
O223   Zn235   1.948   .     S
O224   Zn233   1.935   .     S
O225   Zn233   1.927   .     S
O226   Zn236   1.926   .     S
O227   Zn234   1.926   .     S
O228   Zn235   1.941   .     S
O229   Zn236   1.933   .     S
O230   Zn233   1.919   .     S
O231   Zn234   1.937   .     S
O232   Zn235   1.933   .     S
C237   O286    1.274   .     A
C237   O288    1.273   .     A
C237   C243    1.440   .     S
C238   C252    1.403   .     A
C238   C257    1.426   .     A
C238   N277    1.440   .     S
C239   C251    1.383   .     A
C239   H261    1.084   .     S
C239   C252    1.394   .     A
C240   O289    1.282   .     A
C240   O287    1.281   .     A
C240   C242    1.468   .     S
C241   C250    1.471   .     S
C241   C253    1.402   .     A
C241   C256    1.417   .     A
C242   C302    1.341   .     S
C242   N337    1.443   .     S
C244   C247    1.463   .     S
C244   C422    1.337   .     S
C244   N453    1.443   .     S
C245   C246    1.438   .     S
C246   O284    1.283   .     A
C246   O290    1.281   .     A
C247   O285    1.274   .     A
C247   O291    1.268   .     A
C248   C253    1.386   .     A
C248   C785    1.390   .     S
C248   H803    1.083   .     S
C249   C252    1.448   .     S
C249   O280    1.273   .     A
C249   O282    1.266   .     A
C250   O283    1.285   .     A
C250   O281    1.283   .     A
C251   C789    1.398   1_554 S
C251   H794    1.084   1_554 S
C253   H270    1.083   .     S
C254   H271    1.074   .     S
C254   C779    1.390   1_554 S
C254   C786    1.414   1_554 S
C255   C256    1.423   .     A
C255   C785    1.414   .     S
C255   C788    1.428   .     S
C256   C260    1.408   .     A
C257   C786    1.428   1_554 S
C257   C789    1.426   1_554 S
C258   C259    1.391   .     A
C258   C782    1.398   .     S
C258   C788    1.426   .     S
C259   C260    1.382   .     A
C259   H269    1.084   .     S
C260   H273    1.081   .     S
H262   C422    1.086   .     S
H263   C782    1.084   .     S
H264   N277    1.045   .     S
H265   N277    1.045   .     S
H266   N278    1.044   .     S
H267   N278    1.046   .     S
H268   C302    1.086   .     S
H272   C779    1.083   1_554 S
H274   N453    1.044   .     S
H275   N276    1.046   .     S
O279   Zn295   1.937   .     S
O279   Zn293   1.950   .     S
O279   Zn292   1.968   .     S
O279   Zn294   1.924   .     S
O280   Zn293   1.936   .     S
O281   Zn295   1.951   .     S
O282   Zn294   1.948   .     S
O283   Zn292   1.935   .     S
O284   Zn292   1.927   .     S
O285   Zn295   1.926   .     S
O286   Zn293   1.926   .     S
O287   Zn294   1.941   .     S
O288   Zn295   1.933   .     S
O289   Zn292   1.919   .     S
O290   Zn293   1.937   .     S
O291   Zn294   1.933   .     S
C296   O345    1.274   .     A
C296   O347    1.273   .     A
C296   C302    1.440   .     S
C297   C311    1.403   .     A
C297   C316    1.426   .     A
C297   N336    1.440   .     S
C298   C310    1.383   .     A
C298   H320    1.084   .     S
C298   C311    1.394   .     A
C299   O348    1.282   .     A
C299   O346    1.281   .     A
C299   C301    1.468   .     S
C300   C309    1.471   .     S
C300   C312    1.402   .     A
C300   C315    1.417   .     A
C301   C184    1.341   1_655 S
C301   N219    1.443   1_655 S
C303   C306    1.463   .     S
C303   C481    1.337   .     S
C303   N512    1.443   .     S
C304   C305    1.438   .     S
C305   O343    1.283   .     A
C305   O349    1.281   .     A
C306   O344    1.274   .     A
C306   O350    1.268   .     A
C307   C312    1.386   .     A
C307   C844    1.390   .     S
C307   H862    1.083   .     S
C308   C311    1.448   .     S
C308   O339    1.273   .     A
C308   O341    1.266   .     A
C309   O342    1.285   .     A
C309   O340    1.283   .     A
C310   C848    1.398   1_554 S
C310   H853    1.084   1_554 S
C312   H329    1.083   .     S
C313   H330    1.074   .     S
C313   C838    1.390   1_554 S
C313   C845    1.414   1_554 S
C314   C315    1.423   .     A
C314   C844    1.414   .     S
C314   C847    1.428   .     S
C315   C319    1.408   .     A
C316   C845    1.428   1_554 S
C316   C848    1.426   1_554 S
C317   C318    1.391   .     A
C317   C841    1.398   .     S
C317   C847    1.426   .     S
C318   C319    1.382   .     A
C318   H328    1.084   .     S
C319   H332    1.081   .     S
H321   C481    1.086   .     S
H322   C841    1.084   .     S
H323   N336    1.045   .     S
H324   N336    1.045   .     S
H325   N337    1.044   .     S
H326   N337    1.046   .     S
H327   C184    1.086   1_655 S
H331   C838    1.083   1_554 S
H333   N512    1.044   .     S
H334   N335    1.046   .     S
O338   Zn354   1.937   .     S
O338   Zn352   1.950   .     S
O338   Zn351   1.968   .     S
O338   Zn353   1.924   .     S
O339   Zn352   1.936   .     S
O340   Zn354   1.951   .     S
O341   Zn353   1.948   .     S
O342   Zn351   1.935   .     S
O343   Zn351   1.927   .     S
O344   Zn354   1.926   .     S
O345   Zn352   1.926   .     S
O346   Zn353   1.941   .     S
O347   Zn354   1.933   .     S
O348   Zn351   1.919   .     S
O349   Zn352   1.937   .     S
O350   Zn353   1.933   .     S
C355   O404    1.274   .     A
C355   O406    1.273   .     A
C355   C361    1.440   .     S
C356   C370    1.403   .     A
C356   C375    1.426   .     A
C356   N395    1.440   .     S
C357   C369    1.383   .     A
C357   H379    1.084   .     S
C357   C370    1.394   .     A
C358   O407    1.282   .     A
C358   O405    1.281   .     A
C358   C360    1.468   .     S
C359   C368    1.471   .     S
C359   C371    1.402   .     A
C359   C374    1.417   .     A
C360   C420    1.341   .     S
C360   N455    1.443   .     S
C361   C478    1.341   1_455 S
C361   H504    1.086   1_455 S
C362   C365    1.463   .     S
C362   C9      1.337   1_565 S
C362   N40     1.443   1_565 S
C363   C364    1.438   .     S
C364   O402    1.283   .     A
C364   O408    1.281   .     A
C365   O403    1.274   .     A
C365   O409    1.268   .     A
C366   C371    1.386   .     A
C366   C903    1.390   .     S
C366   H921    1.083   .     S
C367   C370    1.448   .     S
C367   O398    1.273   .     A
C367   O400    1.266   .     A
C368   O401    1.285   .     A
C368   O399    1.283   .     A
C369   C907    1.398   1_554 S
C369   H912    1.084   1_554 S
C371   H388    1.083   .     S
C372   H389    1.074   .     S
C372   C897    1.390   1_554 S
C372   C904    1.414   1_554 S
C373   C374    1.423   .     A
C373   C903    1.414   .     S
C373   C906    1.428   .     S
C374   C378    1.408   .     A
C375   C904    1.428   1_554 S
C375   C907    1.426   1_554 S
C376   C377    1.391   .     A
C376   C900    1.398   .     S
C376   C906    1.426   .     S
C377   C378    1.382   .     A
C377   H387    1.084   .     S
C378   H391    1.081   .     S
H380   C9      1.086   1_565 S
H381   C900    1.084   .     S
H382   N395    1.045   .     S
H383   N395    1.045   .     S
H384   N396    1.044   .     S
H385   N396    1.046   .     S
H386   C420    1.086   .     S
H390   C897    1.083   1_554 S
H392   N40     1.044   1_565 S
H393   N394    1.046   .     S
N396   C478    1.443   1_455 S
O397   Zn413   1.937   .     S
O397   Zn411   1.950   .     S
O397   Zn410   1.968   .     S
O397   Zn412   1.924   .     S
O398   Zn411   1.936   .     S
O399   Zn413   1.951   .     S
O400   Zn412   1.948   .     S
O401   Zn410   1.935   .     S
O402   Zn410   1.927   .     S
O403   Zn413   1.926   .     S
O404   Zn411   1.926   .     S
O405   Zn412   1.941   .     S
O406   Zn413   1.933   .     S
O407   Zn410   1.919   .     S
O408   Zn411   1.937   .     S
O409   Zn412   1.933   .     S
C414   O463    1.274   .     A
C414   O465    1.273   .     A
C414   C420    1.440   .     S
C415   C429    1.403   .     A
C415   C434    1.426   .     A
C415   N454    1.440   .     S
C416   C428    1.383   .     A
C416   H438    1.084   .     S
C416   C429    1.394   .     A
C417   O466    1.282   .     A
C417   O464    1.281   .     A
C417   C419    1.468   .     S
C418   C427    1.471   .     S
C418   C430    1.402   .     A
C418   C433    1.417   .     A
C419   C479    1.341   .     S
C419   N514    1.443   .     S
C421   C424    1.463   .     S
C421   C68     1.337   1_565 S
C421   N99     1.443   1_565 S
C422   C423    1.438   .     S
C423   O461    1.283   .     A
C423   O467    1.281   .     A
C424   O462    1.274   .     A
C424   O468    1.268   .     A
C425   C430    1.386   .     A
C425   C962    1.390   .     S
C425   H980    1.083   .     S
C426   C429    1.448   .     S
C426   O457    1.273   .     A
C426   O459    1.266   .     A
C427   O460    1.285   .     A
C427   O458    1.283   .     A
C428   C966    1.398   1_554 S
C428   H971    1.084   1_554 S
C430   H447    1.083   .     S
C431   H448    1.074   .     S
C431   C956    1.390   1_554 S
C431   C963    1.414   1_554 S
C432   C433    1.423   .     A
C432   C962    1.414   .     S
C432   C965    1.428   .     S
C433   C437    1.408   .     A
C434   C963    1.428   1_554 S
C434   C966    1.426   1_554 S
C435   C436    1.391   .     A
C435   C959    1.398   .     S
C435   C965    1.426   .     S
C436   C437    1.382   .     A
C436   H446    1.084   .     S
C437   H450    1.081   .     S
H439   C68     1.086   1_565 S
H440   C959    1.084   .     S
H441   N454    1.045   .     S
H442   N454    1.045   .     S
H443   N455    1.044   .     S
H444   N455    1.046   .     S
H445   C479    1.086   .     S
H449   C956    1.083   1_554 S
H451   N99     1.044   1_565 S
H452   N453    1.046   .     S
O456   Zn472   1.937   .     S
O456   Zn470   1.950   .     S
O456   Zn469   1.968   .     S
O456   Zn471   1.924   .     S
O457   Zn470   1.936   .     S
O458   Zn472   1.951   .     S
O459   Zn471   1.948   .     S
O460   Zn469   1.935   .     S
O461   Zn469   1.927   .     S
O462   Zn472   1.926   .     S
O463   Zn470   1.926   .     S
O464   Zn471   1.941   .     S
O465   Zn472   1.933   .     S
O466   Zn469   1.919   .     S
O467   Zn470   1.937   .     S
O468   Zn471   1.933   .     S
C473   O522    1.274   .     A
C473   O524    1.273   .     A
C473   C479    1.440   .     S
C474   C488    1.403   .     A
C474   C493    1.426   .     A
C474   N513    1.440   .     S
C475   C487    1.383   .     A
C475   H497    1.084   .     S
C475   C488    1.394   .     A
C476   O525    1.282   .     A
C476   O523    1.281   .     A
C476   C478    1.468   .     S
C477   C486    1.471   .     S
C477   C489    1.402   .     A
C477   C492    1.417   .     A
C478   C361    1.341   1_655 S
C478   N396    1.443   1_655 S
C480   C483    1.463   .     S
C480   C127    1.337   1_565 S
C480   N158    1.443   1_565 S
C481   C482    1.438   .     S
C482   O520    1.283   .     A
C482   O526    1.281   .     A
C483   O521    1.274   .     A
C483   O527    1.268   .     A
C484   C489    1.386   .     A
C484   C1021   1.390   .     S
C484   H1039   1.083   .     S
C485   C488    1.448   .     S
C485   O516    1.273   .     A
C485   O518    1.266   .     A
C486   O519    1.285   .     A
C486   O517    1.283   .     A
C487   C1025   1.398   1_554 S
C487   H1030   1.084   1_554 S
C489   H506    1.083   .     S
C490   H507    1.074   .     S
C490   C1015   1.390   1_554 S
C490   C1022   1.414   1_554 S
C491   C492    1.423   .     A
C491   C1021   1.414   .     S
C491   C1024   1.428   .     S
C492   C496    1.408   .     A
C493   C1022   1.428   1_554 S
C493   C1025   1.426   1_554 S
C494   C495    1.391   .     A
C494   C1018   1.398   .     S
C494   C1024   1.426   .     S
C495   C496    1.382   .     A
C495   H505    1.084   .     S
C496   H509    1.081   .     S
H498   C127    1.086   1_565 S
H499   C1018   1.084   .     S
H500   N513    1.045   .     S
H501   N513    1.045   .     S
H502   N514    1.044   .     S
H503   N514    1.046   .     S
H504   C361    1.086   1_655 S
H508   C1015   1.083   1_554 S
H510   N158    1.044   1_565 S
H511   N512    1.046   .     S
O515   Zn531   1.937   .     S
O515   Zn529   1.950   .     S
O515   Zn528   1.968   .     S
O515   Zn530   1.924   .     S
O516   Zn529   1.936   .     S
O517   Zn531   1.951   .     S
O518   Zn530   1.948   .     S
O519   Zn528   1.935   .     S
O520   Zn528   1.927   .     S
O521   Zn531   1.926   .     S
O522   Zn529   1.926   .     S
O523   Zn530   1.941   .     S
O524   Zn531   1.933   .     S
O525   Zn528   1.919   .     S
O526   Zn529   1.937   .     S
O527   Zn530   1.933   .     S
C532   O581    1.274   .     A
C532   O583    1.273   .     A
C532   C538    1.440   .     S
C533   C547    1.403   .     A
C533   C552    1.426   .     A
C533   N572    1.440   .     S
C534   C546    1.383   .     A
C534   H556    1.084   .     S
C534   C547    1.394   .     A
C535   O584    1.282   .     A
C535   O582    1.281   .     A
C535   C537    1.468   .     S
C536   C545    1.471   .     S
C536   C548    1.402   .     A
C536   C551    1.417   .     A
C537   C597    1.341   .     S
C537   N632    1.443   .     S
C538   C655    1.341   1_455 S
C538   H681    1.086   1_455 S
C539   C542    1.463   .     S
C539   C717    1.337   .     S
C539   N748    1.443   .     S
C540   C541    1.438   .     S
C540   C893    1.337   1_545 S
C540   H911    1.086   1_545 S
C541   O579    1.283   .     A
C541   O585    1.281   .     A
C542   O580    1.274   .     A
C542   O586    1.268   .     A
C543   C548    1.386   .     A
C543   C18     1.390   1_556 S
C543   H36     1.083   1_556 S
C544   C547    1.448   .     S
C544   O575    1.273   .     A
C544   O577    1.266   .     A
C545   O578    1.285   .     A
C545   O576    1.283   .     A
C548   H565    1.083   .     S
C549   H566    1.074   .     S
C550   C551    1.423   .     A
C550   C18     1.414   1_556 S
C550   C21     1.428   1_556 S
C551   C555    1.408   .     A
C553   C554    1.391   .     A
C553   C15     1.398   1_556 S
C553   C21     1.426   1_556 S
C554   C555    1.382   .     A
C554   H564    1.084   .     S
C555   H568    1.081   .     S
H557   C717    1.086   .     S
H558   C15     1.084   1_556 S
H559   N572    1.045   .     S
H560   N572    1.045   .     S
H561   N573    1.044   .     S
H562   N573    1.046   .     S
H563   C597    1.086   .     S
H569   N748    1.044   .     S
H570   N571    1.046   .     S
N571   H923    1.044   1_545 S
N571   C893    1.443   1_545 S
N573   C655    1.443   1_455 S
O574   Zn590   1.937   .     S
O574   Zn588   1.950   .     S
O574   Zn587   1.968   .     S
O574   Zn589   1.924   .     S
O575   Zn588   1.936   .     S
O576   Zn590   1.951   .     S
O577   Zn589   1.948   .     S
O578   Zn587   1.935   .     S
O579   Zn587   1.927   .     S
O580   Zn590   1.926   .     S
O581   Zn588   1.926   .     S
O582   Zn589   1.941   .     S
O583   Zn590   1.933   .     S
O584   Zn587   1.919   .     S
O585   Zn588   1.937   .     S
O586   Zn589   1.933   .     S
C591   O640    1.274   .     A
C591   O642    1.273   .     A
C591   C597    1.440   .     S
C592   C606    1.403   .     A
C592   C611    1.426   .     A
C592   N631    1.440   .     S
C593   C605    1.383   .     A
C593   H615    1.084   .     S
C593   C606    1.394   .     A
C594   O643    1.282   .     A
C594   O641    1.281   .     A
C594   C596    1.468   .     S
C595   C604    1.471   .     S
C595   C607    1.402   .     A
C595   C610    1.417   .     A
C596   C656    1.341   .     S
C596   N691    1.443   .     S
C598   C601    1.463   .     S
C598   C776    1.337   .     S
C598   N807    1.443   .     S
C599   C600    1.438   .     S
C599   C952    1.337   1_545 S
C599   H970    1.086   1_545 S
C600   O638    1.283   .     A
C600   O644    1.281   .     A
C601   O639    1.274   .     A
C601   O645    1.268   .     A
C602   C607    1.386   .     A
C602   C77     1.390   1_556 S
C602   H95     1.083   1_556 S
C603   C606    1.448   .     S
C603   O634    1.273   .     A
C603   O636    1.266   .     A
C604   O637    1.285   .     A
C604   O635    1.283   .     A
C607   H624    1.083   .     S
C608   H625    1.074   .     S
C609   C610    1.423   .     A
C609   C77     1.414   1_556 S
C609   C80     1.428   1_556 S
C610   C614    1.408   .     A
C612   C613    1.391   .     A
C612   C74     1.398   1_556 S
C612   C80     1.426   1_556 S
C613   C614    1.382   .     A
C613   H623    1.084   .     S
C614   H627    1.081   .     S
H616   C776    1.086   .     S
H617   C74     1.084   1_556 S
H618   N631    1.045   .     S
H619   N631    1.045   .     S
H620   N632    1.044   .     S
H621   N632    1.046   .     S
H622   C656    1.086   .     S
H628   N807    1.044   .     S
H629   N630    1.046   .     S
N630   H982    1.044   1_545 S
N630   C952    1.443   1_545 S
O633   Zn649   1.937   .     S
O633   Zn647   1.950   .     S
O633   Zn646   1.968   .     S
O633   Zn648   1.924   .     S
O634   Zn647   1.936   .     S
O635   Zn649   1.951   .     S
O636   Zn648   1.948   .     S
O637   Zn646   1.935   .     S
O638   Zn646   1.927   .     S
O639   Zn649   1.926   .     S
O640   Zn647   1.926   .     S
O641   Zn648   1.941   .     S
O642   Zn649   1.933   .     S
O643   Zn646   1.919   .     S
O644   Zn647   1.937   .     S
O645   Zn648   1.933   .     S
C650   O699    1.274   .     A
C650   O701    1.273   .     A
C650   C656    1.440   .     S
C651   C665    1.403   .     A
C651   C670    1.426   .     A
C651   N690    1.440   .     S
C652   C664    1.383   .     A
C652   H674    1.084   .     S
C652   C665    1.394   .     A
C653   O702    1.282   .     A
C653   O700    1.281   .     A
C653   C655    1.468   .     S
C654   C663    1.471   .     S
C654   C666    1.402   .     A
C654   C669    1.417   .     A
C655   C538    1.341   1_655 S
C655   N573    1.443   1_655 S
C657   C660    1.463   .     S
C657   C835    1.337   .     S
C657   N866    1.443   .     S
C658   C659    1.438   .     S
C658   C1011   1.337   1_545 S
C658   H1029   1.086   1_545 S
C659   O697    1.283   .     A
C659   O703    1.281   .     A
C660   O698    1.274   .     A
C660   O704    1.268   .     A
C661   C666    1.386   .     A
C661   C136    1.390   1_556 S
C661   H154    1.083   1_556 S
C662   C665    1.448   .     S
C662   O693    1.273   .     A
C662   O695    1.266   .     A
C663   O696    1.285   .     A
C663   O694    1.283   .     A
C666   H683    1.083   .     S
C667   H684    1.074   .     S
C668   C669    1.423   .     A
C668   C136    1.414   1_556 S
C668   C139    1.428   1_556 S
C669   C673    1.408   .     A
C671   C672    1.391   .     A
C671   C133    1.398   1_556 S
C671   C139    1.426   1_556 S
C672   C673    1.382   .     A
C672   H682    1.084   .     S
C673   H686    1.081   .     S
H675   C835    1.086   .     S
H676   C133    1.084   1_556 S
H677   N690    1.045   .     S
H678   N690    1.045   .     S
H679   N691    1.044   .     S
H680   N691    1.046   .     S
H681   C538    1.086   1_655 S
H687   N866    1.044   .     S
H688   N689    1.046   .     S
N689   H1041   1.044   1_545 S
N689   C1011   1.443   1_545 S
O692   Zn708   1.937   .     S
O692   Zn706   1.950   .     S
O692   Zn705   1.968   .     S
O692   Zn707   1.924   .     S
O693   Zn706   1.936   .     S
O694   Zn708   1.951   .     S
O695   Zn707   1.948   .     S
O696   Zn705   1.935   .     S
O697   Zn705   1.927   .     S
O698   Zn708   1.926   .     S
O699   Zn706   1.926   .     S
O700   Zn707   1.941   .     S
O701   Zn708   1.933   .     S
O702   Zn705   1.919   .     S
O703   Zn706   1.937   .     S
O704   Zn707   1.933   .     S
C709   O758    1.274   .     A
C709   O760    1.273   .     A
C709   C715    1.440   .     S
C710   C724    1.403   .     A
C710   C729    1.426   .     A
C710   N749    1.440   .     S
C711   C723    1.383   .     A
C711   H733    1.084   .     S
C711   C724    1.394   .     A
C712   O761    1.282   .     A
C712   O759    1.281   .     A
C712   C714    1.468   .     S
C713   C722    1.471   .     S
C713   C725    1.402   .     A
C713   C728    1.417   .     A
C714   C774    1.341   .     S
C714   N809    1.443   .     S
C715   C832    1.341   1_455 S
C715   H858    1.086   1_455 S
C716   C719    1.463   .     S
C716   C894    1.337   .     S
C716   N925    1.443   .     S
C717   C718    1.438   .     S
C718   O756    1.283   .     A
C718   O762    1.281   .     A
C719   O757    1.274   .     A
C719   O763    1.268   .     A
C720   C725    1.386   .     A
C720   C195    1.390   1_556 S
C720   H213    1.083   1_556 S
C721   C724    1.448   .     S
C721   O752    1.273   .     A
C721   O754    1.266   .     A
C722   O755    1.285   .     A
C722   O753    1.283   .     A
C725   H742    1.083   .     S
C726   H743    1.074   .     S
C727   C728    1.423   .     A
C727   C195    1.414   1_556 S
C727   C198    1.428   1_556 S
C728   C732    1.408   .     A
C730   C731    1.391   .     A
C730   C192    1.398   1_556 S
C730   C198    1.426   1_556 S
C731   C732    1.382   .     A
C731   H741    1.084   .     S
C732   H745    1.081   .     S
H734   C894    1.086   .     S
H735   C192    1.084   1_556 S
H736   N749    1.045   .     S
H737   N749    1.045   .     S
H738   N750    1.044   .     S
H739   N750    1.046   .     S
H740   C774    1.086   .     S
H746   N925    1.044   .     S
H747   N748    1.046   .     S
N750   C832    1.443   1_455 S
O751   Zn767   1.937   .     S
O751   Zn765   1.950   .     S
O751   Zn764   1.968   .     S
O751   Zn766   1.924   .     S
O752   Zn765   1.936   .     S
O753   Zn767   1.951   .     S
O754   Zn766   1.948   .     S
O755   Zn764   1.935   .     S
O756   Zn764   1.927   .     S
O757   Zn767   1.926   .     S
O758   Zn765   1.926   .     S
O759   Zn766   1.941   .     S
O760   Zn767   1.933   .     S
O761   Zn764   1.919   .     S
O762   Zn765   1.937   .     S
O763   Zn766   1.933   .     S
C768   O817    1.274   .     A
C768   O819    1.273   .     A
C768   C774    1.440   .     S
C769   C783    1.403   .     A
C769   C788    1.426   .     A
C769   N808    1.440   .     S
C770   C782    1.383   .     A
C770   H792    1.084   .     S
C770   C783    1.394   .     A
C771   O820    1.282   .     A
C771   O818    1.281   .     A
C771   C773    1.468   .     S
C772   C781    1.471   .     S
C772   C784    1.402   .     A
C772   C787    1.417   .     A
C773   C833    1.341   .     S
C773   N868    1.443   .     S
C775   C778    1.463   .     S
C775   C953    1.337   .     S
C775   N984    1.443   .     S
C776   C777    1.438   .     S
C777   O815    1.283   .     A
C777   O821    1.281   .     A
C778   O816    1.274   .     A
C778   O822    1.268   .     A
C779   C784    1.386   .     A
C779   C254    1.390   1_556 S
C779   H272    1.083   1_556 S
C780   C783    1.448   .     S
C780   O811    1.273   .     A
C780   O813    1.266   .     A
C781   O814    1.285   .     A
C781   O812    1.283   .     A
C784   H801    1.083   .     S
C785   H802    1.074   .     S
C786   C787    1.423   .     A
C786   C254    1.414   1_556 S
C786   C257    1.428   1_556 S
C787   C791    1.408   .     A
C789   C790    1.391   .     A
C789   C251    1.398   1_556 S
C789   C257    1.426   1_556 S
C790   C791    1.382   .     A
C790   H800    1.084   .     S
C791   H804    1.081   .     S
H793   C953    1.086   .     S
H794   C251    1.084   1_556 S
H795   N808    1.045   .     S
H796   N808    1.045   .     S
H797   N809    1.044   .     S
H798   N809    1.046   .     S
H799   C833    1.086   .     S
H805   N984    1.044   .     S
H806   N807    1.046   .     S
O810   Zn826   1.937   .     S
O810   Zn824   1.950   .     S
O810   Zn823   1.968   .     S
O810   Zn825   1.924   .     S
O811   Zn824   1.936   .     S
O812   Zn826   1.951   .     S
O813   Zn825   1.948   .     S
O814   Zn823   1.935   .     S
O815   Zn823   1.927   .     S
O816   Zn826   1.926   .     S
O817   Zn824   1.926   .     S
O818   Zn825   1.941   .     S
O819   Zn826   1.933   .     S
O820   Zn823   1.919   .     S
O821   Zn824   1.937   .     S
O822   Zn825   1.933   .     S
C827   O876    1.274   .     A
C827   O878    1.273   .     A
C827   C833    1.440   .     S
C828   C842    1.403   .     A
C828   C847    1.426   .     A
C828   N867    1.440   .     S
C829   C841    1.383   .     A
C829   H851    1.084   .     S
C829   C842    1.394   .     A
C830   O879    1.282   .     A
C830   O877    1.281   .     A
C830   C832    1.468   .     S
C831   C840    1.471   .     S
C831   C843    1.402   .     A
C831   C846    1.417   .     A
C832   C715    1.341   1_655 S
C832   N750    1.443   1_655 S
C834   C837    1.463   .     S
C834   C1012   1.337   .     S
C834   N1043   1.443   .     S
C835   C836    1.438   .     S
C836   O874    1.283   .     A
C836   O880    1.281   .     A
C837   O875    1.274   .     A
C837   O881    1.268   .     A
C838   C843    1.386   .     A
C838   C313    1.390   1_556 S
C838   H331    1.083   1_556 S
C839   C842    1.448   .     S
C839   O870    1.273   .     A
C839   O872    1.266   .     A
C840   O873    1.285   .     A
C840   O871    1.283   .     A
C843   H860    1.083   .     S
C844   H861    1.074   .     S
C845   C846    1.423   .     A
C845   C313    1.414   1_556 S
C845   C316    1.428   1_556 S
C846   C850    1.408   .     A
C848   C849    1.391   .     A
C848   C310    1.398   1_556 S
C848   C316    1.426   1_556 S
C849   C850    1.382   .     A
C849   H859    1.084   .     S
C850   H863    1.081   .     S
H852   C1012   1.086   .     S
H853   C310    1.084   1_556 S
H854   N867    1.045   .     S
H855   N867    1.045   .     S
H856   N868    1.044   .     S
H857   N868    1.046   .     S
H858   C715    1.086   1_655 S
H864   N1043   1.044   .     S
H865   N866    1.046   .     S
O869   Zn885   1.937   .     S
O869   Zn883   1.950   .     S
O869   Zn882   1.968   .     S
O869   Zn884   1.924   .     S
O870   Zn883   1.936   .     S
O871   Zn885   1.951   .     S
O872   Zn884   1.948   .     S
O873   Zn882   1.935   .     S
O874   Zn882   1.927   .     S
O875   Zn885   1.926   .     S
O876   Zn883   1.926   .     S
O877   Zn884   1.941   .     S
O878   Zn885   1.933   .     S
O879   Zn882   1.919   .     S
O880   Zn883   1.937   .     S
O881   Zn884   1.933   .     S
C886   O935    1.274   .     A
C886   O937    1.273   .     A
C886   C892    1.440   .     S
C887   C901    1.403   .     A
C887   C906    1.426   .     A
C887   N926    1.440   .     S
C888   C900    1.383   .     A
C888   H910    1.084   .     S
C888   C901    1.394   .     A
C889   O938    1.282   .     A
C889   O936    1.281   .     A
C889   C891    1.468   .     S
C890   C899    1.471   .     S
C890   C902    1.402   .     A
C890   C905    1.417   .     A
C891   C951    1.341   .     S
C891   N986    1.443   .     S
C892   C1009   1.341   1_455 S
C892   H1035   1.086   1_455 S
C893   C896    1.463   .     S
C893   C540    1.337   1_565 S
C893   N571    1.443   1_565 S
C894   C895    1.438   .     S
C895   O933    1.283   .     A
C895   O939    1.281   .     A
C896   O934    1.274   .     A
C896   O940    1.268   .     A
C897   C902    1.386   .     A
C897   C372    1.390   1_556 S
C897   H390    1.083   1_556 S
C898   C901    1.448   .     S
C898   O929    1.273   .     A
C898   O931    1.266   .     A
C899   O932    1.285   .     A
C899   O930    1.283   .     A
C902   H919    1.083   .     S
C903   H920    1.074   .     S
C904   C905    1.423   .     A
C904   C372    1.414   1_556 S
C904   C375    1.428   1_556 S
C905   C909    1.408   .     A
C907   C908    1.391   .     A
C907   C369    1.398   1_556 S
C907   C375    1.426   1_556 S
C908   C909    1.382   .     A
C908   H918    1.084   .     S
C909   H922    1.081   .     S
H911   C540    1.086   1_565 S
H912   C369    1.084   1_556 S
H913   N926    1.045   .     S
H914   N926    1.045   .     S
H915   N927    1.044   .     S
H916   N927    1.046   .     S
H917   C951    1.086   .     S
H923   N571    1.044   1_565 S
H924   N925    1.046   .     S
N927   C1009   1.443   1_455 S
O928   Zn944   1.937   .     S
O928   Zn942   1.950   .     S
O928   Zn941   1.968   .     S
O928   Zn943   1.924   .     S
O929   Zn942   1.936   .     S
O930   Zn944   1.951   .     S
O931   Zn943   1.948   .     S
O932   Zn941   1.935   .     S
O933   Zn941   1.927   .     S
O934   Zn944   1.926   .     S
O935   Zn942   1.926   .     S
O936   Zn943   1.941   .     S
O937   Zn944   1.933   .     S
O938   Zn941   1.919   .     S
O939   Zn942   1.937   .     S
O940   Zn943   1.933   .     S
C945   O994    1.274   .     A
C945   O996    1.273   .     A
C945   C951    1.440   .     S
C946   C960    1.403   .     A
C946   C965    1.426   .     A
C946   N985    1.440   .     S
C947   C959    1.383   .     A
C947   H969    1.084   .     S
C947   C960    1.394   .     A
C948   O997    1.282   .     A
C948   O995    1.281   .     A
C948   C950    1.468   .     S
C949   C958    1.471   .     S
C949   C961    1.402   .     A
C949   C964    1.417   .     A
C950   C1010   1.341   .     S
C950   N1045   1.443   .     S
C952   C955    1.463   .     S
C952   C599    1.337   1_565 S
C952   N630    1.443   1_565 S
C953   C954    1.438   .     S
C954   O992    1.283   .     A
C954   O998    1.281   .     A
C955   O993    1.274   .     A
C955   O999    1.268   .     A
C956   C961    1.386   .     A
C956   C431    1.390   1_556 S
C956   H449    1.083   1_556 S
C957   C960    1.448   .     S
C957   O988    1.273   .     A
C957   O990    1.266   .     A
C958   O991    1.285   .     A
C958   O989    1.283   .     A
C961   H978    1.083   .     S
C962   H979    1.074   .     S
C963   C964    1.423   .     A
C963   C431    1.414   1_556 S
C963   C434    1.428   1_556 S
C964   C968    1.408   .     A
C966   C967    1.391   .     A
C966   C428    1.398   1_556 S
C966   C434    1.426   1_556 S
C967   C968    1.382   .     A
C967   H977    1.084   .     S
C968   H981    1.081   .     S
H970   C599    1.086   1_565 S
H971   C428    1.084   1_556 S
H972   N985    1.045   .     S
H973   N985    1.045   .     S
H974   N986    1.044   .     S
H975   N986    1.046   .     S
H976   C1010   1.086   .     S
H982   N630    1.044   1_565 S
H983   N984    1.046   .     S
O987   Zn1003  1.937   .     S
O987   Zn1001  1.950   .     S
O987   Zn1000  1.968   .     S
O987   Zn1002  1.924   .     S
O988   Zn1001  1.936   .     S
O989   Zn1003  1.951   .     S
O990   Zn1002  1.948   .     S
O991   Zn1000  1.935   .     S
O992   Zn1000  1.927   .     S
O993   Zn1003  1.926   .     S
O994   Zn1001  1.926   .     S
O995   Zn1002  1.941   .     S
O996   Zn1003  1.933   .     S
O997   Zn1000  1.919   .     S
O998   Zn1001  1.937   .     S
O999   Zn1002  1.933   .     S
C1004  O1053   1.274   .     A
C1004  O1055   1.273   .     A
C1004  C1010   1.440   .     S
C1005  C1019   1.403   .     A
C1005  C1024   1.426   .     A
C1005  N1044   1.440   .     S
C1006  C1018   1.383   .     A
C1006  H1028   1.084   .     S
C1006  C1019   1.394   .     A
C1007  O1056   1.282   .     A
C1007  O1054   1.281   .     A
C1007  C1009   1.468   .     S
C1008  C1017   1.471   .     S
C1008  C1020   1.402   .     A
C1008  C1023   1.417   .     A
C1009  C892    1.341   1_655 S
C1009  N927    1.443   1_655 S
C1011  C1014   1.463   .     S
C1011  C658    1.337   1_565 S
C1011  N689    1.443   1_565 S
C1012  C1013   1.438   .     S
C1013  O1051   1.283   .     A
C1013  O1057   1.281   .     A
C1014  O1052   1.274   .     A
C1014  O1058   1.268   .     A
C1015  C1020   1.386   .     A
C1015  C490    1.390   1_556 S
C1015  H508    1.083   1_556 S
C1016  C1019   1.448   .     S
C1016  O1047   1.273   .     A
C1016  O1049   1.266   .     A
C1017  O1050   1.285   .     A
C1017  O1048   1.283   .     A
C1020  H1037   1.083   .     S
C1021  H1038   1.074   .     S
C1022  C1023   1.423   .     A
C1022  C490    1.414   1_556 S
C1022  C493    1.428   1_556 S
C1023  C1027   1.408   .     A
C1025  C1026   1.391   .     A
C1025  C487    1.398   1_556 S
C1025  C493    1.426   1_556 S
C1026  C1027   1.382   .     A
C1026  H1036   1.084   .     S
C1027  H1040   1.081   .     S
H1029  C658    1.086   1_565 S
H1030  C487    1.084   1_556 S
H1031  N1044   1.045   .     S
H1032  N1044   1.045   .     S
H1033  N1045   1.044   .     S
H1034  N1045   1.046   .     S
H1035  C892    1.086   1_655 S
H1041  N689    1.044   1_565 S
H1042  N1043   1.046   .     S
O1046  Zn1062  1.937   .     S
O1046  Zn1060  1.950   .     S
O1046  Zn1059  1.968   .     S
O1046  Zn1061  1.924   .     S
O1047  Zn1060  1.936   .     S
O1048  Zn1062  1.951   .     S
O1049  Zn1061  1.948   .     S
O1050  Zn1059  1.935   .     S
O1051  Zn1059  1.927   .     S
O1052  Zn1062  1.926   .     S
O1053  Zn1060  1.926   .     S
O1054  Zn1061  1.941   .     S
O1055  Zn1062  1.933   .     S
O1056  Zn1059  1.919   .     S
O1057  Zn1060  1.937   .     S
O1058  Zn1061  1.933   .     S
