data_str_m3_o1_o2_pcu_sym.116
_audit_creation_date              2020-01-03
_audit_creation_method            'Materials Studio'
_symmetry_space_group_name_H-M    'P1'
_symmetry_Int_Tables_number       1
_symmetry_cell_setting            triclinic
loop_
_symmetry_equiv_pos_as_xyz
  x,y,z
_cell_length_a                    31.8182
_cell_length_b                    30.2373
_cell_length_c                    29.9903
_cell_angle_alpha                 92.5836
_cell_angle_beta                  92.9158
_cell_angle_gamma                 87.9795
loop_
_atom_site_label
_atom_site_type_symbol
_atom_site_fract_x
_atom_site_fract_y
_atom_site_fract_z
_atom_site_U_iso_or_equiv
_atom_site_adp_type
_atom_site_occupancy
O1     O     0.10559   0.20487   0.24999   0.00000  Uiso   1.00
O2     O     0.22774   0.12846   0.25001   0.00000  Uiso   1.00
O3     O     0.22774   0.20487   0.25001   0.00000  Uiso   1.00
O4     O     0.10559   0.12846   0.24999   0.00000  Uiso   1.00
N5     N     0.16667   0.28573   0.25000   0.00000  Uiso   1.00
N6     N     0.16667   0.04760   0.25000   0.00000  Uiso   1.00
C7     C     0.08694   0.16738   0.24822   0.00000  Uiso   1.00
C8     C     0.24629   0.16604   0.25074   0.00000  Uiso   1.00
O9     O     0.16666   0.20489   0.18453   0.00000  Uiso   1.00
O10    O     0.16667   0.12845   0.31547   0.00000  Uiso   1.00
O11    O     0.16667   0.20489   0.31547   0.00000  Uiso   1.00
O12    O     0.16666   0.12845   0.18453   0.00000  Uiso   1.00
C13    C     0.16735   0.16596   0.16407   0.00000  Uiso   1.00
C14    C     0.16679   0.16740   0.33580   0.00000  Uiso   1.00
Zn15   Zn    0.16667   0.21771   0.25000   0.00000  Uiso   1.00
Zn16   Zn    0.16667   0.11563   0.25000   0.00000  Uiso   1.00
C17    C     0.19442   0.02414   0.27778   0.00000  Uiso   1.00
C18    C     0.13863   0.30945   0.22337   0.00000  Uiso   1.00
C19    C     0.14279   0.02260   0.21908   0.00000  Uiso   1.00
C20    C     0.19303   0.30983   0.27925   0.00000  Uiso   1.00
C21    C     0.01880   0.16354   0.20679   0.00000  Uiso   1.00
C22    C     0.31388   0.17440   0.29020   0.00000  Uiso   1.00
C23    C     0.30875   0.15994   0.20876   0.00000  Uiso   1.00
C24    C     0.02384   0.17601   0.28879   0.00000  Uiso   1.00
C25    C     0.18203   0.20484   0.04996   0.00000  Uiso   1.00
C26    C     0.19317   0.13380   0.45156   0.00000  Uiso   1.00
C27    C     0.15025   0.20198   0.45434   0.00000  Uiso   1.00
C28    C     0.16323   0.12754   0.04384   0.00000  Uiso   1.00
H29    H     0.19014   0.23504   0.03473   0.00000  Uiso   1.00
H30    H     0.21070   0.10736   0.46816   0.00000  Uiso   1.00
H31    H     0.13364   0.22795   0.47311   0.00000  Uiso   1.00
H32    H     0.15577   0.09788   0.02377   0.00000  Uiso   1.00
C33    C     0.18039   0.20431   0.09581   0.00000  Uiso   1.00
C34    C     0.19116   0.13392   0.40552   0.00000  Uiso   1.00
C35    C     0.14840   0.20216   0.40822   0.00000  Uiso   1.00
C36    C     0.16178   0.12697   0.08976   0.00000  Uiso   1.00
H37    H     0.18738   0.23441   0.11535   0.00000  Uiso   1.00
H38    H     0.20719   0.10741   0.38692   0.00000  Uiso   1.00
H39    H     0.13042   0.22822   0.39183   0.00000  Uiso   1.00
H40    H     0.15349   0.09684   0.10423   0.00000  Uiso   1.00
C41    C     0.16990   0.16540   0.11596   0.00000  Uiso   1.00
C42    C     0.16892   0.16822   0.38383   0.00000  Uiso   1.00
C43    C     0.17306   0.16657   0.02398   0.00000  Uiso   1.00
C44    C     0.17256   0.16772   0.47595   0.00000  Uiso   1.00
C45    C     0.29054   0.16468   0.25032   0.00000  Uiso   1.00
C46    C     0.04247   0.16961   0.24756   0.00000  Uiso   1.00
C47    C     0.23184   0.04698   0.30106   0.00000  Uiso   1.00
C48    C     0.27132   0.03917   0.27361   0.00000  Uiso   1.00
C49    C     0.31125   0.05251   0.30042   0.00000  Uiso   1.00
H50    H     0.30798   0.08704   0.31400   0.00000  Uiso   1.00
H51    H     0.31762   0.03016   0.32855   0.00000  Uiso   1.00
H52    H     0.00507   0.05002   0.27850   0.00000  Uiso   1.00
H53    H     0.27509   0.00372   0.26285   0.00000  Uiso   1.00
H54    H     0.26812   0.05800   0.24267   0.00000  Uiso   1.00
H55    H     0.22563   0.08233   0.30723   0.00000  Uiso   1.00
H56    H     0.23840   0.03560   0.33530   0.00000  Uiso   1.00
C57    C     0.09943   0.28828   0.20264   0.00000  Uiso   1.00
C58    C     0.06270   0.29597   0.23390   0.00000  Uiso   1.00
C59    C     0.02048   0.28533   0.21017   0.00000  Uiso   1.00
H60    H     0.01175   0.31051   0.18517   0.00000  Uiso   1.00
H61    H     0.02202   0.25226   0.19287   0.00000  Uiso   1.00
H62    H     0.32905   0.28554   0.23493   0.00000  Uiso   1.00
H63    H     0.06773   0.27562   0.26364   0.00000  Uiso   1.00
H64    H     0.06103   0.33110   0.24639   0.00000  Uiso   1.00
H65    H     0.08974   0.30157   0.16994   0.00000  Uiso   1.00
H66    H     0.10540   0.25319   0.19418   0.00000  Uiso   1.00
C67    C     0.13311   0.03865   0.17269   0.00000  Uiso   1.00
C68    C     0.08931   0.06125   0.16654   0.00000  Uiso   1.00
C69    C     0.06864   0.05020   0.12032   0.00000  Uiso   1.00
H70    H     0.08495   0.06665   0.09408   0.00000  Uiso   1.00
H71    H     0.06925   0.01397   0.11261   0.00000  Uiso   1.00
H72    H     0.03513   0.06156   0.11933   0.00000  Uiso   1.00
H73    H     0.06808   0.05104   0.19219   0.00000  Uiso   1.00
H74    H     0.09242   0.09746   0.17055   0.00000  Uiso   1.00
H75    H     0.15900   0.05836   0.16330   0.00000  Uiso   1.00
H76    H     0.13672   0.01060   0.14775   0.00000  Uiso   1.00
C77    C     0.21794   0.28709   0.31678   0.00000  Uiso   1.00
C78    C     0.19685   0.29607   0.36145   0.00000  Uiso   1.00
C79    C     0.22348   0.27697   0.40019   0.00000  Uiso   1.00
H80    H     0.22897   0.24076   0.39441   0.00000  Uiso   1.00
H81    H     0.25429   0.29325   0.40388   0.00000  Uiso   1.00
H82    H     0.20688   0.28286   0.43170   0.00000  Uiso   1.00
H83    H     0.19144   0.33205   0.36875   0.00000  Uiso   1.00
H84    H     0.16543   0.28130   0.35934   0.00000  Uiso   1.00
H85    H     0.22104   0.25148   0.31059   0.00000  Uiso   1.00
H86    H     0.25108   0.29735   0.31945   0.00000  Uiso   1.00
N87    N     0.03821   0.16284   0.16411   0.00000  Uiso   1.00
O88    O     0.07138   0.18559   0.15894   0.00000  Uiso   1.00
O89    O     0.02094   0.14268   0.12898   0.00000  Uiso   1.00
N90    N     0.29370   0.18404   0.33158   0.00000  Uiso   1.00
O91    O     0.30472   0.21795   0.35723   0.00000  Uiso   1.00
O92    O     0.26514   0.15835   0.34442   0.00000  Uiso   1.00
N93    N     0.28245   0.15522   0.16865   0.00000  Uiso   1.00
O94    O     0.26302   0.11857   0.15930   0.00000  Uiso   1.00
O95    O     0.27637   0.18835   0.14261   0.00000  Uiso   1.00
N96    N     0.04907   0.18376   0.32919   0.00000  Uiso   1.00
O97    O     0.04787   0.15697   0.36183   0.00000  Uiso   1.00
O98    O     0.06888   0.22057   0.33545   0.00000  Uiso   1.00
O99    O     0.43892   0.20487   0.24999   0.00000  Uiso   1.00
O100   O     0.56108   0.12846   0.25001   0.00000  Uiso   1.00
O101   O     0.56108   0.20487   0.25001   0.00000  Uiso   1.00
O102   O     0.43892   0.12846   0.24999   0.00000  Uiso   1.00
N103   N     0.50000   0.28573   0.25000   0.00000  Uiso   1.00
N104   N     0.50000   0.04760   0.25000   0.00000  Uiso   1.00
C105   C     0.42027   0.16738   0.24822   0.00000  Uiso   1.00
C106   C     0.57962   0.16604   0.25074   0.00000  Uiso   1.00
O107   O     0.50000   0.20489   0.18453   0.00000  Uiso   1.00
O108   O     0.50000   0.12845   0.31547   0.00000  Uiso   1.00
O109   O     0.50000   0.20489   0.31547   0.00000  Uiso   1.00
O110   O     0.50000   0.12845   0.18453   0.00000  Uiso   1.00
C111   C     0.50068   0.16596   0.16407   0.00000  Uiso   1.00
C112   C     0.50013   0.16740   0.33580   0.00000  Uiso   1.00
Zn113  Zn    0.50000   0.21771   0.25000   0.00000  Uiso   1.00
Zn114  Zn    0.50000   0.11563   0.25000   0.00000  Uiso   1.00
C115   C     0.52775   0.02414   0.27778   0.00000  Uiso   1.00
C116   C     0.47196   0.30945   0.22337   0.00000  Uiso   1.00
C117   C     0.47613   0.02260   0.21908   0.00000  Uiso   1.00
C118   C     0.52636   0.30983   0.27925   0.00000  Uiso   1.00
C119   C     0.35214   0.16354   0.20679   0.00000  Uiso   1.00
C120   C     0.64721   0.17440   0.29020   0.00000  Uiso   1.00
C121   C     0.64208   0.15994   0.20876   0.00000  Uiso   1.00
C122   C     0.35717   0.17601   0.28879   0.00000  Uiso   1.00
C123   C     0.51536   0.20484   0.04996   0.00000  Uiso   1.00
C124   C     0.52651   0.13380   0.45156   0.00000  Uiso   1.00
C125   C     0.48359   0.20198   0.45434   0.00000  Uiso   1.00
C126   C     0.49656   0.12754   0.04384   0.00000  Uiso   1.00
H127   H     0.52347   0.23504   0.03473   0.00000  Uiso   1.00
H128   H     0.54404   0.10736   0.46816   0.00000  Uiso   1.00
H129   H     0.46697   0.22795   0.47311   0.00000  Uiso   1.00
H130   H     0.48910   0.09788   0.02377   0.00000  Uiso   1.00
C131   C     0.51372   0.20431   0.09581   0.00000  Uiso   1.00
C132   C     0.52449   0.13392   0.40552   0.00000  Uiso   1.00
C133   C     0.48173   0.20216   0.40822   0.00000  Uiso   1.00
C134   C     0.49511   0.12697   0.08976   0.00000  Uiso   1.00
H135   H     0.52071   0.23441   0.11535   0.00000  Uiso   1.00
H136   H     0.54052   0.10741   0.38692   0.00000  Uiso   1.00
H137   H     0.46375   0.22822   0.39183   0.00000  Uiso   1.00
H138   H     0.48682   0.09684   0.10423   0.00000  Uiso   1.00
C139   C     0.50323   0.16540   0.11596   0.00000  Uiso   1.00
C140   C     0.50226   0.16822   0.38383   0.00000  Uiso   1.00
C141   C     0.50639   0.16657   0.02398   0.00000  Uiso   1.00
C142   C     0.50590   0.16772   0.47595   0.00000  Uiso   1.00
C143   C     0.62388   0.16468   0.25032   0.00000  Uiso   1.00
C144   C     0.37580   0.16961   0.24756   0.00000  Uiso   1.00
C145   C     0.56517   0.04698   0.30106   0.00000  Uiso   1.00
C146   C     0.60465   0.03917   0.27361   0.00000  Uiso   1.00
C147   C     0.64459   0.05251   0.30042   0.00000  Uiso   1.00
H148   H     0.64131   0.08704   0.31400   0.00000  Uiso   1.00
H149   H     0.65096   0.03016   0.32855   0.00000  Uiso   1.00
H150   H     0.33840   0.05002   0.27850   0.00000  Uiso   1.00
H151   H     0.60842   0.00372   0.26285   0.00000  Uiso   1.00
H152   H     0.60146   0.05800   0.24267   0.00000  Uiso   1.00
H153   H     0.55897   0.08233   0.30723   0.00000  Uiso   1.00
H154   H     0.57174   0.03560   0.33530   0.00000  Uiso   1.00
C155   C     0.43276   0.28828   0.20264   0.00000  Uiso   1.00
C156   C     0.39603   0.29597   0.23390   0.00000  Uiso   1.00
C157   C     0.35381   0.28533   0.21017   0.00000  Uiso   1.00
H158   H     0.34508   0.31051   0.18517   0.00000  Uiso   1.00
H159   H     0.35535   0.25226   0.19287   0.00000  Uiso   1.00
H160   H     0.66238   0.28554   0.23493   0.00000  Uiso   1.00
H161   H     0.40107   0.27562   0.26364   0.00000  Uiso   1.00
H162   H     0.39436   0.33110   0.24639   0.00000  Uiso   1.00
H163   H     0.42307   0.30157   0.16994   0.00000  Uiso   1.00
H164   H     0.43873   0.25319   0.19418   0.00000  Uiso   1.00
C165   C     0.46644   0.03865   0.17269   0.00000  Uiso   1.00
C166   C     0.42264   0.06125   0.16654   0.00000  Uiso   1.00
C167   C     0.40197   0.05020   0.12032   0.00000  Uiso   1.00
H168   H     0.41829   0.06665   0.09408   0.00000  Uiso   1.00
H169   H     0.40258   0.01397   0.11261   0.00000  Uiso   1.00
H170   H     0.36846   0.06156   0.11933   0.00000  Uiso   1.00
H171   H     0.40141   0.05104   0.19219   0.00000  Uiso   1.00
H172   H     0.42576   0.09746   0.17055   0.00000  Uiso   1.00
H173   H     0.49233   0.05836   0.16330   0.00000  Uiso   1.00
H174   H     0.47006   0.01060   0.14775   0.00000  Uiso   1.00
C175   C     0.55128   0.28709   0.31678   0.00000  Uiso   1.00
C176   C     0.53018   0.29607   0.36145   0.00000  Uiso   1.00
C177   C     0.55682   0.27697   0.40019   0.00000  Uiso   1.00
H178   H     0.56230   0.24076   0.39441   0.00000  Uiso   1.00
H179   H     0.58763   0.29325   0.40388   0.00000  Uiso   1.00
H180   H     0.54021   0.28286   0.43170   0.00000  Uiso   1.00
H181   H     0.52477   0.33205   0.36875   0.00000  Uiso   1.00
H182   H     0.49876   0.28130   0.35934   0.00000  Uiso   1.00
H183   H     0.55437   0.25148   0.31059   0.00000  Uiso   1.00
H184   H     0.58442   0.29735   0.31945   0.00000  Uiso   1.00
N185   N     0.37154   0.16284   0.16411   0.00000  Uiso   1.00
O186   O     0.40471   0.18559   0.15894   0.00000  Uiso   1.00
O187   O     0.35427   0.14268   0.12898   0.00000  Uiso   1.00
N188   N     0.62703   0.18404   0.33158   0.00000  Uiso   1.00
O189   O     0.63805   0.21795   0.35723   0.00000  Uiso   1.00
O190   O     0.59848   0.15835   0.34442   0.00000  Uiso   1.00
N191   N     0.61579   0.15522   0.16865   0.00000  Uiso   1.00
O192   O     0.59635   0.11857   0.15930   0.00000  Uiso   1.00
O193   O     0.60970   0.18835   0.14261   0.00000  Uiso   1.00
N194   N     0.38241   0.18376   0.32919   0.00000  Uiso   1.00
O195   O     0.38121   0.15697   0.36183   0.00000  Uiso   1.00
O196   O     0.40221   0.22057   0.33545   0.00000  Uiso   1.00
O197   O     0.77226   0.20487   0.24999   0.00000  Uiso   1.00
O198   O     0.89441   0.12846   0.25001   0.00000  Uiso   1.00
O199   O     0.89441   0.20487   0.25001   0.00000  Uiso   1.00
O200   O     0.77226   0.12846   0.24999   0.00000  Uiso   1.00
N201   N     0.83333   0.28573   0.25000   0.00000  Uiso   1.00
N202   N     0.83333   0.04760   0.25000   0.00000  Uiso   1.00
C203   C     0.75360   0.16738   0.24822   0.00000  Uiso   1.00
C204   C     0.91296   0.16604   0.25074   0.00000  Uiso   1.00
O205   O     0.83333   0.20489   0.18453   0.00000  Uiso   1.00
O206   O     0.83334   0.12845   0.31547   0.00000  Uiso   1.00
O207   O     0.83334   0.20489   0.31547   0.00000  Uiso   1.00
O208   O     0.83333   0.12845   0.18453   0.00000  Uiso   1.00
C209   C     0.83402   0.16596   0.16407   0.00000  Uiso   1.00
C210   C     0.83346   0.16740   0.33580   0.00000  Uiso   1.00
Zn211  Zn    0.83333   0.21771   0.25000   0.00000  Uiso   1.00
Zn212  Zn    0.83333   0.11563   0.25000   0.00000  Uiso   1.00
C213   C     0.86109   0.02414   0.27778   0.00000  Uiso   1.00
C214   C     0.80530   0.30945   0.22337   0.00000  Uiso   1.00
C215   C     0.80946   0.02260   0.21908   0.00000  Uiso   1.00
C216   C     0.85970   0.30983   0.27925   0.00000  Uiso   1.00
C217   C     0.68547   0.16354   0.20679   0.00000  Uiso   1.00
C218   C     0.98054   0.17440   0.29020   0.00000  Uiso   1.00
C219   C     0.97541   0.15994   0.20876   0.00000  Uiso   1.00
C220   C     0.69050   0.17601   0.28879   0.00000  Uiso   1.00
C221   C     0.84869   0.20484   0.04996   0.00000  Uiso   1.00
C222   C     0.85984   0.13380   0.45156   0.00000  Uiso   1.00
C223   C     0.81692   0.20198   0.45434   0.00000  Uiso   1.00
C224   C     0.82990   0.12754   0.04384   0.00000  Uiso   1.00
H225   H     0.85680   0.23504   0.03473   0.00000  Uiso   1.00
H226   H     0.87737   0.10736   0.46816   0.00000  Uiso   1.00
H227   H     0.80030   0.22795   0.47311   0.00000  Uiso   1.00
H228   H     0.82243   0.09788   0.02377   0.00000  Uiso   1.00
C229   C     0.84706   0.20431   0.09581   0.00000  Uiso   1.00
C230   C     0.85782   0.13392   0.40552   0.00000  Uiso   1.00
C231   C     0.81507   0.20216   0.40822   0.00000  Uiso   1.00
C232   C     0.82845   0.12697   0.08976   0.00000  Uiso   1.00
H233   H     0.85404   0.23441   0.11535   0.00000  Uiso   1.00
H234   H     0.87386   0.10741   0.38692   0.00000  Uiso   1.00
H235   H     0.79708   0.22822   0.39183   0.00000  Uiso   1.00
H236   H     0.82015   0.09684   0.10423   0.00000  Uiso   1.00
C237   C     0.83657   0.16540   0.11596   0.00000  Uiso   1.00
C238   C     0.83559   0.16822   0.38383   0.00000  Uiso   1.00
C239   C     0.83972   0.16657   0.02398   0.00000  Uiso   1.00
C240   C     0.83923   0.16772   0.47595   0.00000  Uiso   1.00
C241   C     0.95721   0.16468   0.25032   0.00000  Uiso   1.00
C242   C     0.70914   0.16961   0.24756   0.00000  Uiso   1.00
C243   C     0.89851   0.04698   0.30106   0.00000  Uiso   1.00
C244   C     0.93799   0.03917   0.27361   0.00000  Uiso   1.00
C245   C     0.97792   0.05251   0.30042   0.00000  Uiso   1.00
H246   H     0.97465   0.08704   0.31400   0.00000  Uiso   1.00
H247   H     0.98429   0.03016   0.32855   0.00000  Uiso   1.00
H248   H     0.67174   0.05002   0.27850   0.00000  Uiso   1.00
H249   H     0.94176   0.00372   0.26285   0.00000  Uiso   1.00
H250   H     0.93479   0.05800   0.24267   0.00000  Uiso   1.00
H251   H     0.89230   0.08233   0.30723   0.00000  Uiso   1.00
H252   H     0.90507   0.03560   0.33530   0.00000  Uiso   1.00
C253   C     0.76610   0.28828   0.20264   0.00000  Uiso   1.00
C254   C     0.72937   0.29597   0.23390   0.00000  Uiso   1.00
C255   C     0.68714   0.28533   0.21017   0.00000  Uiso   1.00
H256   H     0.67842   0.31051   0.18517   0.00000  Uiso   1.00
H257   H     0.68869   0.25226   0.19287   0.00000  Uiso   1.00
H258   H     0.99571   0.28554   0.23493   0.00000  Uiso   1.00
H259   H     0.73440   0.27562   0.26364   0.00000  Uiso   1.00
H260   H     0.72770   0.33110   0.24639   0.00000  Uiso   1.00
H261   H     0.75640   0.30157   0.16994   0.00000  Uiso   1.00
H262   H     0.77206   0.25319   0.19418   0.00000  Uiso   1.00
C263   C     0.79978   0.03865   0.17269   0.00000  Uiso   1.00
C264   C     0.75598   0.06125   0.16654   0.00000  Uiso   1.00
C265   C     0.73531   0.05020   0.12032   0.00000  Uiso   1.00
H266   H     0.75162   0.06665   0.09408   0.00000  Uiso   1.00
H267   H     0.73591   0.01397   0.11261   0.00000  Uiso   1.00
H268   H     0.70179   0.06156   0.11933   0.00000  Uiso   1.00
H269   H     0.73474   0.05104   0.19219   0.00000  Uiso   1.00
H270   H     0.75909   0.09746   0.17055   0.00000  Uiso   1.00
H271   H     0.82567   0.05836   0.16330   0.00000  Uiso   1.00
H272   H     0.80339   0.01060   0.14775   0.00000  Uiso   1.00
C273   C     0.88461   0.28709   0.31678   0.00000  Uiso   1.00
C274   C     0.86351   0.29607   0.36145   0.00000  Uiso   1.00
C275   C     0.89015   0.27697   0.40019   0.00000  Uiso   1.00
H276   H     0.89564   0.24076   0.39441   0.00000  Uiso   1.00
H277   H     0.92096   0.29325   0.40388   0.00000  Uiso   1.00
H278   H     0.87354   0.28286   0.43170   0.00000  Uiso   1.00
H279   H     0.85810   0.33205   0.36875   0.00000  Uiso   1.00
H280   H     0.83209   0.28130   0.35934   0.00000  Uiso   1.00
H281   H     0.88770   0.25148   0.31059   0.00000  Uiso   1.00
H282   H     0.91775   0.29735   0.31945   0.00000  Uiso   1.00
N283   N     0.70487   0.16284   0.16411   0.00000  Uiso   1.00
O284   O     0.73804   0.18559   0.15894   0.00000  Uiso   1.00
O285   O     0.68760   0.14268   0.12898   0.00000  Uiso   1.00
N286   N     0.96036   0.18404   0.33158   0.00000  Uiso   1.00
O287   O     0.97138   0.21795   0.35723   0.00000  Uiso   1.00
O288   O     0.93181   0.15835   0.34442   0.00000  Uiso   1.00
N289   N     0.94912   0.15522   0.16865   0.00000  Uiso   1.00
O290   O     0.92968   0.11857   0.15930   0.00000  Uiso   1.00
O291   O     0.94304   0.18835   0.14261   0.00000  Uiso   1.00
N292   N     0.71574   0.18376   0.32919   0.00000  Uiso   1.00
O293   O     0.71454   0.15697   0.36183   0.00000  Uiso   1.00
O294   O     0.73554   0.22057   0.33545   0.00000  Uiso   1.00
O295   O     0.10559   0.53821   0.24999   0.00000  Uiso   1.00
O296   O     0.22774   0.46179   0.25001   0.00000  Uiso   1.00
O297   O     0.22774   0.53821   0.25001   0.00000  Uiso   1.00
O298   O     0.10559   0.46179   0.24999   0.00000  Uiso   1.00
N299   N     0.16667   0.61907   0.25000   0.00000  Uiso   1.00
N300   N     0.16667   0.38093   0.25000   0.00000  Uiso   1.00
C301   C     0.08694   0.50071   0.24822   0.00000  Uiso   1.00
C302   C     0.24629   0.49937   0.25074   0.00000  Uiso   1.00
O303   O     0.16666   0.53822   0.18453   0.00000  Uiso   1.00
O304   O     0.16667   0.46178   0.31547   0.00000  Uiso   1.00
O305   O     0.16667   0.53822   0.31547   0.00000  Uiso   1.00
O306   O     0.16666   0.46178   0.18453   0.00000  Uiso   1.00
C307   C     0.16735   0.49929   0.16407   0.00000  Uiso   1.00
C308   C     0.16679   0.50073   0.33580   0.00000  Uiso   1.00
Zn309  Zn    0.16667   0.55104   0.25000   0.00000  Uiso   1.00
Zn310  Zn    0.16667   0.44896   0.25000   0.00000  Uiso   1.00
C311   C     0.19442   0.35747   0.27778   0.00000  Uiso   1.00
C312   C     0.13863   0.64278   0.22337   0.00000  Uiso   1.00
C313   C     0.14279   0.35593   0.21908   0.00000  Uiso   1.00
C314   C     0.19303   0.64316   0.27925   0.00000  Uiso   1.00
C315   C     0.01880   0.49688   0.20679   0.00000  Uiso   1.00
C316   C     0.31388   0.50773   0.29020   0.00000  Uiso   1.00
C317   C     0.30875   0.49328   0.20876   0.00000  Uiso   1.00
C318   C     0.02384   0.50935   0.28879   0.00000  Uiso   1.00
C319   C     0.18203   0.53818   0.04996   0.00000  Uiso   1.00
C320   C     0.19317   0.46714   0.45156   0.00000  Uiso   1.00
C321   C     0.15025   0.53531   0.45434   0.00000  Uiso   1.00
C322   C     0.16323   0.46087   0.04384   0.00000  Uiso   1.00
H323   H     0.19014   0.56837   0.03473   0.00000  Uiso   1.00
H324   H     0.21070   0.44069   0.46816   0.00000  Uiso   1.00
H325   H     0.13364   0.56128   0.47311   0.00000  Uiso   1.00
H326   H     0.15577   0.43122   0.02377   0.00000  Uiso   1.00
C327   C     0.18039   0.53764   0.09581   0.00000  Uiso   1.00
C328   C     0.19116   0.46725   0.40552   0.00000  Uiso   1.00
C329   C     0.14840   0.53549   0.40822   0.00000  Uiso   1.00
C330   C     0.16178   0.46030   0.08976   0.00000  Uiso   1.00
H331   H     0.18738   0.56774   0.11535   0.00000  Uiso   1.00
H332   H     0.20719   0.44075   0.38692   0.00000  Uiso   1.00
H333   H     0.13042   0.56155   0.39183   0.00000  Uiso   1.00
H334   H     0.15349   0.43018   0.10423   0.00000  Uiso   1.00
C335   C     0.16990   0.49873   0.11596   0.00000  Uiso   1.00
C336   C     0.16892   0.50155   0.38383   0.00000  Uiso   1.00
C337   C     0.17306   0.49991   0.02398   0.00000  Uiso   1.00
C338   C     0.17256   0.50106   0.47595   0.00000  Uiso   1.00
C339   C     0.29054   0.49802   0.25032   0.00000  Uiso   1.00
C340   C     0.04247   0.50295   0.24756   0.00000  Uiso   1.00
C341   C     0.23184   0.38032   0.30106   0.00000  Uiso   1.00
C342   C     0.27132   0.37250   0.27361   0.00000  Uiso   1.00
C343   C     0.31125   0.38585   0.30042   0.00000  Uiso   1.00
H344   H     0.30798   0.42037   0.31400   0.00000  Uiso   1.00
H345   H     0.31762   0.36350   0.32855   0.00000  Uiso   1.00
H346   H     0.00507   0.38336   0.27850   0.00000  Uiso   1.00
H347   H     0.27509   0.33705   0.26285   0.00000  Uiso   1.00
H348   H     0.26812   0.39134   0.24267   0.00000  Uiso   1.00
H349   H     0.22563   0.41566   0.30723   0.00000  Uiso   1.00
H350   H     0.23840   0.36894   0.33530   0.00000  Uiso   1.00
C351   C     0.09943   0.62161   0.20264   0.00000  Uiso   1.00
C352   C     0.06270   0.62930   0.23390   0.00000  Uiso   1.00
C353   C     0.02048   0.61866   0.21017   0.00000  Uiso   1.00
H354   H     0.01175   0.64384   0.18517   0.00000  Uiso   1.00
H355   H     0.02202   0.58560   0.19287   0.00000  Uiso   1.00
H356   H     0.32905   0.61887   0.23493   0.00000  Uiso   1.00
H357   H     0.06773   0.60896   0.26364   0.00000  Uiso   1.00
H358   H     0.06103   0.66443   0.24639   0.00000  Uiso   1.00
H359   H     0.08974   0.63490   0.16994   0.00000  Uiso   1.00
H360   H     0.10540   0.58652   0.19418   0.00000  Uiso   1.00
C361   C     0.13311   0.37198   0.17269   0.00000  Uiso   1.00
C362   C     0.08931   0.39458   0.16654   0.00000  Uiso   1.00
C363   C     0.06864   0.38354   0.12032   0.00000  Uiso   1.00
H364   H     0.08495   0.39999   0.09408   0.00000  Uiso   1.00
H365   H     0.06925   0.34730   0.11261   0.00000  Uiso   1.00
H366   H     0.03513   0.39489   0.11933   0.00000  Uiso   1.00
H367   H     0.06808   0.38437   0.19219   0.00000  Uiso   1.00
H368   H     0.09242   0.43080   0.17055   0.00000  Uiso   1.00
H369   H     0.15900   0.39169   0.16330   0.00000  Uiso   1.00
H370   H     0.13672   0.34394   0.14775   0.00000  Uiso   1.00
C371   C     0.21794   0.62042   0.31678   0.00000  Uiso   1.00
C372   C     0.19685   0.62941   0.36145   0.00000  Uiso   1.00
C373   C     0.22348   0.61030   0.40019   0.00000  Uiso   1.00
H374   H     0.22897   0.57410   0.39441   0.00000  Uiso   1.00
H375   H     0.25429   0.62658   0.40388   0.00000  Uiso   1.00
H376   H     0.20688   0.61620   0.43170   0.00000  Uiso   1.00
H377   H     0.19144   0.66538   0.36875   0.00000  Uiso   1.00
H378   H     0.16543   0.61464   0.35934   0.00000  Uiso   1.00
H379   H     0.22104   0.58481   0.31059   0.00000  Uiso   1.00
H380   H     0.25108   0.63068   0.31945   0.00000  Uiso   1.00
N381   N     0.03821   0.49618   0.16411   0.00000  Uiso   1.00
O382   O     0.07138   0.51892   0.15894   0.00000  Uiso   1.00
O383   O     0.02094   0.47601   0.12898   0.00000  Uiso   1.00
N384   N     0.29370   0.51737   0.33158   0.00000  Uiso   1.00
O385   O     0.30472   0.55129   0.35723   0.00000  Uiso   1.00
O386   O     0.26514   0.49169   0.34442   0.00000  Uiso   1.00
N387   N     0.28245   0.48855   0.16865   0.00000  Uiso   1.00
O388   O     0.26302   0.45190   0.15930   0.00000  Uiso   1.00
O389   O     0.27637   0.52169   0.14261   0.00000  Uiso   1.00
N390   N     0.04907   0.51709   0.32919   0.00000  Uiso   1.00
O391   O     0.04787   0.49031   0.36183   0.00000  Uiso   1.00
O392   O     0.06888   0.55390   0.33545   0.00000  Uiso   1.00
O393   O     0.43892   0.53821   0.24999   0.00000  Uiso   1.00
O394   O     0.56108   0.46179   0.25001   0.00000  Uiso   1.00
O395   O     0.56108   0.53821   0.25001   0.00000  Uiso   1.00
O396   O     0.43892   0.46179   0.24999   0.00000  Uiso   1.00
N397   N     0.50000   0.61907   0.25000   0.00000  Uiso   1.00
N398   N     0.50000   0.38093   0.25000   0.00000  Uiso   1.00
C399   C     0.42027   0.50071   0.24822   0.00000  Uiso   1.00
C400   C     0.57962   0.49937   0.25074   0.00000  Uiso   1.00
O401   O     0.50000   0.53822   0.18453   0.00000  Uiso   1.00
O402   O     0.50000   0.46178   0.31547   0.00000  Uiso   1.00
O403   O     0.50000   0.53822   0.31547   0.00000  Uiso   1.00
O404   O     0.50000   0.46178   0.18453   0.00000  Uiso   1.00
C405   C     0.50068   0.49929   0.16407   0.00000  Uiso   1.00
C406   C     0.50013   0.50073   0.33580   0.00000  Uiso   1.00
Zn407  Zn    0.50000   0.55104   0.25000   0.00000  Uiso   1.00
Zn408  Zn    0.50000   0.44896   0.25000   0.00000  Uiso   1.00
C409   C     0.52775   0.35747   0.27778   0.00000  Uiso   1.00
C410   C     0.47196   0.64278   0.22337   0.00000  Uiso   1.00
C411   C     0.47613   0.35593   0.21908   0.00000  Uiso   1.00
C412   C     0.52636   0.64316   0.27925   0.00000  Uiso   1.00
C413   C     0.35214   0.49688   0.20679   0.00000  Uiso   1.00
C414   C     0.64721   0.50773   0.29020   0.00000  Uiso   1.00
C415   C     0.64208   0.49328   0.20876   0.00000  Uiso   1.00
C416   C     0.35717   0.50935   0.28879   0.00000  Uiso   1.00
C417   C     0.51536   0.53818   0.04996   0.00000  Uiso   1.00
C418   C     0.52651   0.46714   0.45156   0.00000  Uiso   1.00
C419   C     0.48359   0.53531   0.45434   0.00000  Uiso   1.00
C420   C     0.49656   0.46087   0.04384   0.00000  Uiso   1.00
H421   H     0.52347   0.56837   0.03473   0.00000  Uiso   1.00
H422   H     0.54404   0.44069   0.46816   0.00000  Uiso   1.00
H423   H     0.46697   0.56128   0.47311   0.00000  Uiso   1.00
H424   H     0.48910   0.43122   0.02377   0.00000  Uiso   1.00
C425   C     0.51372   0.53764   0.09581   0.00000  Uiso   1.00
C426   C     0.52449   0.46725   0.40552   0.00000  Uiso   1.00
C427   C     0.48173   0.53549   0.40822   0.00000  Uiso   1.00
C428   C     0.49511   0.46030   0.08976   0.00000  Uiso   1.00
H429   H     0.52071   0.56774   0.11535   0.00000  Uiso   1.00
H430   H     0.54052   0.44075   0.38692   0.00000  Uiso   1.00
H431   H     0.46375   0.56155   0.39183   0.00000  Uiso   1.00
H432   H     0.48682   0.43018   0.10423   0.00000  Uiso   1.00
C433   C     0.50323   0.49873   0.11596   0.00000  Uiso   1.00
C434   C     0.50226   0.50155   0.38383   0.00000  Uiso   1.00
C435   C     0.50639   0.49991   0.02398   0.00000  Uiso   1.00
C436   C     0.50590   0.50106   0.47595   0.00000  Uiso   1.00
C437   C     0.62388   0.49802   0.25032   0.00000  Uiso   1.00
C438   C     0.37580   0.50295   0.24756   0.00000  Uiso   1.00
C439   C     0.56517   0.38032   0.30106   0.00000  Uiso   1.00
C440   C     0.60465   0.37250   0.27361   0.00000  Uiso   1.00
C441   C     0.64459   0.38585   0.30042   0.00000  Uiso   1.00
H442   H     0.64131   0.42037   0.31400   0.00000  Uiso   1.00
H443   H     0.65096   0.36350   0.32855   0.00000  Uiso   1.00
H444   H     0.33840   0.38336   0.27850   0.00000  Uiso   1.00
H445   H     0.60842   0.33705   0.26285   0.00000  Uiso   1.00
H446   H     0.60146   0.39134   0.24267   0.00000  Uiso   1.00
H447   H     0.55897   0.41566   0.30723   0.00000  Uiso   1.00
H448   H     0.57174   0.36894   0.33530   0.00000  Uiso   1.00
C449   C     0.43276   0.62161   0.20264   0.00000  Uiso   1.00
C450   C     0.39603   0.62930   0.23390   0.00000  Uiso   1.00
C451   C     0.35381   0.61866   0.21017   0.00000  Uiso   1.00
H452   H     0.34508   0.64384   0.18517   0.00000  Uiso   1.00
H453   H     0.35535   0.58560   0.19287   0.00000  Uiso   1.00
H454   H     0.66238   0.61887   0.23493   0.00000  Uiso   1.00
H455   H     0.40107   0.60896   0.26364   0.00000  Uiso   1.00
H456   H     0.39436   0.66443   0.24639   0.00000  Uiso   1.00
H457   H     0.42307   0.63490   0.16994   0.00000  Uiso   1.00
H458   H     0.43873   0.58652   0.19418   0.00000  Uiso   1.00
C459   C     0.46644   0.37198   0.17269   0.00000  Uiso   1.00
C460   C     0.42264   0.39458   0.16654   0.00000  Uiso   1.00
C461   C     0.40197   0.38354   0.12032   0.00000  Uiso   1.00
H462   H     0.41829   0.39999   0.09408   0.00000  Uiso   1.00
H463   H     0.40258   0.34730   0.11261   0.00000  Uiso   1.00
H464   H     0.36846   0.39489   0.11933   0.00000  Uiso   1.00
H465   H     0.40141   0.38437   0.19219   0.00000  Uiso   1.00
H466   H     0.42576   0.43080   0.17055   0.00000  Uiso   1.00
H467   H     0.49233   0.39169   0.16330   0.00000  Uiso   1.00
H468   H     0.47006   0.34394   0.14775   0.00000  Uiso   1.00
C469   C     0.55128   0.62042   0.31678   0.00000  Uiso   1.00
C470   C     0.53018   0.62941   0.36145   0.00000  Uiso   1.00
C471   C     0.55682   0.61030   0.40019   0.00000  Uiso   1.00
H472   H     0.56230   0.57410   0.39441   0.00000  Uiso   1.00
H473   H     0.58763   0.62658   0.40388   0.00000  Uiso   1.00
H474   H     0.54021   0.61620   0.43170   0.00000  Uiso   1.00
H475   H     0.52477   0.66538   0.36875   0.00000  Uiso   1.00
H476   H     0.49876   0.61464   0.35934   0.00000  Uiso   1.00
H477   H     0.55437   0.58481   0.31059   0.00000  Uiso   1.00
H478   H     0.58442   0.63068   0.31945   0.00000  Uiso   1.00
N479   N     0.37154   0.49618   0.16411   0.00000  Uiso   1.00
O480   O     0.40471   0.51892   0.15894   0.00000  Uiso   1.00
O481   O     0.35427   0.47601   0.12898   0.00000  Uiso   1.00
N482   N     0.62703   0.51737   0.33158   0.00000  Uiso   1.00
O483   O     0.63805   0.55129   0.35723   0.00000  Uiso   1.00
O484   O     0.59848   0.49169   0.34442   0.00000  Uiso   1.00
N485   N     0.61579   0.48855   0.16865   0.00000  Uiso   1.00
O486   O     0.59635   0.45190   0.15930   0.00000  Uiso   1.00
O487   O     0.60970   0.52169   0.14261   0.00000  Uiso   1.00
N488   N     0.38241   0.51709   0.32919   0.00000  Uiso   1.00
O489   O     0.38121   0.49031   0.36183   0.00000  Uiso   1.00
O490   O     0.40221   0.55390   0.33545   0.00000  Uiso   1.00
O491   O     0.77226   0.53821   0.24999   0.00000  Uiso   1.00
O492   O     0.89441   0.46179   0.25001   0.00000  Uiso   1.00
O493   O     0.89441   0.53821   0.25001   0.00000  Uiso   1.00
O494   O     0.77226   0.46179   0.24999   0.00000  Uiso   1.00
N495   N     0.83333   0.61907   0.25000   0.00000  Uiso   1.00
N496   N     0.83333   0.38093   0.25000   0.00000  Uiso   1.00
C497   C     0.75360   0.50071   0.24822   0.00000  Uiso   1.00
C498   C     0.91296   0.49937   0.25074   0.00000  Uiso   1.00
O499   O     0.83333   0.53822   0.18453   0.00000  Uiso   1.00
O500   O     0.83334   0.46178   0.31547   0.00000  Uiso   1.00
O501   O     0.83334   0.53822   0.31547   0.00000  Uiso   1.00
O502   O     0.83333   0.46178   0.18453   0.00000  Uiso   1.00
C503   C     0.83402   0.49929   0.16407   0.00000  Uiso   1.00
C504   C     0.83346   0.50073   0.33580   0.00000  Uiso   1.00
Zn505  Zn    0.83333   0.55104   0.25000   0.00000  Uiso   1.00
Zn506  Zn    0.83333   0.44896   0.25000   0.00000  Uiso   1.00
C507   C     0.86109   0.35747   0.27778   0.00000  Uiso   1.00
C508   C     0.80530   0.64278   0.22337   0.00000  Uiso   1.00
C509   C     0.80946   0.35593   0.21908   0.00000  Uiso   1.00
C510   C     0.85970   0.64316   0.27925   0.00000  Uiso   1.00
C511   C     0.68547   0.49688   0.20679   0.00000  Uiso   1.00
C512   C     0.98054   0.50773   0.29020   0.00000  Uiso   1.00
C513   C     0.97541   0.49328   0.20876   0.00000  Uiso   1.00
C514   C     0.69050   0.50935   0.28879   0.00000  Uiso   1.00
C515   C     0.84869   0.53818   0.04996   0.00000  Uiso   1.00
C516   C     0.85984   0.46714   0.45156   0.00000  Uiso   1.00
C517   C     0.81692   0.53531   0.45434   0.00000  Uiso   1.00
C518   C     0.82990   0.46087   0.04384   0.00000  Uiso   1.00
H519   H     0.85680   0.56837   0.03473   0.00000  Uiso   1.00
H520   H     0.87737   0.44069   0.46816   0.00000  Uiso   1.00
H521   H     0.80030   0.56128   0.47311   0.00000  Uiso   1.00
H522   H     0.82243   0.43122   0.02377   0.00000  Uiso   1.00
C523   C     0.84706   0.53764   0.09581   0.00000  Uiso   1.00
C524   C     0.85782   0.46725   0.40552   0.00000  Uiso   1.00
C525   C     0.81507   0.53549   0.40822   0.00000  Uiso   1.00
C526   C     0.82845   0.46030   0.08976   0.00000  Uiso   1.00
H527   H     0.85404   0.56774   0.11535   0.00000  Uiso   1.00
H528   H     0.87386   0.44075   0.38692   0.00000  Uiso   1.00
H529   H     0.79708   0.56155   0.39183   0.00000  Uiso   1.00
H530   H     0.82015   0.43018   0.10423   0.00000  Uiso   1.00
C531   C     0.83657   0.49873   0.11596   0.00000  Uiso   1.00
C532   C     0.83559   0.50155   0.38383   0.00000  Uiso   1.00
C533   C     0.83972   0.49991   0.02398   0.00000  Uiso   1.00
C534   C     0.83923   0.50106   0.47595   0.00000  Uiso   1.00
C535   C     0.95721   0.49802   0.25032   0.00000  Uiso   1.00
C536   C     0.70914   0.50295   0.24756   0.00000  Uiso   1.00
C537   C     0.89851   0.38032   0.30106   0.00000  Uiso   1.00
C538   C     0.93799   0.37250   0.27361   0.00000  Uiso   1.00
C539   C     0.97792   0.38585   0.30042   0.00000  Uiso   1.00
H540   H     0.97465   0.42037   0.31400   0.00000  Uiso   1.00
H541   H     0.98429   0.36350   0.32855   0.00000  Uiso   1.00
H542   H     0.67174   0.38336   0.27850   0.00000  Uiso   1.00
H543   H     0.94176   0.33705   0.26285   0.00000  Uiso   1.00
H544   H     0.93479   0.39134   0.24267   0.00000  Uiso   1.00
H545   H     0.89230   0.41566   0.30723   0.00000  Uiso   1.00
H546   H     0.90507   0.36894   0.33530   0.00000  Uiso   1.00
C547   C     0.76610   0.62161   0.20264   0.00000  Uiso   1.00
C548   C     0.72937   0.62930   0.23390   0.00000  Uiso   1.00
C549   C     0.68714   0.61866   0.21017   0.00000  Uiso   1.00
H550   H     0.67842   0.64384   0.18517   0.00000  Uiso   1.00
H551   H     0.68869   0.58560   0.19287   0.00000  Uiso   1.00
H552   H     0.99571   0.61887   0.23493   0.00000  Uiso   1.00
H553   H     0.73440   0.60896   0.26364   0.00000  Uiso   1.00
H554   H     0.72770   0.66443   0.24639   0.00000  Uiso   1.00
H555   H     0.75640   0.63490   0.16994   0.00000  Uiso   1.00
H556   H     0.77206   0.58652   0.19418   0.00000  Uiso   1.00
C557   C     0.79978   0.37198   0.17269   0.00000  Uiso   1.00
C558   C     0.75598   0.39458   0.16654   0.00000  Uiso   1.00
C559   C     0.73531   0.38354   0.12032   0.00000  Uiso   1.00
H560   H     0.75162   0.39999   0.09408   0.00000  Uiso   1.00
H561   H     0.73591   0.34730   0.11261   0.00000  Uiso   1.00
H562   H     0.70179   0.39489   0.11933   0.00000  Uiso   1.00
H563   H     0.73474   0.38437   0.19219   0.00000  Uiso   1.00
H564   H     0.75909   0.43080   0.17055   0.00000  Uiso   1.00
H565   H     0.82567   0.39169   0.16330   0.00000  Uiso   1.00
H566   H     0.80339   0.34394   0.14775   0.00000  Uiso   1.00
C567   C     0.88461   0.62042   0.31678   0.00000  Uiso   1.00
C568   C     0.86351   0.62941   0.36145   0.00000  Uiso   1.00
C569   C     0.89015   0.61030   0.40019   0.00000  Uiso   1.00
H570   H     0.89564   0.57410   0.39441   0.00000  Uiso   1.00
H571   H     0.92096   0.62658   0.40388   0.00000  Uiso   1.00
H572   H     0.87354   0.61620   0.43170   0.00000  Uiso   1.00
H573   H     0.85810   0.66538   0.36875   0.00000  Uiso   1.00
H574   H     0.83209   0.61464   0.35934   0.00000  Uiso   1.00
H575   H     0.88770   0.58481   0.31059   0.00000  Uiso   1.00
H576   H     0.91775   0.63068   0.31945   0.00000  Uiso   1.00
N577   N     0.70487   0.49618   0.16411   0.00000  Uiso   1.00
O578   O     0.73804   0.51892   0.15894   0.00000  Uiso   1.00
O579   O     0.68760   0.47601   0.12898   0.00000  Uiso   1.00
N580   N     0.96036   0.51737   0.33158   0.00000  Uiso   1.00
O581   O     0.97138   0.55129   0.35723   0.00000  Uiso   1.00
O582   O     0.93181   0.49169   0.34442   0.00000  Uiso   1.00
N583   N     0.94912   0.48855   0.16865   0.00000  Uiso   1.00
O584   O     0.92968   0.45190   0.15930   0.00000  Uiso   1.00
O585   O     0.94304   0.52169   0.14261   0.00000  Uiso   1.00
N586   N     0.71574   0.51709   0.32919   0.00000  Uiso   1.00
O587   O     0.71454   0.49031   0.36183   0.00000  Uiso   1.00
O588   O     0.73554   0.55390   0.33545   0.00000  Uiso   1.00
O589   O     0.10559   0.87154   0.24999   0.00000  Uiso   1.00
O590   O     0.22774   0.79513   0.25001   0.00000  Uiso   1.00
O591   O     0.22774   0.87154   0.25001   0.00000  Uiso   1.00
O592   O     0.10559   0.79513   0.24999   0.00000  Uiso   1.00
N593   N     0.16667   0.95240   0.25000   0.00000  Uiso   1.00
N594   N     0.16667   0.71427   0.25000   0.00000  Uiso   1.00
C595   C     0.08694   0.83405   0.24822   0.00000  Uiso   1.00
C596   C     0.24629   0.83271   0.25074   0.00000  Uiso   1.00
O597   O     0.16666   0.87155   0.18453   0.00000  Uiso   1.00
O598   O     0.16667   0.79511   0.31547   0.00000  Uiso   1.00
O599   O     0.16667   0.87155   0.31547   0.00000  Uiso   1.00
O600   O     0.16666   0.79511   0.18453   0.00000  Uiso   1.00
C601   C     0.16735   0.83263   0.16407   0.00000  Uiso   1.00
C602   C     0.16679   0.83406   0.33580   0.00000  Uiso   1.00
Zn603  Zn    0.16667   0.88437   0.25000   0.00000  Uiso   1.00
Zn604  Zn    0.16667   0.78229   0.25000   0.00000  Uiso   1.00
C605   C     0.19442   0.69080   0.27778   0.00000  Uiso   1.00
C606   C     0.13863   0.97611   0.22337   0.00000  Uiso   1.00
C607   C     0.14279   0.68927   0.21908   0.00000  Uiso   1.00
C608   C     0.19303   0.97650   0.27925   0.00000  Uiso   1.00
C609   C     0.01880   0.83021   0.20679   0.00000  Uiso   1.00
C610   C     0.31388   0.84106   0.29020   0.00000  Uiso   1.00
C611   C     0.30875   0.82661   0.20876   0.00000  Uiso   1.00
C612   C     0.02384   0.84268   0.28879   0.00000  Uiso   1.00
C613   C     0.18203   0.87151   0.04996   0.00000  Uiso   1.00
C614   C     0.19317   0.80047   0.45156   0.00000  Uiso   1.00
C615   C     0.15025   0.86865   0.45434   0.00000  Uiso   1.00
C616   C     0.16323   0.79420   0.04384   0.00000  Uiso   1.00
H617   H     0.19014   0.90170   0.03473   0.00000  Uiso   1.00
H618   H     0.21070   0.77403   0.46816   0.00000  Uiso   1.00
H619   H     0.13364   0.89462   0.47311   0.00000  Uiso   1.00
H620   H     0.15577   0.76455   0.02377   0.00000  Uiso   1.00
C621   C     0.18039   0.87098   0.09581   0.00000  Uiso   1.00
C622   C     0.19116   0.80058   0.40552   0.00000  Uiso   1.00
C623   C     0.14840   0.86883   0.40822   0.00000  Uiso   1.00
C624   C     0.16178   0.79363   0.08976   0.00000  Uiso   1.00
H625   H     0.18738   0.90107   0.11535   0.00000  Uiso   1.00
H626   H     0.20719   0.77408   0.38692   0.00000  Uiso   1.00
H627   H     0.13042   0.89489   0.39183   0.00000  Uiso   1.00
H628   H     0.15349   0.76351   0.10423   0.00000  Uiso   1.00
C629   C     0.16990   0.83207   0.11596   0.00000  Uiso   1.00
C630   C     0.16892   0.83488   0.38383   0.00000  Uiso   1.00
C631   C     0.17306   0.83324   0.02398   0.00000  Uiso   1.00
C632   C     0.17256   0.83439   0.47595   0.00000  Uiso   1.00
C633   C     0.29054   0.83135   0.25032   0.00000  Uiso   1.00
C634   C     0.04247   0.83628   0.24756   0.00000  Uiso   1.00
C635   C     0.23184   0.71365   0.30106   0.00000  Uiso   1.00
C636   C     0.27132   0.70584   0.27361   0.00000  Uiso   1.00
C637   C     0.31125   0.71918   0.30042   0.00000  Uiso   1.00
H638   H     0.30798   0.75371   0.31400   0.00000  Uiso   1.00
H639   H     0.31762   0.69683   0.32855   0.00000  Uiso   1.00
H640   H     0.00507   0.71669   0.27850   0.00000  Uiso   1.00
H641   H     0.27509   0.67039   0.26285   0.00000  Uiso   1.00
H642   H     0.26812   0.72467   0.24267   0.00000  Uiso   1.00
H643   H     0.22563   0.74900   0.30723   0.00000  Uiso   1.00
H644   H     0.23840   0.70227   0.33530   0.00000  Uiso   1.00
C645   C     0.09943   0.95495   0.20264   0.00000  Uiso   1.00
C646   C     0.06270   0.96263   0.23390   0.00000  Uiso   1.00
C647   C     0.02048   0.95200   0.21017   0.00000  Uiso   1.00
H648   H     0.01175   0.97718   0.18517   0.00000  Uiso   1.00
H649   H     0.02202   0.91893   0.19287   0.00000  Uiso   1.00
H650   H     0.32905   0.95220   0.23493   0.00000  Uiso   1.00
H651   H     0.06773   0.94229   0.26364   0.00000  Uiso   1.00
H652   H     0.06103   0.99777   0.24639   0.00000  Uiso   1.00
H653   H     0.08974   0.96824   0.16994   0.00000  Uiso   1.00
H654   H     0.10540   0.91986   0.19418   0.00000  Uiso   1.00
C655   C     0.13311   0.70531   0.17269   0.00000  Uiso   1.00
C656   C     0.08931   0.72791   0.16654   0.00000  Uiso   1.00
C657   C     0.06864   0.71687   0.12032   0.00000  Uiso   1.00
H658   H     0.08495   0.73332   0.09408   0.00000  Uiso   1.00
H659   H     0.06925   0.68064   0.11261   0.00000  Uiso   1.00
H660   H     0.03513   0.72823   0.11933   0.00000  Uiso   1.00
H661   H     0.06808   0.71770   0.19219   0.00000  Uiso   1.00
H662   H     0.09242   0.76413   0.17055   0.00000  Uiso   1.00
H663   H     0.15900   0.72502   0.16330   0.00000  Uiso   1.00
H664   H     0.13672   0.67727   0.14775   0.00000  Uiso   1.00
C665   C     0.21794   0.95375   0.31678   0.00000  Uiso   1.00
C666   C     0.19685   0.96274   0.36145   0.00000  Uiso   1.00
C667   C     0.22348   0.94363   0.40019   0.00000  Uiso   1.00
H668   H     0.22897   0.90743   0.39441   0.00000  Uiso   1.00
H669   H     0.25429   0.95992   0.40388   0.00000  Uiso   1.00
H670   H     0.20688   0.94953   0.43170   0.00000  Uiso   1.00
H671   H     0.19144   0.99872   0.36875   0.00000  Uiso   1.00
H672   H     0.16543   0.94797   0.35934   0.00000  Uiso   1.00
H673   H     0.22104   0.91814   0.31059   0.00000  Uiso   1.00
H674   H     0.25108   0.96401   0.31945   0.00000  Uiso   1.00
N675   N     0.03821   0.82951   0.16411   0.00000  Uiso   1.00
O676   O     0.07138   0.85225   0.15894   0.00000  Uiso   1.00
O677   O     0.02094   0.80934   0.12898   0.00000  Uiso   1.00
N678   N     0.29370   0.85071   0.33158   0.00000  Uiso   1.00
O679   O     0.30472   0.88462   0.35723   0.00000  Uiso   1.00
O680   O     0.26514   0.82502   0.34442   0.00000  Uiso   1.00
N681   N     0.28245   0.82189   0.16865   0.00000  Uiso   1.00
O682   O     0.26302   0.78523   0.15930   0.00000  Uiso   1.00
O683   O     0.27637   0.85502   0.14261   0.00000  Uiso   1.00
N684   N     0.04907   0.85043   0.32919   0.00000  Uiso   1.00
O685   O     0.04787   0.82364   0.36183   0.00000  Uiso   1.00
O686   O     0.06888   0.88724   0.33545   0.00000  Uiso   1.00
O687   O     0.43892   0.87154   0.24999   0.00000  Uiso   1.00
O688   O     0.56108   0.79513   0.25001   0.00000  Uiso   1.00
O689   O     0.56108   0.87154   0.25001   0.00000  Uiso   1.00
O690   O     0.43892   0.79513   0.24999   0.00000  Uiso   1.00
N691   N     0.50000   0.95240   0.25000   0.00000  Uiso   1.00
N692   N     0.50000   0.71427   0.25000   0.00000  Uiso   1.00
C693   C     0.42027   0.83405   0.24822   0.00000  Uiso   1.00
C694   C     0.57962   0.83271   0.25074   0.00000  Uiso   1.00
O695   O     0.50000   0.87155   0.18453   0.00000  Uiso   1.00
O696   O     0.50000   0.79511   0.31547   0.00000  Uiso   1.00
O697   O     0.50000   0.87155   0.31547   0.00000  Uiso   1.00
O698   O     0.50000   0.79511   0.18453   0.00000  Uiso   1.00
C699   C     0.50068   0.83263   0.16407   0.00000  Uiso   1.00
C700   C     0.50013   0.83406   0.33580   0.00000  Uiso   1.00
Zn701  Zn    0.50000   0.88437   0.25000   0.00000  Uiso   1.00
Zn702  Zn    0.50000   0.78229   0.25000   0.00000  Uiso   1.00
C703   C     0.52775   0.69080   0.27778   0.00000  Uiso   1.00
C704   C     0.47196   0.97611   0.22337   0.00000  Uiso   1.00
C705   C     0.47613   0.68927   0.21908   0.00000  Uiso   1.00
C706   C     0.52636   0.97650   0.27925   0.00000  Uiso   1.00
C707   C     0.35214   0.83021   0.20679   0.00000  Uiso   1.00
C708   C     0.64721   0.84106   0.29020   0.00000  Uiso   1.00
C709   C     0.64208   0.82661   0.20876   0.00000  Uiso   1.00
C710   C     0.35717   0.84268   0.28879   0.00000  Uiso   1.00
C711   C     0.51536   0.87151   0.04996   0.00000  Uiso   1.00
C712   C     0.52651   0.80047   0.45156   0.00000  Uiso   1.00
C713   C     0.48359   0.86865   0.45434   0.00000  Uiso   1.00
C714   C     0.49656   0.79420   0.04384   0.00000  Uiso   1.00
H715   H     0.52347   0.90170   0.03473   0.00000  Uiso   1.00
H716   H     0.54404   0.77403   0.46816   0.00000  Uiso   1.00
H717   H     0.46697   0.89462   0.47311   0.00000  Uiso   1.00
H718   H     0.48910   0.76455   0.02377   0.00000  Uiso   1.00
C719   C     0.51372   0.87098   0.09581   0.00000  Uiso   1.00
C720   C     0.52449   0.80058   0.40552   0.00000  Uiso   1.00
C721   C     0.48173   0.86883   0.40822   0.00000  Uiso   1.00
C722   C     0.49511   0.79363   0.08976   0.00000  Uiso   1.00
H723   H     0.52071   0.90107   0.11535   0.00000  Uiso   1.00
H724   H     0.54052   0.77408   0.38692   0.00000  Uiso   1.00
H725   H     0.46375   0.89489   0.39183   0.00000  Uiso   1.00
H726   H     0.48682   0.76351   0.10423   0.00000  Uiso   1.00
C727   C     0.50323   0.83207   0.11596   0.00000  Uiso   1.00
C728   C     0.50226   0.83488   0.38383   0.00000  Uiso   1.00
C729   C     0.50639   0.83324   0.02398   0.00000  Uiso   1.00
C730   C     0.50590   0.83439   0.47595   0.00000  Uiso   1.00
C731   C     0.62388   0.83135   0.25032   0.00000  Uiso   1.00
C732   C     0.37580   0.83628   0.24756   0.00000  Uiso   1.00
C733   C     0.56517   0.71365   0.30106   0.00000  Uiso   1.00
C734   C     0.60465   0.70584   0.27361   0.00000  Uiso   1.00
C735   C     0.64459   0.71918   0.30042   0.00000  Uiso   1.00
H736   H     0.64131   0.75371   0.31400   0.00000  Uiso   1.00
H737   H     0.65096   0.69683   0.32855   0.00000  Uiso   1.00
H738   H     0.33840   0.71669   0.27850   0.00000  Uiso   1.00
H739   H     0.60842   0.67039   0.26285   0.00000  Uiso   1.00
H740   H     0.60146   0.72467   0.24267   0.00000  Uiso   1.00
H741   H     0.55897   0.74900   0.30723   0.00000  Uiso   1.00
H742   H     0.57174   0.70227   0.33530   0.00000  Uiso   1.00
C743   C     0.43276   0.95495   0.20264   0.00000  Uiso   1.00
C744   C     0.39603   0.96263   0.23390   0.00000  Uiso   1.00
C745   C     0.35381   0.95200   0.21017   0.00000  Uiso   1.00
H746   H     0.34508   0.97718   0.18517   0.00000  Uiso   1.00
H747   H     0.35535   0.91893   0.19287   0.00000  Uiso   1.00
H748   H     0.66238   0.95220   0.23493   0.00000  Uiso   1.00
H749   H     0.40107   0.94229   0.26364   0.00000  Uiso   1.00
H750   H     0.39436   0.99777   0.24639   0.00000  Uiso   1.00
H751   H     0.42307   0.96824   0.16994   0.00000  Uiso   1.00
H752   H     0.43873   0.91986   0.19418   0.00000  Uiso   1.00
C753   C     0.46644   0.70531   0.17269   0.00000  Uiso   1.00
C754   C     0.42264   0.72791   0.16654   0.00000  Uiso   1.00
C755   C     0.40197   0.71687   0.12032   0.00000  Uiso   1.00
H756   H     0.41829   0.73332   0.09408   0.00000  Uiso   1.00
H757   H     0.40258   0.68064   0.11261   0.00000  Uiso   1.00
H758   H     0.36846   0.72823   0.11933   0.00000  Uiso   1.00
H759   H     0.40141   0.71770   0.19219   0.00000  Uiso   1.00
H760   H     0.42576   0.76413   0.17055   0.00000  Uiso   1.00
H761   H     0.49233   0.72502   0.16330   0.00000  Uiso   1.00
H762   H     0.47006   0.67727   0.14775   0.00000  Uiso   1.00
C763   C     0.55128   0.95375   0.31678   0.00000  Uiso   1.00
C764   C     0.53018   0.96274   0.36145   0.00000  Uiso   1.00
C765   C     0.55682   0.94363   0.40019   0.00000  Uiso   1.00
H766   H     0.56230   0.90743   0.39441   0.00000  Uiso   1.00
H767   H     0.58763   0.95992   0.40388   0.00000  Uiso   1.00
H768   H     0.54021   0.94953   0.43170   0.00000  Uiso   1.00
H769   H     0.52477   0.99872   0.36875   0.00000  Uiso   1.00
H770   H     0.49876   0.94797   0.35934   0.00000  Uiso   1.00
H771   H     0.55437   0.91814   0.31059   0.00000  Uiso   1.00
H772   H     0.58442   0.96401   0.31945   0.00000  Uiso   1.00
N773   N     0.37154   0.82951   0.16411   0.00000  Uiso   1.00
O774   O     0.40471   0.85225   0.15894   0.00000  Uiso   1.00
O775   O     0.35427   0.80934   0.12898   0.00000  Uiso   1.00
N776   N     0.62703   0.85071   0.33158   0.00000  Uiso   1.00
O777   O     0.63805   0.88462   0.35723   0.00000  Uiso   1.00
O778   O     0.59848   0.82502   0.34442   0.00000  Uiso   1.00
N779   N     0.61579   0.82189   0.16865   0.00000  Uiso   1.00
O780   O     0.59635   0.78523   0.15930   0.00000  Uiso   1.00
O781   O     0.60970   0.85502   0.14261   0.00000  Uiso   1.00
N782   N     0.38241   0.85043   0.32919   0.00000  Uiso   1.00
O783   O     0.38121   0.82364   0.36183   0.00000  Uiso   1.00
O784   O     0.40221   0.88724   0.33545   0.00000  Uiso   1.00
O785   O     0.77226   0.87154   0.24999   0.00000  Uiso   1.00
O786   O     0.89441   0.79513   0.25001   0.00000  Uiso   1.00
O787   O     0.89441   0.87154   0.25001   0.00000  Uiso   1.00
O788   O     0.77226   0.79513   0.24999   0.00000  Uiso   1.00
N789   N     0.83333   0.95240   0.25000   0.00000  Uiso   1.00
N790   N     0.83333   0.71427   0.25000   0.00000  Uiso   1.00
C791   C     0.75360   0.83405   0.24822   0.00000  Uiso   1.00
C792   C     0.91296   0.83271   0.25074   0.00000  Uiso   1.00
O793   O     0.83333   0.87155   0.18453   0.00000  Uiso   1.00
O794   O     0.83334   0.79511   0.31547   0.00000  Uiso   1.00
O795   O     0.83334   0.87155   0.31547   0.00000  Uiso   1.00
O796   O     0.83333   0.79511   0.18453   0.00000  Uiso   1.00
C797   C     0.83402   0.83263   0.16407   0.00000  Uiso   1.00
C798   C     0.83346   0.83406   0.33580   0.00000  Uiso   1.00
Zn799  Zn    0.83333   0.88437   0.25000   0.00000  Uiso   1.00
Zn800  Zn    0.83333   0.78229   0.25000   0.00000  Uiso   1.00
C801   C     0.86109   0.69080   0.27778   0.00000  Uiso   1.00
C802   C     0.80530   0.97611   0.22337   0.00000  Uiso   1.00
C803   C     0.80946   0.68927   0.21908   0.00000  Uiso   1.00
C804   C     0.85970   0.97650   0.27925   0.00000  Uiso   1.00
C805   C     0.68547   0.83021   0.20679   0.00000  Uiso   1.00
C806   C     0.98054   0.84106   0.29020   0.00000  Uiso   1.00
C807   C     0.97541   0.82661   0.20876   0.00000  Uiso   1.00
C808   C     0.69050   0.84268   0.28879   0.00000  Uiso   1.00
C809   C     0.84869   0.87151   0.04996   0.00000  Uiso   1.00
C810   C     0.85984   0.80047   0.45156   0.00000  Uiso   1.00
C811   C     0.81692   0.86865   0.45434   0.00000  Uiso   1.00
C812   C     0.82990   0.79420   0.04384   0.00000  Uiso   1.00
H813   H     0.85680   0.90170   0.03473   0.00000  Uiso   1.00
H814   H     0.87737   0.77403   0.46816   0.00000  Uiso   1.00
H815   H     0.80030   0.89462   0.47311   0.00000  Uiso   1.00
H816   H     0.82243   0.76455   0.02377   0.00000  Uiso   1.00
C817   C     0.84706   0.87098   0.09581   0.00000  Uiso   1.00
C818   C     0.85782   0.80058   0.40552   0.00000  Uiso   1.00
C819   C     0.81507   0.86883   0.40822   0.00000  Uiso   1.00
C820   C     0.82845   0.79363   0.08976   0.00000  Uiso   1.00
H821   H     0.85404   0.90107   0.11535   0.00000  Uiso   1.00
H822   H     0.87386   0.77408   0.38692   0.00000  Uiso   1.00
H823   H     0.79708   0.89489   0.39183   0.00000  Uiso   1.00
H824   H     0.82015   0.76351   0.10423   0.00000  Uiso   1.00
C825   C     0.83657   0.83207   0.11596   0.00000  Uiso   1.00
C826   C     0.83559   0.83488   0.38383   0.00000  Uiso   1.00
C827   C     0.83972   0.83324   0.02398   0.00000  Uiso   1.00
C828   C     0.83923   0.83439   0.47595   0.00000  Uiso   1.00
C829   C     0.95721   0.83135   0.25032   0.00000  Uiso   1.00
C830   C     0.70914   0.83628   0.24756   0.00000  Uiso   1.00
C831   C     0.89851   0.71365   0.30106   0.00000  Uiso   1.00
C832   C     0.93799   0.70584   0.27361   0.00000  Uiso   1.00
C833   C     0.97792   0.71918   0.30042   0.00000  Uiso   1.00
H834   H     0.97465   0.75371   0.31400   0.00000  Uiso   1.00
H835   H     0.98429   0.69683   0.32855   0.00000  Uiso   1.00
H836   H     0.67174   0.71669   0.27850   0.00000  Uiso   1.00
H837   H     0.94176   0.67039   0.26285   0.00000  Uiso   1.00
H838   H     0.93479   0.72467   0.24267   0.00000  Uiso   1.00
H839   H     0.89230   0.74900   0.30723   0.00000  Uiso   1.00
H840   H     0.90507   0.70227   0.33530   0.00000  Uiso   1.00
C841   C     0.76610   0.95495   0.20264   0.00000  Uiso   1.00
C842   C     0.72937   0.96263   0.23390   0.00000  Uiso   1.00
C843   C     0.68714   0.95200   0.21017   0.00000  Uiso   1.00
H844   H     0.67842   0.97718   0.18517   0.00000  Uiso   1.00
H845   H     0.68869   0.91893   0.19287   0.00000  Uiso   1.00
H846   H     0.99571   0.95220   0.23493   0.00000  Uiso   1.00
H847   H     0.73440   0.94229   0.26364   0.00000  Uiso   1.00
H848   H     0.72770   0.99777   0.24639   0.00000  Uiso   1.00
H849   H     0.75640   0.96824   0.16994   0.00000  Uiso   1.00
H850   H     0.77206   0.91986   0.19418   0.00000  Uiso   1.00
C851   C     0.79978   0.70531   0.17269   0.00000  Uiso   1.00
C852   C     0.75598   0.72791   0.16654   0.00000  Uiso   1.00
C853   C     0.73531   0.71687   0.12032   0.00000  Uiso   1.00
H854   H     0.75162   0.73332   0.09408   0.00000  Uiso   1.00
H855   H     0.73591   0.68064   0.11261   0.00000  Uiso   1.00
H856   H     0.70179   0.72823   0.11933   0.00000  Uiso   1.00
H857   H     0.73474   0.71770   0.19219   0.00000  Uiso   1.00
H858   H     0.75909   0.76413   0.17055   0.00000  Uiso   1.00
H859   H     0.82567   0.72502   0.16330   0.00000  Uiso   1.00
H860   H     0.80339   0.67727   0.14775   0.00000  Uiso   1.00
C861   C     0.88461   0.95375   0.31678   0.00000  Uiso   1.00
C862   C     0.86351   0.96274   0.36145   0.00000  Uiso   1.00
C863   C     0.89015   0.94363   0.40019   0.00000  Uiso   1.00
H864   H     0.89564   0.90743   0.39441   0.00000  Uiso   1.00
H865   H     0.92096   0.95992   0.40388   0.00000  Uiso   1.00
H866   H     0.87354   0.94953   0.43170   0.00000  Uiso   1.00
H867   H     0.85810   0.99872   0.36875   0.00000  Uiso   1.00
H868   H     0.83209   0.94797   0.35934   0.00000  Uiso   1.00
H869   H     0.88770   0.91814   0.31059   0.00000  Uiso   1.00
H870   H     0.91775   0.96401   0.31945   0.00000  Uiso   1.00
N871   N     0.70487   0.82951   0.16411   0.00000  Uiso   1.00
O872   O     0.73804   0.85225   0.15894   0.00000  Uiso   1.00
O873   O     0.68760   0.80934   0.12898   0.00000  Uiso   1.00
N874   N     0.96036   0.85071   0.33158   0.00000  Uiso   1.00
O875   O     0.97138   0.88462   0.35723   0.00000  Uiso   1.00
O876   O     0.93181   0.82502   0.34442   0.00000  Uiso   1.00
N877   N     0.94912   0.82189   0.16865   0.00000  Uiso   1.00
O878   O     0.92968   0.78523   0.15930   0.00000  Uiso   1.00
O879   O     0.94304   0.85502   0.14261   0.00000  Uiso   1.00
N880   N     0.71574   0.85043   0.32919   0.00000  Uiso   1.00
O881   O     0.71454   0.82364   0.36183   0.00000  Uiso   1.00
O882   O     0.73554   0.88724   0.33545   0.00000  Uiso   1.00
O883   O     0.10559   0.20487   0.74999   0.00000  Uiso   1.00
O884   O     0.22774   0.12846   0.75001   0.00000  Uiso   1.00
O885   O     0.22774   0.20487   0.75001   0.00000  Uiso   1.00
O886   O     0.10559   0.12846   0.74999   0.00000  Uiso   1.00
N887   N     0.16667   0.28573   0.75000   0.00000  Uiso   1.00
N888   N     0.16667   0.04760   0.75000   0.00000  Uiso   1.00
C889   C     0.08694   0.16738   0.74822   0.00000  Uiso   1.00
C890   C     0.24629   0.16604   0.75074   0.00000  Uiso   1.00
O891   O     0.16666   0.20489   0.68453   0.00000  Uiso   1.00
O892   O     0.16667   0.12845   0.81547   0.00000  Uiso   1.00
O893   O     0.16667   0.20489   0.81547   0.00000  Uiso   1.00
O894   O     0.16666   0.12845   0.68453   0.00000  Uiso   1.00
C895   C     0.16735   0.16596   0.66407   0.00000  Uiso   1.00
C896   C     0.16679   0.16740   0.83580   0.00000  Uiso   1.00
Zn897  Zn    0.16667   0.21771   0.75000   0.00000  Uiso   1.00
Zn898  Zn    0.16667   0.11563   0.75000   0.00000  Uiso   1.00
C899   C     0.19442   0.02414   0.77778   0.00000  Uiso   1.00
C900   C     0.13863   0.30945   0.72337   0.00000  Uiso   1.00
C901   C     0.14279   0.02260   0.71908   0.00000  Uiso   1.00
C902   C     0.19303   0.30983   0.77925   0.00000  Uiso   1.00
C903   C     0.01880   0.16354   0.70679   0.00000  Uiso   1.00
C904   C     0.31388   0.17440   0.79020   0.00000  Uiso   1.00
C905   C     0.30875   0.15994   0.70876   0.00000  Uiso   1.00
C906   C     0.02384   0.17601   0.78879   0.00000  Uiso   1.00
C907   C     0.18203   0.20484   0.54996   0.00000  Uiso   1.00
C908   C     0.19317   0.13380   0.95156   0.00000  Uiso   1.00
C909   C     0.15025   0.20198   0.95434   0.00000  Uiso   1.00
C910   C     0.16323   0.12754   0.54384   0.00000  Uiso   1.00
H911   H     0.19014   0.23504   0.53473   0.00000  Uiso   1.00
H912   H     0.21070   0.10736   0.96816   0.00000  Uiso   1.00
H913   H     0.13364   0.22795   0.97311   0.00000  Uiso   1.00
H914   H     0.15577   0.09788   0.52377   0.00000  Uiso   1.00
C915   C     0.18039   0.20431   0.59581   0.00000  Uiso   1.00
C916   C     0.19116   0.13392   0.90552   0.00000  Uiso   1.00
C917   C     0.14840   0.20216   0.90822   0.00000  Uiso   1.00
C918   C     0.16178   0.12697   0.58976   0.00000  Uiso   1.00
H919   H     0.18738   0.23441   0.61535   0.00000  Uiso   1.00
H920   H     0.20719   0.10741   0.88692   0.00000  Uiso   1.00
H921   H     0.13042   0.22822   0.89183   0.00000  Uiso   1.00
H922   H     0.15349   0.09684   0.60423   0.00000  Uiso   1.00
C923   C     0.16990   0.16540   0.61596   0.00000  Uiso   1.00
C924   C     0.16892   0.16822   0.88383   0.00000  Uiso   1.00
C925   C     0.17306   0.16657   0.52398   0.00000  Uiso   1.00
C926   C     0.17256   0.16772   0.97595   0.00000  Uiso   1.00
C927   C     0.29054   0.16468   0.75032   0.00000  Uiso   1.00
C928   C     0.04247   0.16961   0.74756   0.00000  Uiso   1.00
C929   C     0.23184   0.04698   0.80106   0.00000  Uiso   1.00
C930   C     0.27132   0.03917   0.77361   0.00000  Uiso   1.00
C931   C     0.31125   0.05251   0.80042   0.00000  Uiso   1.00
H932   H     0.30798   0.08704   0.81400   0.00000  Uiso   1.00
H933   H     0.31762   0.03016   0.82855   0.00000  Uiso   1.00
H934   H     0.00507   0.05002   0.77850   0.00000  Uiso   1.00
H935   H     0.27509   0.00372   0.76285   0.00000  Uiso   1.00
H936   H     0.26812   0.05800   0.74267   0.00000  Uiso   1.00
H937   H     0.22563   0.08233   0.80723   0.00000  Uiso   1.00
H938   H     0.23840   0.03560   0.83530   0.00000  Uiso   1.00
C939   C     0.09943   0.28828   0.70264   0.00000  Uiso   1.00
C940   C     0.06270   0.29597   0.73390   0.00000  Uiso   1.00
C941   C     0.02048   0.28533   0.71017   0.00000  Uiso   1.00
H942   H     0.01175   0.31051   0.68517   0.00000  Uiso   1.00
H943   H     0.02202   0.25226   0.69287   0.00000  Uiso   1.00
H944   H     0.32905   0.28554   0.73493   0.00000  Uiso   1.00
H945   H     0.06773   0.27562   0.76364   0.00000  Uiso   1.00
H946   H     0.06103   0.33110   0.74639   0.00000  Uiso   1.00
H947   H     0.08974   0.30157   0.66994   0.00000  Uiso   1.00
H948   H     0.10540   0.25319   0.69418   0.00000  Uiso   1.00
C949   C     0.13311   0.03865   0.67269   0.00000  Uiso   1.00
C950   C     0.08931   0.06125   0.66654   0.00000  Uiso   1.00
C951   C     0.06864   0.05020   0.62032   0.00000  Uiso   1.00
H952   H     0.08495   0.06665   0.59408   0.00000  Uiso   1.00
H953   H     0.06925   0.01397   0.61261   0.00000  Uiso   1.00
H954   H     0.03513   0.06156   0.61933   0.00000  Uiso   1.00
H955   H     0.06808   0.05104   0.69219   0.00000  Uiso   1.00
H956   H     0.09242   0.09746   0.67055   0.00000  Uiso   1.00
H957   H     0.15900   0.05836   0.66330   0.00000  Uiso   1.00
H958   H     0.13672   0.01060   0.64775   0.00000  Uiso   1.00
C959   C     0.21794   0.28709   0.81678   0.00000  Uiso   1.00
C960   C     0.19685   0.29607   0.86145   0.00000  Uiso   1.00
C961   C     0.22348   0.27697   0.90019   0.00000  Uiso   1.00
H962   H     0.22897   0.24076   0.89441   0.00000  Uiso   1.00
H963   H     0.25429   0.29325   0.90388   0.00000  Uiso   1.00
H964   H     0.20688   0.28286   0.93170   0.00000  Uiso   1.00
H965   H     0.19144   0.33205   0.86875   0.00000  Uiso   1.00
H966   H     0.16543   0.28130   0.85934   0.00000  Uiso   1.00
H967   H     0.22104   0.25148   0.81059   0.00000  Uiso   1.00
H968   H     0.25108   0.29735   0.81945   0.00000  Uiso   1.00
N969   N     0.03821   0.16284   0.66411   0.00000  Uiso   1.00
O970   O     0.07138   0.18559   0.65894   0.00000  Uiso   1.00
O971   O     0.02094   0.14268   0.62898   0.00000  Uiso   1.00
N972   N     0.29370   0.18404   0.83158   0.00000  Uiso   1.00
O973   O     0.30472   0.21795   0.85723   0.00000  Uiso   1.00
O974   O     0.26514   0.15835   0.84442   0.00000  Uiso   1.00
N975   N     0.28245   0.15522   0.66865   0.00000  Uiso   1.00
O976   O     0.26302   0.11857   0.65930   0.00000  Uiso   1.00
O977   O     0.27637   0.18835   0.64261   0.00000  Uiso   1.00
N978   N     0.04907   0.18376   0.82919   0.00000  Uiso   1.00
O979   O     0.04787   0.15697   0.86183   0.00000  Uiso   1.00
O980   O     0.06888   0.22057   0.83545   0.00000  Uiso   1.00
O981   O     0.43892   0.20487   0.74999   0.00000  Uiso   1.00
O982   O     0.56108   0.12846   0.75001   0.00000  Uiso   1.00
O983   O     0.56108   0.20487   0.75001   0.00000  Uiso   1.00
O984   O     0.43892   0.12846   0.74999   0.00000  Uiso   1.00
N985   N     0.50000   0.28573   0.75000   0.00000  Uiso   1.00
N986   N     0.50000   0.04760   0.75000   0.00000  Uiso   1.00
C987   C     0.42027   0.16738   0.74822   0.00000  Uiso   1.00
C988   C     0.57962   0.16604   0.75074   0.00000  Uiso   1.00
O989   O     0.50000   0.20489   0.68453   0.00000  Uiso   1.00
O990   O     0.50000   0.12845   0.81547   0.00000  Uiso   1.00
O991   O     0.50000   0.20489   0.81547   0.00000  Uiso   1.00
O992   O     0.50000   0.12845   0.68453   0.00000  Uiso   1.00
C993   C     0.50068   0.16596   0.66407   0.00000  Uiso   1.00
C994   C     0.50013   0.16740   0.83580   0.00000  Uiso   1.00
Zn995  Zn    0.50000   0.21771   0.75000   0.00000  Uiso   1.00
Zn996  Zn    0.50000   0.11563   0.75000   0.00000  Uiso   1.00
C997   C     0.52775   0.02414   0.77778   0.00000  Uiso   1.00
C998   C     0.47196   0.30945   0.72337   0.00000  Uiso   1.00
C999   C     0.47613   0.02260   0.71908   0.00000  Uiso   1.00
C1000  C     0.52636   0.30983   0.77925   0.00000  Uiso   1.00
C1001  C     0.35214   0.16354   0.70679   0.00000  Uiso   1.00
C1002  C     0.64721   0.17440   0.79020   0.00000  Uiso   1.00
C1003  C     0.64208   0.15994   0.70876   0.00000  Uiso   1.00
C1004  C     0.35717   0.17601   0.78879   0.00000  Uiso   1.00
C1005  C     0.51536   0.20484   0.54996   0.00000  Uiso   1.00
C1006  C     0.52651   0.13380   0.95156   0.00000  Uiso   1.00
C1007  C     0.48359   0.20198   0.95434   0.00000  Uiso   1.00
C1008  C     0.49656   0.12754   0.54384   0.00000  Uiso   1.00
H1009  H     0.52347   0.23504   0.53473   0.00000  Uiso   1.00
H1010  H     0.54404   0.10736   0.96816   0.00000  Uiso   1.00
H1011  H     0.46697   0.22795   0.97311   0.00000  Uiso   1.00
H1012  H     0.48910   0.09788   0.52377   0.00000  Uiso   1.00
C1013  C     0.51372   0.20431   0.59581   0.00000  Uiso   1.00
C1014  C     0.52449   0.13392   0.90552   0.00000  Uiso   1.00
C1015  C     0.48173   0.20216   0.90822   0.00000  Uiso   1.00
C1016  C     0.49511   0.12697   0.58976   0.00000  Uiso   1.00
H1017  H     0.52071   0.23441   0.61535   0.00000  Uiso   1.00
H1018  H     0.54052   0.10741   0.88692   0.00000  Uiso   1.00
H1019  H     0.46375   0.22822   0.89183   0.00000  Uiso   1.00
H1020  H     0.48682   0.09684   0.60423   0.00000  Uiso   1.00
C1021  C     0.50323   0.16540   0.61596   0.00000  Uiso   1.00
C1022  C     0.50226   0.16822   0.88383   0.00000  Uiso   1.00
C1023  C     0.50639   0.16657   0.52398   0.00000  Uiso   1.00
C1024  C     0.50590   0.16772   0.97595   0.00000  Uiso   1.00
C1025  C     0.62388   0.16468   0.75032   0.00000  Uiso   1.00
C1026  C     0.37580   0.16961   0.74756   0.00000  Uiso   1.00
C1027  C     0.56517   0.04698   0.80106   0.00000  Uiso   1.00
C1028  C     0.60465   0.03917   0.77361   0.00000  Uiso   1.00
C1029  C     0.64459   0.05251   0.80042   0.00000  Uiso   1.00
H1030  H     0.64131   0.08704   0.81400   0.00000  Uiso   1.00
H1031  H     0.65096   0.03016   0.82855   0.00000  Uiso   1.00
H1032  H     0.33840   0.05002   0.77850   0.00000  Uiso   1.00
H1033  H     0.60842   0.00372   0.76285   0.00000  Uiso   1.00
H1034  H     0.60146   0.05800   0.74267   0.00000  Uiso   1.00
H1035  H     0.55897   0.08233   0.80723   0.00000  Uiso   1.00
H1036  H     0.57174   0.03560   0.83530   0.00000  Uiso   1.00
C1037  C     0.43276   0.28828   0.70264   0.00000  Uiso   1.00
C1038  C     0.39603   0.29597   0.73390   0.00000  Uiso   1.00
C1039  C     0.35381   0.28533   0.71017   0.00000  Uiso   1.00
H1040  H     0.34508   0.31051   0.68517   0.00000  Uiso   1.00
H1041  H     0.35535   0.25226   0.69287   0.00000  Uiso   1.00
H1042  H     0.66238   0.28554   0.73493   0.00000  Uiso   1.00
H1043  H     0.40107   0.27562   0.76364   0.00000  Uiso   1.00
H1044  H     0.39436   0.33110   0.74639   0.00000  Uiso   1.00
H1045  H     0.42307   0.30157   0.66994   0.00000  Uiso   1.00
H1046  H     0.43873   0.25319   0.69418   0.00000  Uiso   1.00
C1047  C     0.46644   0.03865   0.67269   0.00000  Uiso   1.00
C1048  C     0.42264   0.06125   0.66654   0.00000  Uiso   1.00
C1049  C     0.40197   0.05020   0.62032   0.00000  Uiso   1.00
H1050  H     0.41829   0.06665   0.59408   0.00000  Uiso   1.00
H1051  H     0.40258   0.01397   0.61261   0.00000  Uiso   1.00
H1052  H     0.36846   0.06156   0.61933   0.00000  Uiso   1.00
H1053  H     0.40141   0.05104   0.69219   0.00000  Uiso   1.00
H1054  H     0.42576   0.09746   0.67055   0.00000  Uiso   1.00
H1055  H     0.49233   0.05836   0.66330   0.00000  Uiso   1.00
H1056  H     0.47006   0.01060   0.64775   0.00000  Uiso   1.00
C1057  C     0.55128   0.28709   0.81678   0.00000  Uiso   1.00
C1058  C     0.53018   0.29607   0.86145   0.00000  Uiso   1.00
C1059  C     0.55682   0.27697   0.90019   0.00000  Uiso   1.00
H1060  H     0.56230   0.24076   0.89441   0.00000  Uiso   1.00
H1061  H     0.58763   0.29325   0.90388   0.00000  Uiso   1.00
H1062  H     0.54021   0.28286   0.93170   0.00000  Uiso   1.00
H1063  H     0.52477   0.33205   0.86875   0.00000  Uiso   1.00
H1064  H     0.49876   0.28130   0.85934   0.00000  Uiso   1.00
H1065  H     0.55437   0.25148   0.81059   0.00000  Uiso   1.00
H1066  H     0.58442   0.29735   0.81945   0.00000  Uiso   1.00
N1067  N     0.37154   0.16284   0.66411   0.00000  Uiso   1.00
O1068  O     0.40471   0.18559   0.65894   0.00000  Uiso   1.00
O1069  O     0.35427   0.14268   0.62898   0.00000  Uiso   1.00
N1070  N     0.62703   0.18404   0.83158   0.00000  Uiso   1.00
O1071  O     0.63805   0.21795   0.85723   0.00000  Uiso   1.00
O1072  O     0.59848   0.15835   0.84442   0.00000  Uiso   1.00
N1073  N     0.61579   0.15522   0.66865   0.00000  Uiso   1.00
O1074  O     0.59635   0.11857   0.65930   0.00000  Uiso   1.00
O1075  O     0.60970   0.18835   0.64261   0.00000  Uiso   1.00
N1076  N     0.38241   0.18376   0.82919   0.00000  Uiso   1.00
O1077  O     0.38121   0.15697   0.86183   0.00000  Uiso   1.00
O1078  O     0.40221   0.22057   0.83545   0.00000  Uiso   1.00
O1079  O     0.77226   0.20487   0.74999   0.00000  Uiso   1.00
O1080  O     0.89441   0.12846   0.75001   0.00000  Uiso   1.00
O1081  O     0.89441   0.20487   0.75001   0.00000  Uiso   1.00
O1082  O     0.77226   0.12846   0.74999   0.00000  Uiso   1.00
N1083  N     0.83333   0.28573   0.75000   0.00000  Uiso   1.00
N1084  N     0.83333   0.04760   0.75000   0.00000  Uiso   1.00
C1085  C     0.75360   0.16738   0.74822   0.00000  Uiso   1.00
C1086  C     0.91296   0.16604   0.75074   0.00000  Uiso   1.00
O1087  O     0.83333   0.20489   0.68453   0.00000  Uiso   1.00
O1088  O     0.83334   0.12845   0.81547   0.00000  Uiso   1.00
O1089  O     0.83334   0.20489   0.81547   0.00000  Uiso   1.00
O1090  O     0.83333   0.12845   0.68453   0.00000  Uiso   1.00
C1091  C     0.83402   0.16596   0.66407   0.00000  Uiso   1.00
C1092  C     0.83346   0.16740   0.83580   0.00000  Uiso   1.00
Zn1093 Zn    0.83333   0.21771   0.75000   0.00000  Uiso   1.00
Zn1094 Zn    0.83333   0.11563   0.75000   0.00000  Uiso   1.00
C1095  C     0.86109   0.02414   0.77778   0.00000  Uiso   1.00
C1096  C     0.80530   0.30945   0.72337   0.00000  Uiso   1.00
C1097  C     0.80946   0.02260   0.71908   0.00000  Uiso   1.00
C1098  C     0.85970   0.30983   0.77925   0.00000  Uiso   1.00
C1099  C     0.68547   0.16354   0.70679   0.00000  Uiso   1.00
C1100  C     0.98054   0.17440   0.79020   0.00000  Uiso   1.00
C1101  C     0.97541   0.15994   0.70876   0.00000  Uiso   1.00
C1102  C     0.69050   0.17601   0.78879   0.00000  Uiso   1.00
C1103  C     0.84869   0.20484   0.54996   0.00000  Uiso   1.00
C1104  C     0.85984   0.13380   0.95156   0.00000  Uiso   1.00
C1105  C     0.81692   0.20198   0.95434   0.00000  Uiso   1.00
C1106  C     0.82990   0.12754   0.54384   0.00000  Uiso   1.00
H1107  H     0.85680   0.23504   0.53473   0.00000  Uiso   1.00
H1108  H     0.87737   0.10736   0.96816   0.00000  Uiso   1.00
H1109  H     0.80030   0.22795   0.97311   0.00000  Uiso   1.00
H1110  H     0.82243   0.09788   0.52377   0.00000  Uiso   1.00
C1111  C     0.84706   0.20431   0.59581   0.00000  Uiso   1.00
C1112  C     0.85782   0.13392   0.90552   0.00000  Uiso   1.00
C1113  C     0.81507   0.20216   0.90822   0.00000  Uiso   1.00
C1114  C     0.82845   0.12697   0.58976   0.00000  Uiso   1.00
H1115  H     0.85404   0.23441   0.61535   0.00000  Uiso   1.00
H1116  H     0.87386   0.10741   0.88692   0.00000  Uiso   1.00
H1117  H     0.79708   0.22822   0.89183   0.00000  Uiso   1.00
H1118  H     0.82015   0.09684   0.60423   0.00000  Uiso   1.00
C1119  C     0.83657   0.16540   0.61596   0.00000  Uiso   1.00
C1120  C     0.83559   0.16822   0.88383   0.00000  Uiso   1.00
C1121  C     0.83972   0.16657   0.52398   0.00000  Uiso   1.00
C1122  C     0.83923   0.16772   0.97595   0.00000  Uiso   1.00
C1123  C     0.95721   0.16468   0.75032   0.00000  Uiso   1.00
C1124  C     0.70914   0.16961   0.74756   0.00000  Uiso   1.00
C1125  C     0.89851   0.04698   0.80106   0.00000  Uiso   1.00
C1126  C     0.93799   0.03917   0.77361   0.00000  Uiso   1.00
C1127  C     0.97792   0.05251   0.80042   0.00000  Uiso   1.00
H1128  H     0.97465   0.08704   0.81400   0.00000  Uiso   1.00
H1129  H     0.98429   0.03016   0.82855   0.00000  Uiso   1.00
H1130  H     0.67174   0.05002   0.77850   0.00000  Uiso   1.00
H1131  H     0.94176   0.00372   0.76285   0.00000  Uiso   1.00
H1132  H     0.93479   0.05800   0.74267   0.00000  Uiso   1.00
H1133  H     0.89230   0.08233   0.80723   0.00000  Uiso   1.00
H1134  H     0.90507   0.03560   0.83530   0.00000  Uiso   1.00
C1135  C     0.76610   0.28828   0.70264   0.00000  Uiso   1.00
C1136  C     0.72937   0.29597   0.73390   0.00000  Uiso   1.00
C1137  C     0.68714   0.28533   0.71017   0.00000  Uiso   1.00
H1138  H     0.67842   0.31051   0.68517   0.00000  Uiso   1.00
H1139  H     0.68869   0.25226   0.69287   0.00000  Uiso   1.00
H1140  H     0.99571   0.28554   0.73493   0.00000  Uiso   1.00
H1141  H     0.73440   0.27562   0.76364   0.00000  Uiso   1.00
H1142  H     0.72770   0.33110   0.74639   0.00000  Uiso   1.00
H1143  H     0.75640   0.30157   0.66994   0.00000  Uiso   1.00
H1144  H     0.77206   0.25319   0.69418   0.00000  Uiso   1.00
C1145  C     0.79978   0.03865   0.67269   0.00000  Uiso   1.00
C1146  C     0.75598   0.06125   0.66654   0.00000  Uiso   1.00
C1147  C     0.73531   0.05020   0.62032   0.00000  Uiso   1.00
H1148  H     0.75162   0.06665   0.59408   0.00000  Uiso   1.00
H1149  H     0.73591   0.01397   0.61261   0.00000  Uiso   1.00
H1150  H     0.70179   0.06156   0.61933   0.00000  Uiso   1.00
H1151  H     0.73474   0.05104   0.69219   0.00000  Uiso   1.00
H1152  H     0.75909   0.09746   0.67055   0.00000  Uiso   1.00
H1153  H     0.82567   0.05836   0.66330   0.00000  Uiso   1.00
H1154  H     0.80339   0.01060   0.64775   0.00000  Uiso   1.00
C1155  C     0.88461   0.28709   0.81678   0.00000  Uiso   1.00
C1156  C     0.86351   0.29607   0.86145   0.00000  Uiso   1.00
C1157  C     0.89015   0.27697   0.90019   0.00000  Uiso   1.00
H1158  H     0.89564   0.24076   0.89441   0.00000  Uiso   1.00
H1159  H     0.92096   0.29325   0.90388   0.00000  Uiso   1.00
H1160  H     0.87354   0.28286   0.93170   0.00000  Uiso   1.00
H1161  H     0.85810   0.33205   0.86875   0.00000  Uiso   1.00
H1162  H     0.83209   0.28130   0.85934   0.00000  Uiso   1.00
H1163  H     0.88770   0.25148   0.81059   0.00000  Uiso   1.00
H1164  H     0.91775   0.29735   0.81945   0.00000  Uiso   1.00
N1165  N     0.70487   0.16284   0.66411   0.00000  Uiso   1.00
O1166  O     0.73804   0.18559   0.65894   0.00000  Uiso   1.00
O1167  O     0.68760   0.14268   0.62898   0.00000  Uiso   1.00
N1168  N     0.96036   0.18404   0.83158   0.00000  Uiso   1.00
O1169  O     0.97138   0.21795   0.85723   0.00000  Uiso   1.00
O1170  O     0.93181   0.15835   0.84442   0.00000  Uiso   1.00
N1171  N     0.94912   0.15522   0.66865   0.00000  Uiso   1.00
O1172  O     0.92968   0.11857   0.65930   0.00000  Uiso   1.00
O1173  O     0.94304   0.18835   0.64261   0.00000  Uiso   1.00
N1174  N     0.71574   0.18376   0.82919   0.00000  Uiso   1.00
O1175  O     0.71454   0.15697   0.86183   0.00000  Uiso   1.00
O1176  O     0.73554   0.22057   0.83545   0.00000  Uiso   1.00
O1177  O     0.10559   0.53821   0.74999   0.00000  Uiso   1.00
O1178  O     0.22774   0.46179   0.75001   0.00000  Uiso   1.00
O1179  O     0.22774   0.53821   0.75001   0.00000  Uiso   1.00
O1180  O     0.10559   0.46179   0.74999   0.00000  Uiso   1.00
N1181  N     0.16667   0.61907   0.75000   0.00000  Uiso   1.00
N1182  N     0.16667   0.38093   0.75000   0.00000  Uiso   1.00
C1183  C     0.08694   0.50071   0.74822   0.00000  Uiso   1.00
C1184  C     0.24629   0.49937   0.75074   0.00000  Uiso   1.00
O1185  O     0.16666   0.53822   0.68453   0.00000  Uiso   1.00
O1186  O     0.16667   0.46178   0.81547   0.00000  Uiso   1.00
O1187  O     0.16667   0.53822   0.81547   0.00000  Uiso   1.00
O1188  O     0.16666   0.46178   0.68453   0.00000  Uiso   1.00
C1189  C     0.16735   0.49929   0.66407   0.00000  Uiso   1.00
C1190  C     0.16679   0.50073   0.83580   0.00000  Uiso   1.00
Zn1191 Zn    0.16667   0.55104   0.75000   0.00000  Uiso   1.00
Zn1192 Zn    0.16667   0.44896   0.75000   0.00000  Uiso   1.00
C1193  C     0.19442   0.35747   0.77778   0.00000  Uiso   1.00
C1194  C     0.13863   0.64278   0.72337   0.00000  Uiso   1.00
C1195  C     0.14279   0.35593   0.71908   0.00000  Uiso   1.00
C1196  C     0.19303   0.64316   0.77925   0.00000  Uiso   1.00
C1197  C     0.01880   0.49688   0.70679   0.00000  Uiso   1.00
C1198  C     0.31388   0.50773   0.79020   0.00000  Uiso   1.00
C1199  C     0.30875   0.49328   0.70876   0.00000  Uiso   1.00
C1200  C     0.02384   0.50935   0.78879   0.00000  Uiso   1.00
C1201  C     0.18203   0.53818   0.54996   0.00000  Uiso   1.00
C1202  C     0.19317   0.46714   0.95156   0.00000  Uiso   1.00
C1203  C     0.15025   0.53531   0.95434   0.00000  Uiso   1.00
C1204  C     0.16323   0.46087   0.54384   0.00000  Uiso   1.00
H1205  H     0.19014   0.56837   0.53473   0.00000  Uiso   1.00
H1206  H     0.21070   0.44069   0.96816   0.00000  Uiso   1.00
H1207  H     0.13364   0.56128   0.97311   0.00000  Uiso   1.00
H1208  H     0.15577   0.43122   0.52377   0.00000  Uiso   1.00
C1209  C     0.18039   0.53764   0.59581   0.00000  Uiso   1.00
C1210  C     0.19116   0.46725   0.90552   0.00000  Uiso   1.00
C1211  C     0.14840   0.53549   0.90822   0.00000  Uiso   1.00
C1212  C     0.16178   0.46030   0.58976   0.00000  Uiso   1.00
H1213  H     0.18738   0.56774   0.61535   0.00000  Uiso   1.00
H1214  H     0.20719   0.44075   0.88692   0.00000  Uiso   1.00
H1215  H     0.13042   0.56155   0.89183   0.00000  Uiso   1.00
H1216  H     0.15349   0.43018   0.60423   0.00000  Uiso   1.00
C1217  C     0.16990   0.49873   0.61596   0.00000  Uiso   1.00
C1218  C     0.16892   0.50155   0.88383   0.00000  Uiso   1.00
C1219  C     0.17306   0.49991   0.52398   0.00000  Uiso   1.00
C1220  C     0.17256   0.50106   0.97595   0.00000  Uiso   1.00
C1221  C     0.29054   0.49802   0.75032   0.00000  Uiso   1.00
C1222  C     0.04247   0.50295   0.74756   0.00000  Uiso   1.00
C1223  C     0.23184   0.38032   0.80106   0.00000  Uiso   1.00
C1224  C     0.27132   0.37250   0.77361   0.00000  Uiso   1.00
C1225  C     0.31125   0.38585   0.80042   0.00000  Uiso   1.00
H1226  H     0.30798   0.42037   0.81400   0.00000  Uiso   1.00
H1227  H     0.31762   0.36350   0.82855   0.00000  Uiso   1.00
H1228  H     0.00507   0.38336   0.77850   0.00000  Uiso   1.00
H1229  H     0.27509   0.33705   0.76285   0.00000  Uiso   1.00
H1230  H     0.26812   0.39134   0.74267   0.00000  Uiso   1.00
H1231  H     0.22563   0.41566   0.80723   0.00000  Uiso   1.00
H1232  H     0.23840   0.36894   0.83530   0.00000  Uiso   1.00
C1233  C     0.09943   0.62161   0.70264   0.00000  Uiso   1.00
C1234  C     0.06270   0.62930   0.73390   0.00000  Uiso   1.00
C1235  C     0.02048   0.61866   0.71017   0.00000  Uiso   1.00
H1236  H     0.01175   0.64384   0.68517   0.00000  Uiso   1.00
H1237  H     0.02202   0.58560   0.69287   0.00000  Uiso   1.00
H1238  H     0.32905   0.61887   0.73493   0.00000  Uiso   1.00
H1239  H     0.06773   0.60896   0.76364   0.00000  Uiso   1.00
H1240  H     0.06103   0.66443   0.74639   0.00000  Uiso   1.00
H1241  H     0.08974   0.63490   0.66994   0.00000  Uiso   1.00
H1242  H     0.10540   0.58652   0.69418   0.00000  Uiso   1.00
C1243  C     0.13311   0.37198   0.67269   0.00000  Uiso   1.00
C1244  C     0.08931   0.39458   0.66654   0.00000  Uiso   1.00
C1245  C     0.06864   0.38354   0.62032   0.00000  Uiso   1.00
H1246  H     0.08495   0.39999   0.59408   0.00000  Uiso   1.00
H1247  H     0.06925   0.34730   0.61261   0.00000  Uiso   1.00
H1248  H     0.03513   0.39489   0.61933   0.00000  Uiso   1.00
H1249  H     0.06808   0.38437   0.69219   0.00000  Uiso   1.00
H1250  H     0.09242   0.43080   0.67055   0.00000  Uiso   1.00
H1251  H     0.15900   0.39169   0.66330   0.00000  Uiso   1.00
H1252  H     0.13672   0.34394   0.64775   0.00000  Uiso   1.00
C1253  C     0.21794   0.62042   0.81678   0.00000  Uiso   1.00
C1254  C     0.19685   0.62941   0.86145   0.00000  Uiso   1.00
C1255  C     0.22348   0.61030   0.90019   0.00000  Uiso   1.00
H1256  H     0.22897   0.57410   0.89441   0.00000  Uiso   1.00
H1257  H     0.25429   0.62658   0.90388   0.00000  Uiso   1.00
H1258  H     0.20688   0.61620   0.93170   0.00000  Uiso   1.00
H1259  H     0.19144   0.66538   0.86875   0.00000  Uiso   1.00
H1260  H     0.16543   0.61464   0.85934   0.00000  Uiso   1.00
H1261  H     0.22104   0.58481   0.81059   0.00000  Uiso   1.00
H1262  H     0.25108   0.63068   0.81945   0.00000  Uiso   1.00
N1263  N     0.03821   0.49618   0.66411   0.00000  Uiso   1.00
O1264  O     0.07138   0.51892   0.65894   0.00000  Uiso   1.00
O1265  O     0.02094   0.47601   0.62898   0.00000  Uiso   1.00
N1266  N     0.29370   0.51737   0.83158   0.00000  Uiso   1.00
O1267  O     0.30472   0.55129   0.85723   0.00000  Uiso   1.00
O1268  O     0.26514   0.49169   0.84442   0.00000  Uiso   1.00
N1269  N     0.28245   0.48855   0.66865   0.00000  Uiso   1.00
O1270  O     0.26302   0.45190   0.65930   0.00000  Uiso   1.00
O1271  O     0.27637   0.52169   0.64261   0.00000  Uiso   1.00
N1272  N     0.04907   0.51709   0.82919   0.00000  Uiso   1.00
O1273  O     0.04787   0.49031   0.86183   0.00000  Uiso   1.00
O1274  O     0.06888   0.55390   0.83545   0.00000  Uiso   1.00
O1275  O     0.43892   0.53821   0.74999   0.00000  Uiso   1.00
O1276  O     0.56108   0.46179   0.75001   0.00000  Uiso   1.00
O1277  O     0.56108   0.53821   0.75001   0.00000  Uiso   1.00
O1278  O     0.43892   0.46179   0.74999   0.00000  Uiso   1.00
N1279  N     0.50000   0.61907   0.75000   0.00000  Uiso   1.00
N1280  N     0.50000   0.38093   0.75000   0.00000  Uiso   1.00
C1281  C     0.42027   0.50071   0.74822   0.00000  Uiso   1.00
C1282  C     0.57962   0.49937   0.75074   0.00000  Uiso   1.00
O1283  O     0.50000   0.53822   0.68453   0.00000  Uiso   1.00
O1284  O     0.50000   0.46178   0.81547   0.00000  Uiso   1.00
O1285  O     0.50000   0.53822   0.81547   0.00000  Uiso   1.00
O1286  O     0.50000   0.46178   0.68453   0.00000  Uiso   1.00
C1287  C     0.50068   0.49929   0.66407   0.00000  Uiso   1.00
C1288  C     0.50013   0.50073   0.83580   0.00000  Uiso   1.00
Zn1289 Zn    0.50000   0.55104   0.75000   0.00000  Uiso   1.00
Zn1290 Zn    0.50000   0.44896   0.75000   0.00000  Uiso   1.00
C1291  C     0.52775   0.35747   0.77778   0.00000  Uiso   1.00
C1292  C     0.47196   0.64278   0.72337   0.00000  Uiso   1.00
C1293  C     0.47613   0.35593   0.71908   0.00000  Uiso   1.00
C1294  C     0.52636   0.64316   0.77925   0.00000  Uiso   1.00
C1295  C     0.35214   0.49688   0.70679   0.00000  Uiso   1.00
C1296  C     0.64721   0.50773   0.79020   0.00000  Uiso   1.00
C1297  C     0.64208   0.49328   0.70876   0.00000  Uiso   1.00
C1298  C     0.35717   0.50935   0.78879   0.00000  Uiso   1.00
C1299  C     0.51536   0.53818   0.54996   0.00000  Uiso   1.00
C1300  C     0.52651   0.46714   0.95156   0.00000  Uiso   1.00
C1301  C     0.48359   0.53531   0.95434   0.00000  Uiso   1.00
C1302  C     0.49656   0.46087   0.54384   0.00000  Uiso   1.00
H1303  H     0.52347   0.56837   0.53473   0.00000  Uiso   1.00
H1304  H     0.54404   0.44069   0.96816   0.00000  Uiso   1.00
H1305  H     0.46697   0.56128   0.97311   0.00000  Uiso   1.00
H1306  H     0.48910   0.43122   0.52377   0.00000  Uiso   1.00
C1307  C     0.51372   0.53764   0.59581   0.00000  Uiso   1.00
C1308  C     0.52449   0.46725   0.90552   0.00000  Uiso   1.00
C1309  C     0.48173   0.53549   0.90822   0.00000  Uiso   1.00
C1310  C     0.49511   0.46030   0.58976   0.00000  Uiso   1.00
H1311  H     0.52071   0.56774   0.61535   0.00000  Uiso   1.00
H1312  H     0.54052   0.44075   0.88692   0.00000  Uiso   1.00
H1313  H     0.46375   0.56155   0.89183   0.00000  Uiso   1.00
H1314  H     0.48682   0.43018   0.60423   0.00000  Uiso   1.00
C1315  C     0.50323   0.49873   0.61596   0.00000  Uiso   1.00
C1316  C     0.50226   0.50155   0.88383   0.00000  Uiso   1.00
C1317  C     0.50639   0.49991   0.52398   0.00000  Uiso   1.00
C1318  C     0.50590   0.50106   0.97595   0.00000  Uiso   1.00
C1319  C     0.62388   0.49802   0.75032   0.00000  Uiso   1.00
C1320  C     0.37580   0.50295   0.74756   0.00000  Uiso   1.00
C1321  C     0.56517   0.38032   0.80106   0.00000  Uiso   1.00
C1322  C     0.60465   0.37250   0.77361   0.00000  Uiso   1.00
C1323  C     0.64459   0.38585   0.80042   0.00000  Uiso   1.00
H1324  H     0.64131   0.42037   0.81400   0.00000  Uiso   1.00
H1325  H     0.65096   0.36350   0.82855   0.00000  Uiso   1.00
H1326  H     0.33840   0.38336   0.77850   0.00000  Uiso   1.00
H1327  H     0.60842   0.33705   0.76285   0.00000  Uiso   1.00
H1328  H     0.60146   0.39134   0.74267   0.00000  Uiso   1.00
H1329  H     0.55897   0.41566   0.80723   0.00000  Uiso   1.00
H1330  H     0.57174   0.36894   0.83530   0.00000  Uiso   1.00
C1331  C     0.43276   0.62161   0.70264   0.00000  Uiso   1.00
C1332  C     0.39603   0.62930   0.73390   0.00000  Uiso   1.00
C1333  C     0.35381   0.61866   0.71017   0.00000  Uiso   1.00
H1334  H     0.34508   0.64384   0.68517   0.00000  Uiso   1.00
H1335  H     0.35535   0.58560   0.69287   0.00000  Uiso   1.00
H1336  H     0.66238   0.61887   0.73493   0.00000  Uiso   1.00
H1337  H     0.40107   0.60896   0.76364   0.00000  Uiso   1.00
H1338  H     0.39436   0.66443   0.74639   0.00000  Uiso   1.00
H1339  H     0.42307   0.63490   0.66994   0.00000  Uiso   1.00
H1340  H     0.43873   0.58652   0.69418   0.00000  Uiso   1.00
C1341  C     0.46644   0.37198   0.67269   0.00000  Uiso   1.00
C1342  C     0.42264   0.39458   0.66654   0.00000  Uiso   1.00
C1343  C     0.40197   0.38354   0.62032   0.00000  Uiso   1.00
H1344  H     0.41829   0.39999   0.59408   0.00000  Uiso   1.00
H1345  H     0.40258   0.34730   0.61261   0.00000  Uiso   1.00
H1346  H     0.36846   0.39489   0.61933   0.00000  Uiso   1.00
H1347  H     0.40141   0.38437   0.69219   0.00000  Uiso   1.00
H1348  H     0.42576   0.43080   0.67055   0.00000  Uiso   1.00
H1349  H     0.49233   0.39169   0.66330   0.00000  Uiso   1.00
H1350  H     0.47006   0.34394   0.64775   0.00000  Uiso   1.00
C1351  C     0.55128   0.62042   0.81678   0.00000  Uiso   1.00
C1352  C     0.53018   0.62941   0.86145   0.00000  Uiso   1.00
C1353  C     0.55682   0.61030   0.90019   0.00000  Uiso   1.00
H1354  H     0.56230   0.57410   0.89441   0.00000  Uiso   1.00
H1355  H     0.58763   0.62658   0.90388   0.00000  Uiso   1.00
H1356  H     0.54021   0.61620   0.93170   0.00000  Uiso   1.00
H1357  H     0.52477   0.66538   0.86875   0.00000  Uiso   1.00
H1358  H     0.49876   0.61464   0.85934   0.00000  Uiso   1.00
H1359  H     0.55437   0.58481   0.81059   0.00000  Uiso   1.00
H1360  H     0.58442   0.63068   0.81945   0.00000  Uiso   1.00
N1361  N     0.37154   0.49618   0.66411   0.00000  Uiso   1.00
O1362  O     0.40471   0.51892   0.65894   0.00000  Uiso   1.00
O1363  O     0.35427   0.47601   0.62898   0.00000  Uiso   1.00
N1364  N     0.62703   0.51737   0.83158   0.00000  Uiso   1.00
O1365  O     0.63805   0.55129   0.85723   0.00000  Uiso   1.00
O1366  O     0.59848   0.49169   0.84442   0.00000  Uiso   1.00
N1367  N     0.61579   0.48855   0.66865   0.00000  Uiso   1.00
O1368  O     0.59635   0.45190   0.65930   0.00000  Uiso   1.00
O1369  O     0.60970   0.52169   0.64261   0.00000  Uiso   1.00
N1370  N     0.38241   0.51709   0.82919   0.00000  Uiso   1.00
O1371  O     0.38121   0.49031   0.86183   0.00000  Uiso   1.00
O1372  O     0.40221   0.55390   0.83545   0.00000  Uiso   1.00
O1373  O     0.77226   0.53821   0.74999   0.00000  Uiso   1.00
O1374  O     0.89441   0.46179   0.75001   0.00000  Uiso   1.00
O1375  O     0.89441   0.53821   0.75001   0.00000  Uiso   1.00
O1376  O     0.77226   0.46179   0.74999   0.00000  Uiso   1.00
N1377  N     0.83333   0.61907   0.75000   0.00000  Uiso   1.00
N1378  N     0.83333   0.38093   0.75000   0.00000  Uiso   1.00
C1379  C     0.75360   0.50071   0.74822   0.00000  Uiso   1.00
C1380  C     0.91296   0.49937   0.75074   0.00000  Uiso   1.00
O1381  O     0.83333   0.53822   0.68453   0.00000  Uiso   1.00
O1382  O     0.83334   0.46178   0.81547   0.00000  Uiso   1.00
O1383  O     0.83334   0.53822   0.81547   0.00000  Uiso   1.00
O1384  O     0.83333   0.46178   0.68453   0.00000  Uiso   1.00
C1385  C     0.83402   0.49929   0.66407   0.00000  Uiso   1.00
C1386  C     0.83346   0.50073   0.83580   0.00000  Uiso   1.00
Zn1387 Zn    0.83333   0.55104   0.75000   0.00000  Uiso   1.00
Zn1388 Zn    0.83333   0.44896   0.75000   0.00000  Uiso   1.00
C1389  C     0.86109   0.35747   0.77778   0.00000  Uiso   1.00
C1390  C     0.80530   0.64278   0.72337   0.00000  Uiso   1.00
C1391  C     0.80946   0.35593   0.71908   0.00000  Uiso   1.00
C1392  C     0.85970   0.64316   0.77925   0.00000  Uiso   1.00
C1393  C     0.68547   0.49688   0.70679   0.00000  Uiso   1.00
C1394  C     0.98054   0.50773   0.79020   0.00000  Uiso   1.00
C1395  C     0.97541   0.49328   0.70876   0.00000  Uiso   1.00
C1396  C     0.69050   0.50935   0.78879   0.00000  Uiso   1.00
C1397  C     0.84869   0.53818   0.54996   0.00000  Uiso   1.00
C1398  C     0.85984   0.46714   0.95156   0.00000  Uiso   1.00
C1399  C     0.81692   0.53531   0.95434   0.00000  Uiso   1.00
C1400  C     0.82990   0.46087   0.54384   0.00000  Uiso   1.00
H1401  H     0.85680   0.56837   0.53473   0.00000  Uiso   1.00
H1402  H     0.87737   0.44069   0.96816   0.00000  Uiso   1.00
H1403  H     0.80030   0.56128   0.97311   0.00000  Uiso   1.00
H1404  H     0.82243   0.43122   0.52377   0.00000  Uiso   1.00
C1405  C     0.84706   0.53764   0.59581   0.00000  Uiso   1.00
C1406  C     0.85782   0.46725   0.90552   0.00000  Uiso   1.00
C1407  C     0.81507   0.53549   0.90822   0.00000  Uiso   1.00
C1408  C     0.82845   0.46030   0.58976   0.00000  Uiso   1.00
H1409  H     0.85404   0.56774   0.61535   0.00000  Uiso   1.00
H1410  H     0.87386   0.44075   0.88692   0.00000  Uiso   1.00
H1411  H     0.79708   0.56155   0.89183   0.00000  Uiso   1.00
H1412  H     0.82015   0.43018   0.60423   0.00000  Uiso   1.00
C1413  C     0.83657   0.49873   0.61596   0.00000  Uiso   1.00
C1414  C     0.83559   0.50155   0.88383   0.00000  Uiso   1.00
C1415  C     0.83972   0.49991   0.52398   0.00000  Uiso   1.00
C1416  C     0.83923   0.50106   0.97595   0.00000  Uiso   1.00
C1417  C     0.95721   0.49802   0.75032   0.00000  Uiso   1.00
C1418  C     0.70914   0.50295   0.74756   0.00000  Uiso   1.00
C1419  C     0.89851   0.38032   0.80106   0.00000  Uiso   1.00
C1420  C     0.93799   0.37250   0.77361   0.00000  Uiso   1.00
C1421  C     0.97792   0.38585   0.80042   0.00000  Uiso   1.00
H1422  H     0.97465   0.42037   0.81400   0.00000  Uiso   1.00
H1423  H     0.98429   0.36350   0.82855   0.00000  Uiso   1.00
H1424  H     0.67174   0.38336   0.77850   0.00000  Uiso   1.00
H1425  H     0.94176   0.33705   0.76285   0.00000  Uiso   1.00
H1426  H     0.93479   0.39134   0.74267   0.00000  Uiso   1.00
H1427  H     0.89230   0.41566   0.80723   0.00000  Uiso   1.00
H1428  H     0.90507   0.36894   0.83530   0.00000  Uiso   1.00
C1429  C     0.76610   0.62161   0.70264   0.00000  Uiso   1.00
C1430  C     0.72937   0.62930   0.73390   0.00000  Uiso   1.00
C1431  C     0.68714   0.61866   0.71017   0.00000  Uiso   1.00
H1432  H     0.67842   0.64384   0.68517   0.00000  Uiso   1.00
H1433  H     0.68869   0.58560   0.69287   0.00000  Uiso   1.00
H1434  H     0.99571   0.61887   0.73493   0.00000  Uiso   1.00
H1435  H     0.73440   0.60896   0.76364   0.00000  Uiso   1.00
H1436  H     0.72770   0.66443   0.74639   0.00000  Uiso   1.00
H1437  H     0.75640   0.63490   0.66994   0.00000  Uiso   1.00
H1438  H     0.77206   0.58652   0.69418   0.00000  Uiso   1.00
C1439  C     0.79978   0.37198   0.67269   0.00000  Uiso   1.00
C1440  C     0.75598   0.39458   0.66654   0.00000  Uiso   1.00
C1441  C     0.73531   0.38354   0.62032   0.00000  Uiso   1.00
H1442  H     0.75162   0.39999   0.59408   0.00000  Uiso   1.00
H1443  H     0.73591   0.34730   0.61261   0.00000  Uiso   1.00
H1444  H     0.70179   0.39489   0.61933   0.00000  Uiso   1.00
H1445  H     0.73474   0.38437   0.69219   0.00000  Uiso   1.00
H1446  H     0.75909   0.43080   0.67055   0.00000  Uiso   1.00
H1447  H     0.82567   0.39169   0.66330   0.00000  Uiso   1.00
H1448  H     0.80339   0.34394   0.64775   0.00000  Uiso   1.00
C1449  C     0.88461   0.62042   0.81678   0.00000  Uiso   1.00
C1450  C     0.86351   0.62941   0.86145   0.00000  Uiso   1.00
C1451  C     0.89015   0.61030   0.90019   0.00000  Uiso   1.00
H1452  H     0.89564   0.57410   0.89441   0.00000  Uiso   1.00
H1453  H     0.92096   0.62658   0.90388   0.00000  Uiso   1.00
H1454  H     0.87354   0.61620   0.93170   0.00000  Uiso   1.00
H1455  H     0.85810   0.66538   0.86875   0.00000  Uiso   1.00
H1456  H     0.83209   0.61464   0.85934   0.00000  Uiso   1.00
H1457  H     0.88770   0.58481   0.81059   0.00000  Uiso   1.00
H1458  H     0.91775   0.63068   0.81945   0.00000  Uiso   1.00
N1459  N     0.70487   0.49618   0.66411   0.00000  Uiso   1.00
O1460  O     0.73804   0.51892   0.65894   0.00000  Uiso   1.00
O1461  O     0.68760   0.47601   0.62898   0.00000  Uiso   1.00
N1462  N     0.96036   0.51737   0.83158   0.00000  Uiso   1.00
O1463  O     0.97138   0.55129   0.85723   0.00000  Uiso   1.00
O1464  O     0.93181   0.49169   0.84442   0.00000  Uiso   1.00
N1465  N     0.94912   0.48855   0.66865   0.00000  Uiso   1.00
O1466  O     0.92968   0.45190   0.65930   0.00000  Uiso   1.00
O1467  O     0.94304   0.52169   0.64261   0.00000  Uiso   1.00
N1468  N     0.71574   0.51709   0.82919   0.00000  Uiso   1.00
O1469  O     0.71454   0.49031   0.86183   0.00000  Uiso   1.00
O1470  O     0.73554   0.55390   0.83545   0.00000  Uiso   1.00
O1471  O     0.10559   0.87154   0.74999   0.00000  Uiso   1.00
O1472  O     0.22774   0.79513   0.75001   0.00000  Uiso   1.00
O1473  O     0.22774   0.87154   0.75001   0.00000  Uiso   1.00
O1474  O     0.10559   0.79513   0.74999   0.00000  Uiso   1.00
N1475  N     0.16667   0.95240   0.75000   0.00000  Uiso   1.00
N1476  N     0.16667   0.71427   0.75000   0.00000  Uiso   1.00
C1477  C     0.08694   0.83405   0.74822   0.00000  Uiso   1.00
C1478  C     0.24629   0.83271   0.75074   0.00000  Uiso   1.00
O1479  O     0.16666   0.87155   0.68453   0.00000  Uiso   1.00
O1480  O     0.16667   0.79511   0.81547   0.00000  Uiso   1.00
O1481  O     0.16667   0.87155   0.81547   0.00000  Uiso   1.00
O1482  O     0.16666   0.79511   0.68453   0.00000  Uiso   1.00
C1483  C     0.16735   0.83263   0.66407   0.00000  Uiso   1.00
C1484  C     0.16679   0.83406   0.83580   0.00000  Uiso   1.00
Zn1485 Zn    0.16667   0.88437   0.75000   0.00000  Uiso   1.00
Zn1486 Zn    0.16667   0.78229   0.75000   0.00000  Uiso   1.00
C1487  C     0.19442   0.69080   0.77778   0.00000  Uiso   1.00
C1488  C     0.13863   0.97611   0.72337   0.00000  Uiso   1.00
C1489  C     0.14279   0.68927   0.71908   0.00000  Uiso   1.00
C1490  C     0.19303   0.97650   0.77925   0.00000  Uiso   1.00
C1491  C     0.01880   0.83021   0.70679   0.00000  Uiso   1.00
C1492  C     0.31388   0.84106   0.79020   0.00000  Uiso   1.00
C1493  C     0.30875   0.82661   0.70876   0.00000  Uiso   1.00
C1494  C     0.02384   0.84268   0.78879   0.00000  Uiso   1.00
C1495  C     0.18203   0.87151   0.54996   0.00000  Uiso   1.00
C1496  C     0.19317   0.80047   0.95156   0.00000  Uiso   1.00
C1497  C     0.15025   0.86865   0.95434   0.00000  Uiso   1.00
C1498  C     0.16323   0.79420   0.54384   0.00000  Uiso   1.00
H1499  H     0.19014   0.90170   0.53473   0.00000  Uiso   1.00
H1500  H     0.21070   0.77403   0.96816   0.00000  Uiso   1.00
H1501  H     0.13364   0.89462   0.97311   0.00000  Uiso   1.00
H1502  H     0.15577   0.76455   0.52377   0.00000  Uiso   1.00
C1503  C     0.18039   0.87098   0.59581   0.00000  Uiso   1.00
C1504  C     0.19116   0.80058   0.90552   0.00000  Uiso   1.00
C1505  C     0.14840   0.86883   0.90822   0.00000  Uiso   1.00
C1506  C     0.16178   0.79363   0.58976   0.00000  Uiso   1.00
H1507  H     0.18738   0.90107   0.61535   0.00000  Uiso   1.00
H1508  H     0.20719   0.77408   0.88692   0.00000  Uiso   1.00
H1509  H     0.13042   0.89489   0.89183   0.00000  Uiso   1.00
H1510  H     0.15349   0.76351   0.60423   0.00000  Uiso   1.00
C1511  C     0.16990   0.83207   0.61596   0.00000  Uiso   1.00
C1512  C     0.16892   0.83488   0.88383   0.00000  Uiso   1.00
C1513  C     0.17306   0.83324   0.52398   0.00000  Uiso   1.00
C1514  C     0.17256   0.83439   0.97595   0.00000  Uiso   1.00
C1515  C     0.29054   0.83135   0.75032   0.00000  Uiso   1.00
C1516  C     0.04247   0.83628   0.74756   0.00000  Uiso   1.00
C1517  C     0.23184   0.71365   0.80106   0.00000  Uiso   1.00
C1518  C     0.27132   0.70584   0.77361   0.00000  Uiso   1.00
C1519  C     0.31125   0.71918   0.80042   0.00000  Uiso   1.00
H1520  H     0.30798   0.75371   0.81400   0.00000  Uiso   1.00
H1521  H     0.31762   0.69683   0.82855   0.00000  Uiso   1.00
H1522  H     0.00507   0.71669   0.77850   0.00000  Uiso   1.00
H1523  H     0.27509   0.67039   0.76285   0.00000  Uiso   1.00
H1524  H     0.26812   0.72467   0.74267   0.00000  Uiso   1.00
H1525  H     0.22563   0.74900   0.80723   0.00000  Uiso   1.00
H1526  H     0.23840   0.70227   0.83530   0.00000  Uiso   1.00
C1527  C     0.09943   0.95495   0.70264   0.00000  Uiso   1.00
C1528  C     0.06270   0.96263   0.73390   0.00000  Uiso   1.00
C1529  C     0.02048   0.95200   0.71017   0.00000  Uiso   1.00
H1530  H     0.01175   0.97718   0.68517   0.00000  Uiso   1.00
H1531  H     0.02202   0.91893   0.69287   0.00000  Uiso   1.00
H1532  H     0.32905   0.95220   0.73493   0.00000  Uiso   1.00
H1533  H     0.06773   0.94229   0.76364   0.00000  Uiso   1.00
H1534  H     0.06103   0.99777   0.74639   0.00000  Uiso   1.00
H1535  H     0.08974   0.96824   0.66994   0.00000  Uiso   1.00
H1536  H     0.10540   0.91986   0.69418   0.00000  Uiso   1.00
C1537  C     0.13311   0.70531   0.67269   0.00000  Uiso   1.00
C1538  C     0.08931   0.72791   0.66654   0.00000  Uiso   1.00
C1539  C     0.06864   0.71687   0.62032   0.00000  Uiso   1.00
H1540  H     0.08495   0.73332   0.59408   0.00000  Uiso   1.00
H1541  H     0.06925   0.68064   0.61261   0.00000  Uiso   1.00
H1542  H     0.03513   0.72823   0.61933   0.00000  Uiso   1.00
H1543  H     0.06808   0.71770   0.69219   0.00000  Uiso   1.00
H1544  H     0.09242   0.76413   0.67055   0.00000  Uiso   1.00
H1545  H     0.15900   0.72502   0.66330   0.00000  Uiso   1.00
H1546  H     0.13672   0.67727   0.64775   0.00000  Uiso   1.00
C1547  C     0.21794   0.95375   0.81678   0.00000  Uiso   1.00
C1548  C     0.19685   0.96274   0.86145   0.00000  Uiso   1.00
C1549  C     0.22348   0.94363   0.90019   0.00000  Uiso   1.00
H1550  H     0.22897   0.90743   0.89441   0.00000  Uiso   1.00
H1551  H     0.25429   0.95992   0.90388   0.00000  Uiso   1.00
H1552  H     0.20688   0.94953   0.93170   0.00000  Uiso   1.00
H1553  H     0.19144   0.99872   0.86875   0.00000  Uiso   1.00
H1554  H     0.16543   0.94797   0.85934   0.00000  Uiso   1.00
H1555  H     0.22104   0.91814   0.81059   0.00000  Uiso   1.00
H1556  H     0.25108   0.96401   0.81945   0.00000  Uiso   1.00
N1557  N     0.03821   0.82951   0.66411   0.00000  Uiso   1.00
O1558  O     0.07138   0.85225   0.65894   0.00000  Uiso   1.00
O1559  O     0.02094   0.80934   0.62898   0.00000  Uiso   1.00
N1560  N     0.29370   0.85071   0.83158   0.00000  Uiso   1.00
O1561  O     0.30472   0.88462   0.85723   0.00000  Uiso   1.00
O1562  O     0.26514   0.82502   0.84442   0.00000  Uiso   1.00
N1563  N     0.28245   0.82189   0.66865   0.00000  Uiso   1.00
O1564  O     0.26302   0.78523   0.65930   0.00000  Uiso   1.00
O1565  O     0.27637   0.85502   0.64261   0.00000  Uiso   1.00
N1566  N     0.04907   0.85043   0.82919   0.00000  Uiso   1.00
O1567  O     0.04787   0.82364   0.86183   0.00000  Uiso   1.00
O1568  O     0.06888   0.88724   0.83545   0.00000  Uiso   1.00
O1569  O     0.43892   0.87154   0.74999   0.00000  Uiso   1.00
O1570  O     0.56108   0.79513   0.75001   0.00000  Uiso   1.00
O1571  O     0.56108   0.87154   0.75001   0.00000  Uiso   1.00
O1572  O     0.43892   0.79513   0.74999   0.00000  Uiso   1.00
N1573  N     0.50000   0.95240   0.75000   0.00000  Uiso   1.00
N1574  N     0.50000   0.71427   0.75000   0.00000  Uiso   1.00
C1575  C     0.42027   0.83405   0.74822   0.00000  Uiso   1.00
C1576  C     0.57962   0.83271   0.75074   0.00000  Uiso   1.00
O1577  O     0.50000   0.87155   0.68453   0.00000  Uiso   1.00
O1578  O     0.50000   0.79511   0.81547   0.00000  Uiso   1.00
O1579  O     0.50000   0.87155   0.81547   0.00000  Uiso   1.00
O1580  O     0.50000   0.79511   0.68453   0.00000  Uiso   1.00
C1581  C     0.50068   0.83263   0.66407   0.00000  Uiso   1.00
C1582  C     0.50013   0.83406   0.83580   0.00000  Uiso   1.00
Zn1583 Zn    0.50000   0.88437   0.75000   0.00000  Uiso   1.00
Zn1584 Zn    0.50000   0.78229   0.75000   0.00000  Uiso   1.00
C1585  C     0.52775   0.69080   0.77778   0.00000  Uiso   1.00
C1586  C     0.47196   0.97611   0.72337   0.00000  Uiso   1.00
C1587  C     0.47613   0.68927   0.71908   0.00000  Uiso   1.00
C1588  C     0.52636   0.97650   0.77925   0.00000  Uiso   1.00
C1589  C     0.35214   0.83021   0.70679   0.00000  Uiso   1.00
C1590  C     0.64721   0.84106   0.79020   0.00000  Uiso   1.00
C1591  C     0.64208   0.82661   0.70876   0.00000  Uiso   1.00
C1592  C     0.35717   0.84268   0.78879   0.00000  Uiso   1.00
C1593  C     0.51536   0.87151   0.54996   0.00000  Uiso   1.00
C1594  C     0.52651   0.80047   0.95156   0.00000  Uiso   1.00
C1595  C     0.48359   0.86865   0.95434   0.00000  Uiso   1.00
C1596  C     0.49656   0.79420   0.54384   0.00000  Uiso   1.00
H1597  H     0.52347   0.90170   0.53473   0.00000  Uiso   1.00
H1598  H     0.54404   0.77403   0.96816   0.00000  Uiso   1.00
H1599  H     0.46697   0.89462   0.97311   0.00000  Uiso   1.00
H1600  H     0.48910   0.76455   0.52377   0.00000  Uiso   1.00
C1601  C     0.51372   0.87098   0.59581   0.00000  Uiso   1.00
C1602  C     0.52449   0.80058   0.90552   0.00000  Uiso   1.00
C1603  C     0.48173   0.86883   0.90822   0.00000  Uiso   1.00
C1604  C     0.49511   0.79363   0.58976   0.00000  Uiso   1.00
H1605  H     0.52071   0.90107   0.61535   0.00000  Uiso   1.00
H1606  H     0.54052   0.77408   0.88692   0.00000  Uiso   1.00
H1607  H     0.46375   0.89489   0.89183   0.00000  Uiso   1.00
H1608  H     0.48682   0.76351   0.60423   0.00000  Uiso   1.00
C1609  C     0.50323   0.83207   0.61596   0.00000  Uiso   1.00
C1610  C     0.50226   0.83488   0.88383   0.00000  Uiso   1.00
C1611  C     0.50639   0.83324   0.52398   0.00000  Uiso   1.00
C1612  C     0.50590   0.83439   0.97595   0.00000  Uiso   1.00
C1613  C     0.62388   0.83135   0.75032   0.00000  Uiso   1.00
C1614  C     0.37580   0.83628   0.74756   0.00000  Uiso   1.00
C1615  C     0.56517   0.71365   0.80106   0.00000  Uiso   1.00
C1616  C     0.60465   0.70584   0.77361   0.00000  Uiso   1.00
C1617  C     0.64459   0.71918   0.80042   0.00000  Uiso   1.00
H1618  H     0.64131   0.75371   0.81400   0.00000  Uiso   1.00
H1619  H     0.65096   0.69683   0.82855   0.00000  Uiso   1.00
H1620  H     0.33840   0.71669   0.77850   0.00000  Uiso   1.00
H1621  H     0.60842   0.67039   0.76285   0.00000  Uiso   1.00
H1622  H     0.60146   0.72467   0.74267   0.00000  Uiso   1.00
H1623  H     0.55897   0.74900   0.80723   0.00000  Uiso   1.00
H1624  H     0.57174   0.70227   0.83530   0.00000  Uiso   1.00
C1625  C     0.43276   0.95495   0.70264   0.00000  Uiso   1.00
C1626  C     0.39603   0.96263   0.73390   0.00000  Uiso   1.00
C1627  C     0.35381   0.95200   0.71017   0.00000  Uiso   1.00
H1628  H     0.34508   0.97718   0.68517   0.00000  Uiso   1.00
H1629  H     0.35535   0.91893   0.69287   0.00000  Uiso   1.00
H1630  H     0.66238   0.95220   0.73493   0.00000  Uiso   1.00
H1631  H     0.40107   0.94229   0.76364   0.00000  Uiso   1.00
H1632  H     0.39436   0.99777   0.74639   0.00000  Uiso   1.00
H1633  H     0.42307   0.96824   0.66994   0.00000  Uiso   1.00
H1634  H     0.43873   0.91986   0.69418   0.00000  Uiso   1.00
C1635  C     0.46644   0.70531   0.67269   0.00000  Uiso   1.00
C1636  C     0.42264   0.72791   0.66654   0.00000  Uiso   1.00
C1637  C     0.40197   0.71687   0.62032   0.00000  Uiso   1.00
H1638  H     0.41829   0.73332   0.59408   0.00000  Uiso   1.00
H1639  H     0.40258   0.68064   0.61261   0.00000  Uiso   1.00
H1640  H     0.36846   0.72823   0.61933   0.00000  Uiso   1.00
H1641  H     0.40141   0.71770   0.69219   0.00000  Uiso   1.00
H1642  H     0.42576   0.76413   0.67055   0.00000  Uiso   1.00
H1643  H     0.49233   0.72502   0.66330   0.00000  Uiso   1.00
H1644  H     0.47006   0.67727   0.64775   0.00000  Uiso   1.00
C1645  C     0.55128   0.95375   0.81678   0.00000  Uiso   1.00
C1646  C     0.53018   0.96274   0.86145   0.00000  Uiso   1.00
C1647  C     0.55682   0.94363   0.90019   0.00000  Uiso   1.00
H1648  H     0.56230   0.90743   0.89441   0.00000  Uiso   1.00
H1649  H     0.58763   0.95992   0.90388   0.00000  Uiso   1.00
H1650  H     0.54021   0.94953   0.93170   0.00000  Uiso   1.00
H1651  H     0.52477   0.99872   0.86875   0.00000  Uiso   1.00
H1652  H     0.49876   0.94797   0.85934   0.00000  Uiso   1.00
H1653  H     0.55437   0.91814   0.81059   0.00000  Uiso   1.00
H1654  H     0.58442   0.96401   0.81945   0.00000  Uiso   1.00
N1655  N     0.37154   0.82951   0.66411   0.00000  Uiso   1.00
O1656  O     0.40471   0.85225   0.65894   0.00000  Uiso   1.00
O1657  O     0.35427   0.80934   0.62898   0.00000  Uiso   1.00
N1658  N     0.62703   0.85071   0.83158   0.00000  Uiso   1.00
O1659  O     0.63805   0.88462   0.85723   0.00000  Uiso   1.00
O1660  O     0.59848   0.82502   0.84442   0.00000  Uiso   1.00
N1661  N     0.61579   0.82189   0.66865   0.00000  Uiso   1.00
O1662  O     0.59635   0.78523   0.65930   0.00000  Uiso   1.00
O1663  O     0.60970   0.85502   0.64261   0.00000  Uiso   1.00
N1664  N     0.38241   0.85043   0.82919   0.00000  Uiso   1.00
O1665  O     0.38121   0.82364   0.86183   0.00000  Uiso   1.00
O1666  O     0.40221   0.88724   0.83545   0.00000  Uiso   1.00
O1667  O     0.77226   0.87154   0.74999   0.00000  Uiso   1.00
O1668  O     0.89441   0.79513   0.75001   0.00000  Uiso   1.00
O1669  O     0.89441   0.87154   0.75001   0.00000  Uiso   1.00
O1670  O     0.77226   0.79513   0.74999   0.00000  Uiso   1.00
N1671  N     0.83333   0.95240   0.75000   0.00000  Uiso   1.00
N1672  N     0.83333   0.71427   0.75000   0.00000  Uiso   1.00
C1673  C     0.75360   0.83405   0.74822   0.00000  Uiso   1.00
C1674  C     0.91296   0.83271   0.75074   0.00000  Uiso   1.00
O1675  O     0.83333   0.87155   0.68453   0.00000  Uiso   1.00
O1676  O     0.83334   0.79511   0.81547   0.00000  Uiso   1.00
O1677  O     0.83334   0.87155   0.81547   0.00000  Uiso   1.00
O1678  O     0.83333   0.79511   0.68453   0.00000  Uiso   1.00
C1679  C     0.83402   0.83263   0.66407   0.00000  Uiso   1.00
C1680  C     0.83346   0.83406   0.83580   0.00000  Uiso   1.00
Zn1681 Zn    0.83333   0.88437   0.75000   0.00000  Uiso   1.00
Zn1682 Zn    0.83333   0.78229   0.75000   0.00000  Uiso   1.00
C1683  C     0.86109   0.69080   0.77778   0.00000  Uiso   1.00
C1684  C     0.80530   0.97611   0.72337   0.00000  Uiso   1.00
C1685  C     0.80946   0.68927   0.71908   0.00000  Uiso   1.00
C1686  C     0.85970   0.97650   0.77925   0.00000  Uiso   1.00
C1687  C     0.68547   0.83021   0.70679   0.00000  Uiso   1.00
C1688  C     0.98054   0.84106   0.79020   0.00000  Uiso   1.00
C1689  C     0.97541   0.82661   0.70876   0.00000  Uiso   1.00
C1690  C     0.69050   0.84268   0.78879   0.00000  Uiso   1.00
C1691  C     0.84869   0.87151   0.54996   0.00000  Uiso   1.00
C1692  C     0.85984   0.80047   0.95156   0.00000  Uiso   1.00
C1693  C     0.81692   0.86865   0.95434   0.00000  Uiso   1.00
C1694  C     0.82990   0.79420   0.54384   0.00000  Uiso   1.00
H1695  H     0.85680   0.90170   0.53473   0.00000  Uiso   1.00
H1696  H     0.87737   0.77403   0.96816   0.00000  Uiso   1.00
H1697  H     0.80030   0.89462   0.97311   0.00000  Uiso   1.00
H1698  H     0.82243   0.76455   0.52377   0.00000  Uiso   1.00
C1699  C     0.84706   0.87098   0.59581   0.00000  Uiso   1.00
C1700  C     0.85782   0.80058   0.90552   0.00000  Uiso   1.00
C1701  C     0.81507   0.86883   0.90822   0.00000  Uiso   1.00
C1702  C     0.82845   0.79363   0.58976   0.00000  Uiso   1.00
H1703  H     0.85404   0.90107   0.61535   0.00000  Uiso   1.00
H1704  H     0.87386   0.77408   0.88692   0.00000  Uiso   1.00
H1705  H     0.79708   0.89489   0.89183   0.00000  Uiso   1.00
H1706  H     0.82015   0.76351   0.60423   0.00000  Uiso   1.00
C1707  C     0.83657   0.83207   0.61596   0.00000  Uiso   1.00
C1708  C     0.83559   0.83488   0.88383   0.00000  Uiso   1.00
C1709  C     0.83972   0.83324   0.52398   0.00000  Uiso   1.00
C1710  C     0.83923   0.83439   0.97595   0.00000  Uiso   1.00
C1711  C     0.95721   0.83135   0.75032   0.00000  Uiso   1.00
C1712  C     0.70914   0.83628   0.74756   0.00000  Uiso   1.00
C1713  C     0.89851   0.71365   0.80106   0.00000  Uiso   1.00
C1714  C     0.93799   0.70584   0.77361   0.00000  Uiso   1.00
C1715  C     0.97792   0.71918   0.80042   0.00000  Uiso   1.00
H1716  H     0.97465   0.75371   0.81400   0.00000  Uiso   1.00
H1717  H     0.98429   0.69683   0.82855   0.00000  Uiso   1.00
H1718  H     0.67174   0.71669   0.77850   0.00000  Uiso   1.00
H1719  H     0.94176   0.67039   0.76285   0.00000  Uiso   1.00
H1720  H     0.93479   0.72467   0.74267   0.00000  Uiso   1.00
H1721  H     0.89230   0.74900   0.80723   0.00000  Uiso   1.00
H1722  H     0.90507   0.70227   0.83530   0.00000  Uiso   1.00
C1723  C     0.76610   0.95495   0.70264   0.00000  Uiso   1.00
C1724  C     0.72937   0.96263   0.73390   0.00000  Uiso   1.00
C1725  C     0.68714   0.95200   0.71017   0.00000  Uiso   1.00
H1726  H     0.67842   0.97718   0.68517   0.00000  Uiso   1.00
H1727  H     0.68869   0.91893   0.69287   0.00000  Uiso   1.00
H1728  H     0.99571   0.95220   0.73493   0.00000  Uiso   1.00
H1729  H     0.73440   0.94229   0.76364   0.00000  Uiso   1.00
H1730  H     0.72770   0.99777   0.74639   0.00000  Uiso   1.00
H1731  H     0.75640   0.96824   0.66994   0.00000  Uiso   1.00
H1732  H     0.77206   0.91986   0.69418   0.00000  Uiso   1.00
C1733  C     0.79978   0.70531   0.67269   0.00000  Uiso   1.00
C1734  C     0.75598   0.72791   0.66654   0.00000  Uiso   1.00
C1735  C     0.73531   0.71687   0.62032   0.00000  Uiso   1.00
H1736  H     0.75162   0.73332   0.59408   0.00000  Uiso   1.00
H1737  H     0.73591   0.68064   0.61261   0.00000  Uiso   1.00
H1738  H     0.70179   0.72823   0.61933   0.00000  Uiso   1.00
H1739  H     0.73474   0.71770   0.69219   0.00000  Uiso   1.00
H1740  H     0.75909   0.76413   0.67055   0.00000  Uiso   1.00
H1741  H     0.82567   0.72502   0.66330   0.00000  Uiso   1.00
H1742  H     0.80339   0.67727   0.64775   0.00000  Uiso   1.00
C1743  C     0.88461   0.95375   0.81678   0.00000  Uiso   1.00
C1744  C     0.86351   0.96274   0.86145   0.00000  Uiso   1.00
C1745  C     0.89015   0.94363   0.90019   0.00000  Uiso   1.00
H1746  H     0.89564   0.90743   0.89441   0.00000  Uiso   1.00
H1747  H     0.92096   0.95992   0.90388   0.00000  Uiso   1.00
H1748  H     0.87354   0.94953   0.93170   0.00000  Uiso   1.00
H1749  H     0.85810   0.99872   0.86875   0.00000  Uiso   1.00
H1750  H     0.83209   0.94797   0.85934   0.00000  Uiso   1.00
H1751  H     0.88770   0.91814   0.81059   0.00000  Uiso   1.00
H1752  H     0.91775   0.96401   0.81945   0.00000  Uiso   1.00
N1753  N     0.70487   0.82951   0.66411   0.00000  Uiso   1.00
O1754  O     0.73804   0.85225   0.65894   0.00000  Uiso   1.00
O1755  O     0.68760   0.80934   0.62898   0.00000  Uiso   1.00
N1756  N     0.96036   0.85071   0.83158   0.00000  Uiso   1.00
O1757  O     0.97138   0.88462   0.85723   0.00000  Uiso   1.00
O1758  O     0.93181   0.82502   0.84442   0.00000  Uiso   1.00
N1759  N     0.94912   0.82189   0.66865   0.00000  Uiso   1.00
O1760  O     0.92968   0.78523   0.65930   0.00000  Uiso   1.00
O1761  O     0.94304   0.85502   0.64261   0.00000  Uiso   1.00
N1762  N     0.71574   0.85043   0.82919   0.00000  Uiso   1.00
O1763  O     0.71454   0.82364   0.86183   0.00000  Uiso   1.00
O1764  O     0.73554   0.88724   0.83545   0.00000  Uiso   1.00
loop_
_geom_bond_atom_site_label_1
_geom_bond_atom_site_label_2
_geom_bond_distance
_geom_bond_site_symmetry_2
_ccdc_geom_bond_type
O1     Zn15    1.995   .     S
O1     C7      1.296   .     A
O2     Zn16    1.995   .     S
O2     C8      1.298   .     A
O3     C8      1.296   .     A
O3     Zn15    1.968   .     S
O4     C7      1.301   .     A
O4     Zn16    1.968   .     S
N5     C20     1.384   .     A
N5     C18     1.372   .     A
N5     Zn15    2.057   .     S
N6     C19     1.384   .     A
N6     C17     1.383   .     A
N6     Zn16    2.057   .     S
C7     C46     1.413   .     S
C8     C45     1.408   .     S
O9     C13     1.303   .     A
O9     Zn15    1.984   .     S
O10    C14     1.302   .     A
O10    Zn16    1.984   .     S
O11    C14     1.311   .     A
O11    Zn15    2.018   .     S
O12    Zn16    2.018   .     S
O12    C13     1.315   .     A
C13    C41     1.448   .     S
C14    C42     1.438   .     S
C17    C47     1.521   .     S
C17    C608    1.445   1_545 S
C18    C57     1.514   .     S
C18    C313    1.429   .     S
C19    C67     1.507   .     S
C19    C606    1.429   1_545 S
C20    C77     1.519   .     S
C20    C311    1.445   .     S
C21    N87     1.448   .     S
C21    C46     1.411   .     A
C21    C219    1.393   1_455 S
C22    N90     1.440   .     S
C22    C45     1.400   .     A
C22    C122    1.383   .     S
C23    C45     1.400   .     A
C23    N93     1.435   .     S
C23    C119    1.393   .     S
C24    N96     1.434   .     S
C24    C46     1.401   .     A
C24    C218    1.383   1_455 S
C25    C43     1.395   .     A
C25    H29     1.084   .     S
C25    C33     1.379   .     A
C26    C44     1.397   .     A
C26    C34     1.379   .     A
C26    H30     1.084   .     S
C27    C44     1.399   .     A
C27    H31     1.083   .     S
C27    C35     1.382   .     A
C28    H32     1.084   .     S
C28    C43     1.398   .     A
C28    C36     1.381   .     A
C33    H37     1.083   .     S
C33    C41     1.405   .     A
C34    C42     1.401   .     A
C34    H38     1.083   .     S
C35    C42     1.396   .     A
C35    H39     1.079   .     S
C36    C41     1.397   .     A
C36    H40     1.073   .     S
C43    C926    1.442   1_554 S
C44    C925    1.442   .     S
C47    C48     1.542   .     S
C47    H55     1.089   .     S
C47    H56     1.105   .     S
C48    H54     1.109   .     S
C48    H53     1.110   .     S
C48    C49     1.525   .     S
C49    H51     1.111   .     S
C49    H50     1.107   .     S
C49    H150    1.110   .     S
H52    C245    1.110   1_455 S
C57    H66     1.092   .     S
C57    H65     1.102   .     S
C57    C58     1.540   .     S
C58    H64     1.111   .     S
C58    H63     1.108   .     S
C58    C59     1.526   .     S
C59    H60     1.111   .     S
C59    H61     1.106   .     S
C59    H258    1.110   1_455 S
H62    C157    1.110   .     S
C67    C68     1.537   .     S
C67    H75     1.089   .     S
C67    H76     1.112   .     S
C68    H74     1.104   .     S
C68    C69     1.532   .     S
C68    H73     1.110   .     S
C69    H71     1.109   .     S
C69    H72     1.108   .     S
C69    H70     1.109   .     S
C77    C78     1.538   .     S
C77    H85     1.086   .     S
C77    H86     1.108   .     S
C78    H83     1.109   .     S
C78    C79     1.526   .     S
C78    H84     1.107   .     S
C79    H81     1.111   .     S
C79    H82     1.110   .     S
C79    H80     1.110   .     S
N87    O88     1.299   .     A
N87    O89     1.300   .     A
N90    O91     1.301   .     A
N90    O92     1.300   .     A
N93    O94     1.301   .     A
N93    O95     1.301   .     A
N96    O98     1.300   .     A
N96    O97     1.301   .     A
O99    Zn113   1.995   .     S
O99    C105    1.296   .     A
O100   Zn114   1.995   .     S
O100   C106    1.298   .     A
O101   C106    1.296   .     A
O101   Zn113   1.968   .     S
O102   C105    1.301   .     A
O102   Zn114   1.968   .     S
N103   C118    1.384   .     A
N103   C116    1.372   .     A
N103   Zn113   2.057   .     S
N104   C117    1.384   .     A
N104   C115    1.383   .     A
N104   Zn114   2.057   .     S
C105   C144    1.413   .     S
C106   C143    1.408   .     S
O107   C111    1.303   .     A
O107   Zn113   1.984   .     S
O108   C112    1.302   .     A
O108   Zn114   1.984   .     S
O109   C112    1.311   .     A
O109   Zn113   2.018   .     S
O110   Zn114   2.018   .     S
O110   C111    1.315   .     A
C111   C139    1.448   .     S
C112   C140    1.438   .     S
C115   C145    1.521   .     S
C115   C706    1.445   1_545 S
C116   C155    1.514   .     S
C116   C411    1.429   .     S
C117   C165    1.507   .     S
C117   C704    1.429   1_545 S
C118   C175    1.519   .     S
C118   C409    1.445   .     S
C119   N185    1.448   .     S
C119   C144    1.411   .     A
C120   N188    1.440   .     S
C120   C143    1.400   .     A
C120   C220    1.383   .     S
C121   C143    1.400   .     A
C121   N191    1.435   .     S
C121   C217    1.393   .     S
C122   N194    1.434   .     S
C122   C144    1.401   .     A
C123   C141    1.395   .     A
C123   H127    1.084   .     S
C123   C131    1.379   .     A
C124   C142    1.397   .     A
C124   C132    1.379   .     A
C124   H128    1.084   .     S
C125   C142    1.399   .     A
C125   H129    1.083   .     S
C125   C133    1.382   .     A
C126   H130    1.084   .     S
C126   C141    1.398   .     A
C126   C134    1.381   .     A
C131   H135    1.083   .     S
C131   C139    1.405   .     A
C132   C140    1.401   .     A
C132   H136    1.083   .     S
C133   C140    1.396   .     A
C133   H137    1.079   .     S
C134   C139    1.397   .     A
C134   H138    1.073   .     S
C141   C1024   1.442   1_554 S
C142   C1023   1.442   .     S
C145   C146    1.542   .     S
C145   H153    1.089   .     S
C145   H154    1.105   .     S
C146   H152    1.109   .     S
C146   H151    1.110   .     S
C146   C147    1.525   .     S
C147   H149    1.111   .     S
C147   H148    1.107   .     S
C147   H248    1.110   .     S
C155   H164    1.092   .     S
C155   H163    1.102   .     S
C155   C156    1.540   .     S
C156   H162    1.111   .     S
C156   H161    1.108   .     S
C156   C157    1.526   .     S
C157   H158    1.111   .     S
C157   H159    1.106   .     S
H160   C255    1.110   .     S
C165   C166    1.537   .     S
C165   H173    1.089   .     S
C165   H174    1.112   .     S
C166   H172    1.104   .     S
C166   C167    1.532   .     S
C166   H171    1.110   .     S
C167   H169    1.109   .     S
C167   H170    1.108   .     S
C167   H168    1.109   .     S
C175   C176    1.538   .     S
C175   H183    1.086   .     S
C175   H184    1.108   .     S
C176   H181    1.109   .     S
C176   C177    1.526   .     S
C176   H182    1.107   .     S
C177   H179    1.111   .     S
C177   H180    1.110   .     S
C177   H178    1.110   .     S
N185   O186    1.299   .     A
N185   O187    1.300   .     A
N188   O189    1.301   .     A
N188   O190    1.300   .     A
N191   O192    1.301   .     A
N191   O193    1.301   .     A
N194   O196    1.300   .     A
N194   O195    1.301   .     A
O197   Zn211   1.995   .     S
O197   C203    1.296   .     A
O198   Zn212   1.995   .     S
O198   C204    1.298   .     A
O199   C204    1.296   .     A
O199   Zn211   1.968   .     S
O200   C203    1.301   .     A
O200   Zn212   1.968   .     S
N201   C216    1.384   .     A
N201   C214    1.372   .     A
N201   Zn211   2.057   .     S
N202   C215    1.384   .     A
N202   C213    1.383   .     A
N202   Zn212   2.057   .     S
C203   C242    1.413   .     S
C204   C241    1.408   .     S
O205   C209    1.303   .     A
O205   Zn211   1.984   .     S
O206   C210    1.302   .     A
O206   Zn212   1.984   .     S
O207   C210    1.311   .     A
O207   Zn211   2.018   .     S
O208   Zn212   2.018   .     S
O208   C209    1.315   .     A
C209   C237    1.448   .     S
C210   C238    1.438   .     S
C213   C243    1.521   .     S
C213   C804    1.445   1_545 S
C214   C253    1.514   .     S
C214   C509    1.429   .     S
C215   C263    1.507   .     S
C215   C802    1.429   1_545 S
C216   C273    1.519   .     S
C216   C507    1.445   .     S
C217   N283    1.448   .     S
C217   C242    1.411   .     A
C218   N286    1.440   .     S
C218   C241    1.400   .     A
C218   C24     1.383   1_655 S
C219   C241    1.400   .     A
C219   N289    1.435   .     S
C219   C21     1.393   1_655 S
C220   N292    1.434   .     S
C220   C242    1.401   .     A
C221   C239    1.395   .     A
C221   H225    1.084   .     S
C221   C229    1.379   .     A
C222   C240    1.397   .     A
C222   C230    1.379   .     A
C222   H226    1.084   .     S
C223   C240    1.399   .     A
C223   H227    1.083   .     S
C223   C231    1.382   .     A
C224   H228    1.084   .     S
C224   C239    1.398   .     A
C224   C232    1.381   .     A
C229   H233    1.083   .     S
C229   C237    1.405   .     A
C230   C238    1.401   .     A
C230   H234    1.083   .     S
C231   C238    1.396   .     A
C231   H235    1.079   .     S
C232   C237    1.397   .     A
C232   H236    1.073   .     S
C239   C1122   1.442   1_554 S
C240   C1121   1.442   .     S
C243   C244    1.542   .     S
C243   H251    1.089   .     S
C243   H252    1.105   .     S
C244   H250    1.109   .     S
C244   H249    1.110   .     S
C244   C245    1.525   .     S
C245   H247    1.111   .     S
C245   H246    1.107   .     S
C245   H52     1.110   1_655 S
C253   H262    1.092   .     S
C253   H261    1.102   .     S
C253   C254    1.540   .     S
C254   H260    1.111   .     S
C254   H259    1.108   .     S
C254   C255    1.526   .     S
C255   H256    1.111   .     S
C255   H257    1.106   .     S
H258   C59     1.110   1_655 S
C263   C264    1.537   .     S
C263   H271    1.089   .     S
C263   H272    1.112   .     S
C264   H270    1.104   .     S
C264   C265    1.532   .     S
C264   H269    1.110   .     S
C265   H267    1.109   .     S
C265   H268    1.108   .     S
C265   H266    1.109   .     S
C273   C274    1.538   .     S
C273   H281    1.086   .     S
C273   H282    1.108   .     S
C274   H279    1.109   .     S
C274   C275    1.526   .     S
C274   H280    1.107   .     S
C275   H277    1.111   .     S
C275   H278    1.110   .     S
C275   H276    1.110   .     S
N283   O284    1.299   .     A
N283   O285    1.300   .     A
N286   O287    1.301   .     A
N286   O288    1.300   .     A
N289   O290    1.301   .     A
N289   O291    1.301   .     A
N292   O294    1.300   .     A
N292   O293    1.301   .     A
O295   Zn309   1.995   .     S
O295   C301    1.296   .     A
O296   Zn310   1.995   .     S
O296   C302    1.298   .     A
O297   C302    1.296   .     A
O297   Zn309   1.968   .     S
O298   C301    1.301   .     A
O298   Zn310   1.968   .     S
N299   C314    1.384   .     A
N299   C312    1.372   .     A
N299   Zn309   2.057   .     S
N300   C313    1.384   .     A
N300   C311    1.383   .     A
N300   Zn310   2.057   .     S
C301   C340    1.413   .     S
C302   C339    1.408   .     S
O303   C307    1.303   .     A
O303   Zn309   1.984   .     S
O304   C308    1.302   .     A
O304   Zn310   1.984   .     S
O305   C308    1.311   .     A
O305   Zn309   2.018   .     S
O306   Zn310   2.018   .     S
O306   C307    1.315   .     A
C307   C335    1.448   .     S
C308   C336    1.438   .     S
C311   C341    1.521   .     S
C312   C351    1.514   .     S
C312   C607    1.429   .     S
C313   C361    1.507   .     S
C314   C371    1.519   .     S
C314   C605    1.445   .     S
C315   N381    1.448   .     S
C315   C340    1.411   .     A
C315   C513    1.393   1_455 S
C316   N384    1.440   .     S
C316   C339    1.400   .     A
C316   C416    1.383   .     S
C317   C339    1.400   .     A
C317   N387    1.435   .     S
C317   C413    1.393   .     S
C318   N390    1.434   .     S
C318   C340    1.401   .     A
C318   C512    1.383   1_455 S
C319   C337    1.395   .     A
C319   H323    1.084   .     S
C319   C327    1.379   .     A
C320   C338    1.397   .     A
C320   C328    1.379   .     A
C320   H324    1.084   .     S
C321   C338    1.399   .     A
C321   H325    1.083   .     S
C321   C329    1.382   .     A
C322   H326    1.084   .     S
C322   C337    1.398   .     A
C322   C330    1.381   .     A
C327   H331    1.083   .     S
C327   C335    1.405   .     A
C328   C336    1.401   .     A
C328   H332    1.083   .     S
C329   C336    1.396   .     A
C329   H333    1.079   .     S
C330   C335    1.397   .     A
C330   H334    1.073   .     S
C337   C1220   1.442   1_554 S
C338   C1219   1.442   .     S
C341   C342    1.542   .     S
C341   H349    1.089   .     S
C341   H350    1.105   .     S
C342   H348    1.109   .     S
C342   H347    1.110   .     S
C342   C343    1.525   .     S
C343   H345    1.111   .     S
C343   H344    1.107   .     S
C343   H444    1.110   .     S
H346   C539    1.110   1_455 S
C351   H360    1.092   .     S
C351   H359    1.102   .     S
C351   C352    1.540   .     S
C352   H358    1.111   .     S
C352   H357    1.108   .     S
C352   C353    1.526   .     S
C353   H354    1.111   .     S
C353   H355    1.106   .     S
C353   H552    1.110   1_455 S
H356   C451    1.110   .     S
C361   C362    1.537   .     S
C361   H369    1.089   .     S
C361   H370    1.112   .     S
C362   H368    1.104   .     S
C362   C363    1.532   .     S
C362   H367    1.110   .     S
C363   H365    1.109   .     S
C363   H366    1.108   .     S
C363   H364    1.109   .     S
C371   C372    1.538   .     S
C371   H379    1.086   .     S
C371   H380    1.108   .     S
C372   H377    1.109   .     S
C372   C373    1.526   .     S
C372   H378    1.107   .     S
C373   H375    1.111   .     S
C373   H376    1.110   .     S
C373   H374    1.110   .     S
N381   O382    1.299   .     A
N381   O383    1.300   .     A
N384   O385    1.301   .     A
N384   O386    1.300   .     A
N387   O388    1.301   .     A
N387   O389    1.301   .     A
N390   O392    1.300   .     A
N390   O391    1.301   .     A
O393   Zn407   1.995   .     S
O393   C399    1.296   .     A
O394   Zn408   1.995   .     S
O394   C400    1.298   .     A
O395   C400    1.296   .     A
O395   Zn407   1.968   .     S
O396   C399    1.301   .     A
O396   Zn408   1.968   .     S
N397   C412    1.384   .     A
N397   C410    1.372   .     A
N397   Zn407   2.057   .     S
N398   C411    1.384   .     A
N398   C409    1.383   .     A
N398   Zn408   2.057   .     S
C399   C438    1.413   .     S
C400   C437    1.408   .     S
O401   C405    1.303   .     A
O401   Zn407   1.984   .     S
O402   C406    1.302   .     A
O402   Zn408   1.984   .     S
O403   C406    1.311   .     A
O403   Zn407   2.018   .     S
O404   Zn408   2.018   .     S
O404   C405    1.315   .     A
C405   C433    1.448   .     S
C406   C434    1.438   .     S
C409   C439    1.521   .     S
C410   C449    1.514   .     S
C410   C705    1.429   .     S
C411   C459    1.507   .     S
C412   C469    1.519   .     S
C412   C703    1.445   .     S
C413   N479    1.448   .     S
C413   C438    1.411   .     A
C414   N482    1.440   .     S
C414   C437    1.400   .     A
C414   C514    1.383   .     S
C415   C437    1.400   .     A
C415   N485    1.435   .     S
C415   C511    1.393   .     S
C416   N488    1.434   .     S
C416   C438    1.401   .     A
C417   C435    1.395   .     A
C417   H421    1.084   .     S
C417   C425    1.379   .     A
C418   C436    1.397   .     A
C418   C426    1.379   .     A
C418   H422    1.084   .     S
C419   C436    1.399   .     A
C419   H423    1.083   .     S
C419   C427    1.382   .     A
C420   H424    1.084   .     S
C420   C435    1.398   .     A
C420   C428    1.381   .     A
C425   H429    1.083   .     S
C425   C433    1.405   .     A
C426   C434    1.401   .     A
C426   H430    1.083   .     S
C427   C434    1.396   .     A
C427   H431    1.079   .     S
C428   C433    1.397   .     A
C428   H432    1.073   .     S
C435   C1318   1.442   1_554 S
C436   C1317   1.442   .     S
C439   C440    1.542   .     S
C439   H447    1.089   .     S
C439   H448    1.105   .     S
C440   H446    1.109   .     S
C440   H445    1.110   .     S
C440   C441    1.525   .     S
C441   H443    1.111   .     S
C441   H442    1.107   .     S
C441   H542    1.110   .     S
C449   H458    1.092   .     S
C449   H457    1.102   .     S
C449   C450    1.540   .     S
C450   H456    1.111   .     S
C450   H455    1.108   .     S
C450   C451    1.526   .     S
C451   H452    1.111   .     S
C451   H453    1.106   .     S
H454   C549    1.110   .     S
C459   C460    1.537   .     S
C459   H467    1.089   .     S
C459   H468    1.112   .     S
C460   H466    1.104   .     S
C460   C461    1.532   .     S
C460   H465    1.110   .     S
C461   H463    1.109   .     S
C461   H464    1.108   .     S
C461   H462    1.109   .     S
C469   C470    1.538   .     S
C469   H477    1.086   .     S
C469   H478    1.108   .     S
C470   H475    1.109   .     S
C470   C471    1.526   .     S
C470   H476    1.107   .     S
C471   H473    1.111   .     S
C471   H474    1.110   .     S
C471   H472    1.110   .     S
N479   O480    1.299   .     A
N479   O481    1.300   .     A
N482   O483    1.301   .     A
N482   O484    1.300   .     A
N485   O486    1.301   .     A
N485   O487    1.301   .     A
N488   O490    1.300   .     A
N488   O489    1.301   .     A
O491   Zn505   1.995   .     S
O491   C497    1.296   .     A
O492   Zn506   1.995   .     S
O492   C498    1.298   .     A
O493   C498    1.296   .     A
O493   Zn505   1.968   .     S
O494   C497    1.301   .     A
O494   Zn506   1.968   .     S
N495   C510    1.384   .     A
N495   C508    1.372   .     A
N495   Zn505   2.057   .     S
N496   C509    1.384   .     A
N496   C507    1.383   .     A
N496   Zn506   2.057   .     S
C497   C536    1.413   .     S
C498   C535    1.408   .     S
O499   C503    1.303   .     A
O499   Zn505   1.984   .     S
O500   C504    1.302   .     A
O500   Zn506   1.984   .     S
O501   C504    1.311   .     A
O501   Zn505   2.018   .     S
O502   Zn506   2.018   .     S
O502   C503    1.315   .     A
C503   C531    1.448   .     S
C504   C532    1.438   .     S
C507   C537    1.521   .     S
C508   C547    1.514   .     S
C508   C803    1.429   .     S
C509   C557    1.507   .     S
C510   C567    1.519   .     S
C510   C801    1.445   .     S
C511   N577    1.448   .     S
C511   C536    1.411   .     A
C512   N580    1.440   .     S
C512   C535    1.400   .     A
C512   C318    1.383   1_655 S
C513   C535    1.400   .     A
C513   N583    1.435   .     S
C513   C315    1.393   1_655 S
C514   N586    1.434   .     S
C514   C536    1.401   .     A
C515   C533    1.395   .     A
C515   H519    1.084   .     S
C515   C523    1.379   .     A
C516   C534    1.397   .     A
C516   C524    1.379   .     A
C516   H520    1.084   .     S
C517   C534    1.399   .     A
C517   H521    1.083   .     S
C517   C525    1.382   .     A
C518   H522    1.084   .     S
C518   C533    1.398   .     A
C518   C526    1.381   .     A
C523   H527    1.083   .     S
C523   C531    1.405   .     A
C524   C532    1.401   .     A
C524   H528    1.083   .     S
C525   C532    1.396   .     A
C525   H529    1.079   .     S
C526   C531    1.397   .     A
C526   H530    1.073   .     S
C533   C1416   1.442   1_554 S
C534   C1415   1.442   .     S
C537   C538    1.542   .     S
C537   H545    1.089   .     S
C537   H546    1.105   .     S
C538   H544    1.109   .     S
C538   H543    1.110   .     S
C538   C539    1.525   .     S
C539   H541    1.111   .     S
C539   H540    1.107   .     S
C539   H346    1.110   1_655 S
C547   H556    1.092   .     S
C547   H555    1.102   .     S
C547   C548    1.540   .     S
C548   H554    1.111   .     S
C548   H553    1.108   .     S
C548   C549    1.526   .     S
C549   H550    1.111   .     S
C549   H551    1.106   .     S
H552   C353    1.110   1_655 S
C557   C558    1.537   .     S
C557   H565    1.089   .     S
C557   H566    1.112   .     S
C558   H564    1.104   .     S
C558   C559    1.532   .     S
C558   H563    1.110   .     S
C559   H561    1.109   .     S
C559   H562    1.108   .     S
C559   H560    1.109   .     S
C567   C568    1.538   .     S
C567   H575    1.086   .     S
C567   H576    1.108   .     S
C568   H573    1.109   .     S
C568   C569    1.526   .     S
C568   H574    1.107   .     S
C569   H571    1.111   .     S
C569   H572    1.110   .     S
C569   H570    1.110   .     S
N577   O578    1.299   .     A
N577   O579    1.300   .     A
N580   O581    1.301   .     A
N580   O582    1.300   .     A
N583   O584    1.301   .     A
N583   O585    1.301   .     A
N586   O588    1.300   .     A
N586   O587    1.301   .     A
O589   Zn603   1.995   .     S
O589   C595    1.296   .     A
O590   Zn604   1.995   .     S
O590   C596    1.298   .     A
O591   C596    1.296   .     A
O591   Zn603   1.968   .     S
O592   C595    1.301   .     A
O592   Zn604   1.968   .     S
N593   C608    1.384   .     A
N593   C606    1.372   .     A
N593   Zn603   2.057   .     S
N594   C607    1.384   .     A
N594   C605    1.383   .     A
N594   Zn604   2.057   .     S
C595   C634    1.413   .     S
C596   C633    1.408   .     S
O597   C601    1.303   .     A
O597   Zn603   1.984   .     S
O598   C602    1.302   .     A
O598   Zn604   1.984   .     S
O599   C602    1.311   .     A
O599   Zn603   2.018   .     S
O600   Zn604   2.018   .     S
O600   C601    1.315   .     A
C601   C629    1.448   .     S
C602   C630    1.438   .     S
C605   C635    1.521   .     S
C606   C645    1.514   .     S
C606   C19     1.429   1_565 S
C607   C655    1.507   .     S
C608   C665    1.519   .     S
C608   C17     1.445   1_565 S
C609   N675    1.448   .     S
C609   C634    1.411   .     A
C609   C807    1.393   1_455 S
C610   N678    1.440   .     S
C610   C633    1.400   .     A
C610   C710    1.383   .     S
C611   C633    1.400   .     A
C611   N681    1.435   .     S
C611   C707    1.393   .     S
C612   N684    1.434   .     S
C612   C634    1.401   .     A
C612   C806    1.383   1_455 S
C613   C631    1.395   .     A
C613   H617    1.084   .     S
C613   C621    1.379   .     A
C614   C632    1.397   .     A
C614   C622    1.379   .     A
C614   H618    1.084   .     S
C615   C632    1.399   .     A
C615   H619    1.083   .     S
C615   C623    1.382   .     A
C616   H620    1.084   .     S
C616   C631    1.398   .     A
C616   C624    1.381   .     A
C621   H625    1.083   .     S
C621   C629    1.405   .     A
C622   C630    1.401   .     A
C622   H626    1.083   .     S
C623   C630    1.396   .     A
C623   H627    1.079   .     S
C624   C629    1.397   .     A
C624   H628    1.073   .     S
C631   C1514   1.442   1_554 S
C632   C1513   1.442   .     S
C635   C636    1.542   .     S
C635   H643    1.089   .     S
C635   H644    1.105   .     S
C636   H642    1.109   .     S
C636   H641    1.110   .     S
C636   C637    1.525   .     S
C637   H639    1.111   .     S
C637   H638    1.107   .     S
C637   H738    1.110   .     S
H640   C833    1.110   1_455 S
C645   H654    1.092   .     S
C645   H653    1.102   .     S
C645   C646    1.540   .     S
C646   H652    1.111   .     S
C646   H651    1.108   .     S
C646   C647    1.526   .     S
C647   H648    1.111   .     S
C647   H649    1.106   .     S
C647   H846    1.110   1_455 S
H650   C745    1.110   .     S
C655   C656    1.537   .     S
C655   H663    1.089   .     S
C655   H664    1.112   .     S
C656   H662    1.104   .     S
C656   C657    1.532   .     S
C656   H661    1.110   .     S
C657   H659    1.109   .     S
C657   H660    1.108   .     S
C657   H658    1.109   .     S
C665   C666    1.538   .     S
C665   H673    1.086   .     S
C665   H674    1.108   .     S
C666   H671    1.109   .     S
C666   C667    1.526   .     S
C666   H672    1.107   .     S
C667   H669    1.111   .     S
C667   H670    1.110   .     S
C667   H668    1.110   .     S
N675   O676    1.299   .     A
N675   O677    1.300   .     A
N678   O679    1.301   .     A
N678   O680    1.300   .     A
N681   O682    1.301   .     A
N681   O683    1.301   .     A
N684   O686    1.300   .     A
N684   O685    1.301   .     A
O687   Zn701   1.995   .     S
O687   C693    1.296   .     A
O688   Zn702   1.995   .     S
O688   C694    1.298   .     A
O689   C694    1.296   .     A
O689   Zn701   1.968   .     S
O690   C693    1.301   .     A
O690   Zn702   1.968   .     S
N691   C706    1.384   .     A
N691   C704    1.372   .     A
N691   Zn701   2.057   .     S
N692   C705    1.384   .     A
N692   C703    1.383   .     A
N692   Zn702   2.057   .     S
C693   C732    1.413   .     S
C694   C731    1.408   .     S
O695   C699    1.303   .     A
O695   Zn701   1.984   .     S
O696   C700    1.302   .     A
O696   Zn702   1.984   .     S
O697   C700    1.311   .     A
O697   Zn701   2.018   .     S
O698   Zn702   2.018   .     S
O698   C699    1.315   .     A
C699   C727    1.448   .     S
C700   C728    1.438   .     S
C703   C733    1.521   .     S
C704   C743    1.514   .     S
C704   C117    1.429   1_565 S
C705   C753    1.507   .     S
C706   C763    1.519   .     S
C706   C115    1.445   1_565 S
C707   N773    1.448   .     S
C707   C732    1.411   .     A
C708   N776    1.440   .     S
C708   C731    1.400   .     A
C708   C808    1.383   .     S
C709   C731    1.400   .     A
C709   N779    1.435   .     S
C709   C805    1.393   .     S
C710   N782    1.434   .     S
C710   C732    1.401   .     A
C711   C729    1.395   .     A
C711   H715    1.084   .     S
C711   C719    1.379   .     A
C712   C730    1.397   .     A
C712   C720    1.379   .     A
C712   H716    1.084   .     S
C713   C730    1.399   .     A
C713   H717    1.083   .     S
C713   C721    1.382   .     A
C714   H718    1.084   .     S
C714   C729    1.398   .     A
C714   C722    1.381   .     A
C719   H723    1.083   .     S
C719   C727    1.405   .     A
C720   C728    1.401   .     A
C720   H724    1.083   .     S
C721   C728    1.396   .     A
C721   H725    1.079   .     S
C722   C727    1.397   .     A
C722   H726    1.073   .     S
C729   C1612   1.442   1_554 S
C730   C1611   1.442   .     S
C733   C734    1.542   .     S
C733   H741    1.089   .     S
C733   H742    1.105   .     S
C734   H740    1.109   .     S
C734   H739    1.110   .     S
C734   C735    1.525   .     S
C735   H737    1.111   .     S
C735   H736    1.107   .     S
C735   H836    1.110   .     S
C743   H752    1.092   .     S
C743   H751    1.102   .     S
C743   C744    1.540   .     S
C744   H750    1.111   .     S
C744   H749    1.108   .     S
C744   C745    1.526   .     S
C745   H746    1.111   .     S
C745   H747    1.106   .     S
H748   C843    1.110   .     S
C753   C754    1.537   .     S
C753   H761    1.089   .     S
C753   H762    1.112   .     S
C754   H760    1.104   .     S
C754   C755    1.532   .     S
C754   H759    1.110   .     S
C755   H757    1.109   .     S
C755   H758    1.108   .     S
C755   H756    1.109   .     S
C763   C764    1.538   .     S
C763   H771    1.086   .     S
C763   H772    1.108   .     S
C764   H769    1.109   .     S
C764   C765    1.526   .     S
C764   H770    1.107   .     S
C765   H767    1.111   .     S
C765   H768    1.110   .     S
C765   H766    1.110   .     S
N773   O774    1.299   .     A
N773   O775    1.300   .     A
N776   O777    1.301   .     A
N776   O778    1.300   .     A
N779   O780    1.301   .     A
N779   O781    1.301   .     A
N782   O784    1.300   .     A
N782   O783    1.301   .     A
O785   Zn799   1.995   .     S
O785   C791    1.296   .     A
O786   Zn800   1.995   .     S
O786   C792    1.298   .     A
O787   C792    1.296   .     A
O787   Zn799   1.968   .     S
O788   C791    1.301   .     A
O788   Zn800   1.968   .     S
N789   C804    1.384   .     A
N789   C802    1.372   .     A
N789   Zn799   2.057   .     S
N790   C803    1.384   .     A
N790   C801    1.383   .     A
N790   Zn800   2.057   .     S
C791   C830    1.413   .     S
C792   C829    1.408   .     S
O793   C797    1.303   .     A
O793   Zn799   1.984   .     S
O794   C798    1.302   .     A
O794   Zn800   1.984   .     S
O795   C798    1.311   .     A
O795   Zn799   2.018   .     S
O796   Zn800   2.018   .     S
O796   C797    1.315   .     A
C797   C825    1.448   .     S
C798   C826    1.438   .     S
C801   C831    1.521   .     S
C802   C841    1.514   .     S
C802   C215    1.429   1_565 S
C803   C851    1.507   .     S
C804   C861    1.519   .     S
C804   C213    1.445   1_565 S
C805   N871    1.448   .     S
C805   C830    1.411   .     A
C806   N874    1.440   .     S
C806   C829    1.400   .     A
C806   C612    1.383   1_655 S
C807   C829    1.400   .     A
C807   N877    1.435   .     S
C807   C609    1.393   1_655 S
C808   N880    1.434   .     S
C808   C830    1.401   .     A
C809   C827    1.395   .     A
C809   H813    1.084   .     S
C809   C817    1.379   .     A
C810   C828    1.397   .     A
C810   C818    1.379   .     A
C810   H814    1.084   .     S
C811   C828    1.399   .     A
C811   H815    1.083   .     S
C811   C819    1.382   .     A
C812   H816    1.084   .     S
C812   C827    1.398   .     A
C812   C820    1.381   .     A
C817   H821    1.083   .     S
C817   C825    1.405   .     A
C818   C826    1.401   .     A
C818   H822    1.083   .     S
C819   C826    1.396   .     A
C819   H823    1.079   .     S
C820   C825    1.397   .     A
C820   H824    1.073   .     S
C827   C1710   1.442   1_554 S
C828   C1709   1.442   .     S
C831   C832    1.542   .     S
C831   H839    1.089   .     S
C831   H840    1.105   .     S
C832   H838    1.109   .     S
C832   H837    1.110   .     S
C832   C833    1.525   .     S
C833   H835    1.111   .     S
C833   H834    1.107   .     S
C833   H640    1.110   1_655 S
C841   H850    1.092   .     S
C841   H849    1.102   .     S
C841   C842    1.540   .     S
C842   H848    1.111   .     S
C842   H847    1.108   .     S
C842   C843    1.526   .     S
C843   H844    1.111   .     S
C843   H845    1.106   .     S
H846   C647    1.110   1_655 S
C851   C852    1.537   .     S
C851   H859    1.089   .     S
C851   H860    1.112   .     S
C852   H858    1.104   .     S
C852   C853    1.532   .     S
C852   H857    1.110   .     S
C853   H855    1.109   .     S
C853   H856    1.108   .     S
C853   H854    1.109   .     S
C861   C862    1.538   .     S
C861   H869    1.086   .     S
C861   H870    1.108   .     S
C862   H867    1.109   .     S
C862   C863    1.526   .     S
C862   H868    1.107   .     S
C863   H865    1.111   .     S
C863   H866    1.110   .     S
C863   H864    1.110   .     S
N871   O872    1.299   .     A
N871   O873    1.300   .     A
N874   O875    1.301   .     A
N874   O876    1.300   .     A
N877   O878    1.301   .     A
N877   O879    1.301   .     A
N880   O882    1.300   .     A
N880   O881    1.301   .     A
O883   Zn897   1.995   .     S
O883   C889    1.296   .     A
O884   Zn898   1.995   .     S
O884   C890    1.298   .     A
O885   C890    1.296   .     A
O885   Zn897   1.968   .     S
O886   C889    1.301   .     A
O886   Zn898   1.968   .     S
N887   C902    1.384   .     A
N887   C900    1.372   .     A
N887   Zn897   2.057   .     S
N888   C901    1.384   .     A
N888   C899    1.383   .     A
N888   Zn898   2.057   .     S
C889   C928    1.413   .     S
C890   C927    1.408   .     S
O891   C895    1.303   .     A
O891   Zn897   1.984   .     S
O892   C896    1.302   .     A
O892   Zn898   1.984   .     S
O893   C896    1.311   .     A
O893   Zn897   2.018   .     S
O894   Zn898   2.018   .     S
O894   C895    1.315   .     A
C895   C923    1.448   .     S
C896   C924    1.438   .     S
C899   C929    1.521   .     S
C899   C1490   1.445   1_545 S
C900   C939    1.514   .     S
C900   C1195   1.429   .     S
C901   C949    1.507   .     S
C901   C1488   1.429   1_545 S
C902   C959    1.519   .     S
C902   C1193   1.445   .     S
C903   N969    1.448   .     S
C903   C928    1.411   .     A
C903   C1101   1.393   1_455 S
C904   N972    1.440   .     S
C904   C927    1.400   .     A
C904   C1004   1.383   .     S
C905   C927    1.400   .     A
C905   N975    1.435   .     S
C905   C1001   1.393   .     S
C906   N978    1.434   .     S
C906   C928    1.401   .     A
C906   C1100   1.383   1_455 S
C907   C925    1.395   .     A
C907   H911    1.084   .     S
C907   C915    1.379   .     A
C908   C926    1.397   .     A
C908   C916    1.379   .     A
C908   H912    1.084   .     S
C909   C926    1.399   .     A
C909   H913    1.083   .     S
C909   C917    1.382   .     A
C910   H914    1.084   .     S
C910   C925    1.398   .     A
C910   C918    1.381   .     A
C915   H919    1.083   .     S
C915   C923    1.405   .     A
C916   C924    1.401   .     A
C916   H920    1.083   .     S
C917   C924    1.396   .     A
C917   H921    1.079   .     S
C918   C923    1.397   .     A
C918   H922    1.073   .     S
C926   C43     1.442   1_556 S
C929   C930    1.542   .     S
C929   H937    1.089   .     S
C929   H938    1.105   .     S
C930   H936    1.109   .     S
C930   H935    1.110   .     S
C930   C931    1.525   .     S
C931   H933    1.111   .     S
C931   H932    1.107   .     S
C931   H1032   1.110   .     S
H934   C1127   1.110   1_455 S
C939   H948    1.092   .     S
C939   H947    1.102   .     S
C939   C940    1.540   .     S
C940   H946    1.111   .     S
C940   H945    1.108   .     S
C940   C941    1.526   .     S
C941   H942    1.111   .     S
C941   H943    1.106   .     S
C941   H1140   1.110   1_455 S
H944   C1039   1.110   .     S
C949   C950    1.537   .     S
C949   H957    1.089   .     S
C949   H958    1.112   .     S
C950   H956    1.104   .     S
C950   C951    1.532   .     S
C950   H955    1.110   .     S
C951   H953    1.109   .     S
C951   H954    1.108   .     S
C951   H952    1.109   .     S
C959   C960    1.538   .     S
C959   H967    1.086   .     S
C959   H968    1.108   .     S
C960   H965    1.109   .     S
C960   C961    1.526   .     S
C960   H966    1.107   .     S
C961   H963    1.111   .     S
C961   H964    1.110   .     S
C961   H962    1.110   .     S
N969   O970    1.299   .     A
N969   O971    1.300   .     A
N972   O973    1.301   .     A
N972   O974    1.300   .     A
N975   O976    1.301   .     A
N975   O977    1.301   .     A
N978   O980    1.300   .     A
N978   O979    1.301   .     A
O981   Zn995   1.995   .     S
O981   C987    1.296   .     A
O982   Zn996   1.995   .     S
O982   C988    1.298   .     A
O983   C988    1.296   .     A
O983   Zn995   1.968   .     S
O984   C987    1.301   .     A
O984   Zn996   1.968   .     S
N985   C1000   1.384   .     A
N985   C998    1.372   .     A
N985   Zn995   2.057   .     S
N986   C999    1.384   .     A
N986   C997    1.383   .     A
N986   Zn996   2.057   .     S
C987   C1026   1.413   .     S
C988   C1025   1.408   .     S
O989   C993    1.303   .     A
O989   Zn995   1.984   .     S
O990   C994    1.302   .     A
O990   Zn996   1.984   .     S
O991   C994    1.311   .     A
O991   Zn995   2.018   .     S
O992   Zn996   2.018   .     S
O992   C993    1.315   .     A
C993   C1021   1.448   .     S
C994   C1022   1.438   .     S
C997   C1027   1.521   .     S
C997   C1588   1.445   1_545 S
C998   C1037   1.514   .     S
C998   C1293   1.429   .     S
C999   C1047   1.507   .     S
C999   C1586   1.429   1_545 S
C1000  C1057   1.519   .     S
C1000  C1291   1.445   .     S
C1001  N1067   1.448   .     S
C1001  C1026   1.411   .     A
C1002  N1070   1.440   .     S
C1002  C1025   1.400   .     A
C1002  C1102   1.383   .     S
C1003  C1025   1.400   .     A
C1003  N1073   1.435   .     S
C1003  C1099   1.393   .     S
C1004  N1076   1.434   .     S
C1004  C1026   1.401   .     A
C1005  C1023   1.395   .     A
C1005  H1009   1.084   .     S
C1005  C1013   1.379   .     A
C1006  C1024   1.397   .     A
C1006  C1014   1.379   .     A
C1006  H1010   1.084   .     S
C1007  C1024   1.399   .     A
C1007  H1011   1.083   .     S
C1007  C1015   1.382   .     A
C1008  H1012   1.084   .     S
C1008  C1023   1.398   .     A
C1008  C1016   1.381   .     A
C1013  H1017   1.083   .     S
C1013  C1021   1.405   .     A
C1014  C1022   1.401   .     A
C1014  H1018   1.083   .     S
C1015  C1022   1.396   .     A
C1015  H1019   1.079   .     S
C1016  C1021   1.397   .     A
C1016  H1020   1.073   .     S
C1024  C141    1.442   1_556 S
C1027  C1028   1.542   .     S
C1027  H1035   1.089   .     S
C1027  H1036   1.105   .     S
C1028  H1034   1.109   .     S
C1028  H1033   1.110   .     S
C1028  C1029   1.525   .     S
C1029  H1031   1.111   .     S
C1029  H1030   1.107   .     S
C1029  H1130   1.110   .     S
C1037  H1046   1.092   .     S
C1037  H1045   1.102   .     S
C1037  C1038   1.540   .     S
C1038  H1044   1.111   .     S
C1038  H1043   1.108   .     S
C1038  C1039   1.526   .     S
C1039  H1040   1.111   .     S
C1039  H1041   1.106   .     S
H1042  C1137   1.110   .     S
C1047  C1048   1.537   .     S
C1047  H1055   1.089   .     S
C1047  H1056   1.112   .     S
C1048  H1054   1.104   .     S
C1048  C1049   1.532   .     S
C1048  H1053   1.110   .     S
C1049  H1051   1.109   .     S
C1049  H1052   1.108   .     S
C1049  H1050   1.109   .     S
C1057  C1058   1.538   .     S
C1057  H1065   1.086   .     S
C1057  H1066   1.108   .     S
C1058  H1063   1.109   .     S
C1058  C1059   1.526   .     S
C1058  H1064   1.107   .     S
C1059  H1061   1.111   .     S
C1059  H1062   1.110   .     S
C1059  H1060   1.110   .     S
N1067  O1068   1.299   .     A
N1067  O1069   1.300   .     A
N1070  O1071   1.301   .     A
N1070  O1072   1.300   .     A
N1073  O1074   1.301   .     A
N1073  O1075   1.301   .     A
N1076  O1078   1.300   .     A
N1076  O1077   1.301   .     A
O1079  Zn1093  1.995   .     S
O1079  C1085   1.296   .     A
O1080  Zn1094  1.995   .     S
O1080  C1086   1.298   .     A
O1081  C1086   1.296   .     A
O1081  Zn1093  1.968   .     S
O1082  C1085   1.301   .     A
O1082  Zn1094  1.968   .     S
N1083  C1098   1.384   .     A
N1083  C1096   1.372   .     A
N1083  Zn1093  2.057   .     S
N1084  C1097   1.384   .     A
N1084  C1095   1.383   .     A
N1084  Zn1094  2.057   .     S
C1085  C1124   1.413   .     S
C1086  C1123   1.408   .     S
O1087  C1091   1.303   .     A
O1087  Zn1093  1.984   .     S
O1088  C1092   1.302   .     A
O1088  Zn1094  1.984   .     S
O1089  C1092   1.311   .     A
O1089  Zn1093  2.018   .     S
O1090  Zn1094  2.018   .     S
O1090  C1091   1.315   .     A
C1091  C1119   1.448   .     S
C1092  C1120   1.438   .     S
C1095  C1125   1.521   .     S
C1095  C1686   1.445   1_545 S
C1096  C1135   1.514   .     S
C1096  C1391   1.429   .     S
C1097  C1145   1.507   .     S
C1097  C1684   1.429   1_545 S
C1098  C1155   1.519   .     S
C1098  C1389   1.445   .     S
C1099  N1165   1.448   .     S
C1099  C1124   1.411   .     A
C1100  N1168   1.440   .     S
C1100  C1123   1.400   .     A
C1100  C906    1.383   1_655 S
C1101  C1123   1.400   .     A
C1101  N1171   1.435   .     S
C1101  C903    1.393   1_655 S
C1102  N1174   1.434   .     S
C1102  C1124   1.401   .     A
C1103  C1121   1.395   .     A
C1103  H1107   1.084   .     S
C1103  C1111   1.379   .     A
C1104  C1122   1.397   .     A
C1104  C1112   1.379   .     A
C1104  H1108   1.084   .     S
C1105  C1122   1.399   .     A
C1105  H1109   1.083   .     S
C1105  C1113   1.382   .     A
C1106  H1110   1.084   .     S
C1106  C1121   1.398   .     A
C1106  C1114   1.381   .     A
C1111  H1115   1.083   .     S
C1111  C1119   1.405   .     A
C1112  C1120   1.401   .     A
C1112  H1116   1.083   .     S
C1113  C1120   1.396   .     A
C1113  H1117   1.079   .     S
C1114  C1119   1.397   .     A
C1114  H1118   1.073   .     S
C1122  C239    1.442   1_556 S
C1125  C1126   1.542   .     S
C1125  H1133   1.089   .     S
C1125  H1134   1.105   .     S
C1126  H1132   1.109   .     S
C1126  H1131   1.110   .     S
C1126  C1127   1.525   .     S
C1127  H1129   1.111   .     S
C1127  H1128   1.107   .     S
C1127  H934    1.110   1_655 S
C1135  H1144   1.092   .     S
C1135  H1143   1.102   .     S
C1135  C1136   1.540   .     S
C1136  H1142   1.111   .     S
C1136  H1141   1.108   .     S
C1136  C1137   1.526   .     S
C1137  H1138   1.111   .     S
C1137  H1139   1.106   .     S
H1140  C941    1.110   1_655 S
C1145  C1146   1.537   .     S
C1145  H1153   1.089   .     S
C1145  H1154   1.112   .     S
C1146  H1152   1.104   .     S
C1146  C1147   1.532   .     S
C1146  H1151   1.110   .     S
C1147  H1149   1.109   .     S
C1147  H1150   1.108   .     S
C1147  H1148   1.109   .     S
C1155  C1156   1.538   .     S
C1155  H1163   1.086   .     S
C1155  H1164   1.108   .     S
C1156  H1161   1.109   .     S
C1156  C1157   1.526   .     S
C1156  H1162   1.107   .     S
C1157  H1159   1.111   .     S
C1157  H1160   1.110   .     S
C1157  H1158   1.110   .     S
N1165  O1166   1.299   .     A
N1165  O1167   1.300   .     A
N1168  O1169   1.301   .     A
N1168  O1170   1.300   .     A
N1171  O1172   1.301   .     A
N1171  O1173   1.301   .     A
N1174  O1176   1.300   .     A
N1174  O1175   1.301   .     A
O1177  Zn1191  1.995   .     S
O1177  C1183   1.296   .     A
O1178  Zn1192  1.995   .     S
O1178  C1184   1.298   .     A
O1179  C1184   1.296   .     A
O1179  Zn1191  1.968   .     S
O1180  C1183   1.301   .     A
O1180  Zn1192  1.968   .     S
N1181  C1196   1.384   .     A
N1181  C1194   1.372   .     A
N1181  Zn1191  2.057   .     S
N1182  C1195   1.384   .     A
N1182  C1193   1.383   .     A
N1182  Zn1192  2.057   .     S
C1183  C1222   1.413   .     S
C1184  C1221   1.408   .     S
O1185  C1189   1.303   .     A
O1185  Zn1191  1.984   .     S
O1186  C1190   1.302   .     A
O1186  Zn1192  1.984   .     S
O1187  C1190   1.311   .     A
O1187  Zn1191  2.018   .     S
O1188  Zn1192  2.018   .     S
O1188  C1189   1.315   .     A
C1189  C1217   1.448   .     S
C1190  C1218   1.438   .     S
C1193  C1223   1.521   .     S
C1194  C1233   1.514   .     S
C1194  C1489   1.429   .     S
C1195  C1243   1.507   .     S
C1196  C1253   1.519   .     S
C1196  C1487   1.445   .     S
C1197  N1263   1.448   .     S
C1197  C1222   1.411   .     A
C1197  C1395   1.393   1_455 S
C1198  N1266   1.440   .     S
C1198  C1221   1.400   .     A
C1198  C1298   1.383   .     S
C1199  C1221   1.400   .     A
C1199  N1269   1.435   .     S
C1199  C1295   1.393   .     S
C1200  N1272   1.434   .     S
C1200  C1222   1.401   .     A
C1200  C1394   1.383   1_455 S
C1201  C1219   1.395   .     A
C1201  H1205   1.084   .     S
C1201  C1209   1.379   .     A
C1202  C1220   1.397   .     A
C1202  C1210   1.379   .     A
C1202  H1206   1.084   .     S
C1203  C1220   1.399   .     A
C1203  H1207   1.083   .     S
C1203  C1211   1.382   .     A
C1204  H1208   1.084   .     S
C1204  C1219   1.398   .     A
C1204  C1212   1.381   .     A
C1209  H1213   1.083   .     S
C1209  C1217   1.405   .     A
C1210  C1218   1.401   .     A
C1210  H1214   1.083   .     S
C1211  C1218   1.396   .     A
C1211  H1215   1.079   .     S
C1212  C1217   1.397   .     A
C1212  H1216   1.073   .     S
C1220  C337    1.442   1_556 S
C1223  C1224   1.542   .     S
C1223  H1231   1.089   .     S
C1223  H1232   1.105   .     S
C1224  H1230   1.109   .     S
C1224  H1229   1.110   .     S
C1224  C1225   1.525   .     S
C1225  H1227   1.111   .     S
C1225  H1226   1.107   .     S
C1225  H1326   1.110   .     S
H1228  C1421   1.110   1_455 S
C1233  H1242   1.092   .     S
C1233  H1241   1.102   .     S
C1233  C1234   1.540   .     S
C1234  H1240   1.111   .     S
C1234  H1239   1.108   .     S
C1234  C1235   1.526   .     S
C1235  H1236   1.111   .     S
C1235  H1237   1.106   .     S
C1235  H1434   1.110   1_455 S
H1238  C1333   1.110   .     S
C1243  C1244   1.537   .     S
C1243  H1251   1.089   .     S
C1243  H1252   1.112   .     S
C1244  H1250   1.104   .     S
C1244  C1245   1.532   .     S
C1244  H1249   1.110   .     S
C1245  H1247   1.109   .     S
C1245  H1248   1.108   .     S
C1245  H1246   1.109   .     S
C1253  C1254   1.538   .     S
C1253  H1261   1.086   .     S
C1253  H1262   1.108   .     S
C1254  H1259   1.109   .     S
C1254  C1255   1.526   .     S
C1254  H1260   1.107   .     S
C1255  H1257   1.111   .     S
C1255  H1258   1.110   .     S
C1255  H1256   1.110   .     S
N1263  O1264   1.299   .     A
N1263  O1265   1.300   .     A
N1266  O1267   1.301   .     A
N1266  O1268   1.300   .     A
N1269  O1270   1.301   .     A
N1269  O1271   1.301   .     A
N1272  O1274   1.300   .     A
N1272  O1273   1.301   .     A
O1275  Zn1289  1.995   .     S
O1275  C1281   1.296   .     A
O1276  Zn1290  1.995   .     S
O1276  C1282   1.298   .     A
O1277  C1282   1.296   .     A
O1277  Zn1289  1.968   .     S
O1278  C1281   1.301   .     A
O1278  Zn1290  1.968   .     S
N1279  C1294   1.384   .     A
N1279  C1292   1.372   .     A
N1279  Zn1289  2.057   .     S
N1280  C1293   1.384   .     A
N1280  C1291   1.383   .     A
N1280  Zn1290  2.057   .     S
C1281  C1320   1.413   .     S
C1282  C1319   1.408   .     S
O1283  C1287   1.303   .     A
O1283  Zn1289  1.984   .     S
O1284  C1288   1.302   .     A
O1284  Zn1290  1.984   .     S
O1285  C1288   1.311   .     A
O1285  Zn1289  2.018   .     S
O1286  Zn1290  2.018   .     S
O1286  C1287   1.315   .     A
C1287  C1315   1.448   .     S
C1288  C1316   1.438   .     S
C1291  C1321   1.521   .     S
C1292  C1331   1.514   .     S
C1292  C1587   1.429   .     S
C1293  C1341   1.507   .     S
C1294  C1351   1.519   .     S
C1294  C1585   1.445   .     S
C1295  N1361   1.448   .     S
C1295  C1320   1.411   .     A
C1296  N1364   1.440   .     S
C1296  C1319   1.400   .     A
C1296  C1396   1.383   .     S
C1297  C1319   1.400   .     A
C1297  N1367   1.435   .     S
C1297  C1393   1.393   .     S
C1298  N1370   1.434   .     S
C1298  C1320   1.401   .     A
C1299  C1317   1.395   .     A
C1299  H1303   1.084   .     S
C1299  C1307   1.379   .     A
C1300  C1318   1.397   .     A
C1300  C1308   1.379   .     A
C1300  H1304   1.084   .     S
C1301  C1318   1.399   .     A
C1301  H1305   1.083   .     S
C1301  C1309   1.382   .     A
C1302  H1306   1.084   .     S
C1302  C1317   1.398   .     A
C1302  C1310   1.381   .     A
C1307  H1311   1.083   .     S
C1307  C1315   1.405   .     A
C1308  C1316   1.401   .     A
C1308  H1312   1.083   .     S
C1309  C1316   1.396   .     A
C1309  H1313   1.079   .     S
C1310  C1315   1.397   .     A
C1310  H1314   1.073   .     S
C1318  C435    1.442   1_556 S
C1321  C1322   1.542   .     S
C1321  H1329   1.089   .     S
C1321  H1330   1.105   .     S
C1322  H1328   1.109   .     S
C1322  H1327   1.110   .     S
C1322  C1323   1.525   .     S
C1323  H1325   1.111   .     S
C1323  H1324   1.107   .     S
C1323  H1424   1.110   .     S
C1331  H1340   1.092   .     S
C1331  H1339   1.102   .     S
C1331  C1332   1.540   .     S
C1332  H1338   1.111   .     S
C1332  H1337   1.108   .     S
C1332  C1333   1.526   .     S
C1333  H1334   1.111   .     S
C1333  H1335   1.106   .     S
H1336  C1431   1.110   .     S
C1341  C1342   1.537   .     S
C1341  H1349   1.089   .     S
C1341  H1350   1.112   .     S
C1342  H1348   1.104   .     S
C1342  C1343   1.532   .     S
C1342  H1347   1.110   .     S
C1343  H1345   1.109   .     S
C1343  H1346   1.108   .     S
C1343  H1344   1.109   .     S
C1351  C1352   1.538   .     S
C1351  H1359   1.086   .     S
C1351  H1360   1.108   .     S
C1352  H1357   1.109   .     S
C1352  C1353   1.526   .     S
C1352  H1358   1.107   .     S
C1353  H1355   1.111   .     S
C1353  H1356   1.110   .     S
C1353  H1354   1.110   .     S
N1361  O1362   1.299   .     A
N1361  O1363   1.300   .     A
N1364  O1365   1.301   .     A
N1364  O1366   1.300   .     A
N1367  O1368   1.301   .     A
N1367  O1369   1.301   .     A
N1370  O1372   1.300   .     A
N1370  O1371   1.301   .     A
O1373  Zn1387  1.995   .     S
O1373  C1379   1.296   .     A
O1374  Zn1388  1.995   .     S
O1374  C1380   1.298   .     A
O1375  C1380   1.296   .     A
O1375  Zn1387  1.968   .     S
O1376  C1379   1.301   .     A
O1376  Zn1388  1.968   .     S
N1377  C1392   1.384   .     A
N1377  C1390   1.372   .     A
N1377  Zn1387  2.057   .     S
N1378  C1391   1.384   .     A
N1378  C1389   1.383   .     A
N1378  Zn1388  2.057   .     S
C1379  C1418   1.413   .     S
C1380  C1417   1.408   .     S
O1381  C1385   1.303   .     A
O1381  Zn1387  1.984   .     S
O1382  C1386   1.302   .     A
O1382  Zn1388  1.984   .     S
O1383  C1386   1.311   .     A
O1383  Zn1387  2.018   .     S
O1384  Zn1388  2.018   .     S
O1384  C1385   1.315   .     A
C1385  C1413   1.448   .     S
C1386  C1414   1.438   .     S
C1389  C1419   1.521   .     S
C1390  C1429   1.514   .     S
C1390  C1685   1.429   .     S
C1391  C1439   1.507   .     S
C1392  C1449   1.519   .     S
C1392  C1683   1.445   .     S
C1393  N1459   1.448   .     S
C1393  C1418   1.411   .     A
C1394  N1462   1.440   .     S
C1394  C1417   1.400   .     A
C1394  C1200   1.383   1_655 S
C1395  C1417   1.400   .     A
C1395  N1465   1.435   .     S
C1395  C1197   1.393   1_655 S
C1396  N1468   1.434   .     S
C1396  C1418   1.401   .     A
C1397  C1415   1.395   .     A
C1397  H1401   1.084   .     S
C1397  C1405   1.379   .     A
C1398  C1416   1.397   .     A
C1398  C1406   1.379   .     A
C1398  H1402   1.084   .     S
C1399  C1416   1.399   .     A
C1399  H1403   1.083   .     S
C1399  C1407   1.382   .     A
C1400  H1404   1.084   .     S
C1400  C1415   1.398   .     A
C1400  C1408   1.381   .     A
C1405  H1409   1.083   .     S
C1405  C1413   1.405   .     A
C1406  C1414   1.401   .     A
C1406  H1410   1.083   .     S
C1407  C1414   1.396   .     A
C1407  H1411   1.079   .     S
C1408  C1413   1.397   .     A
C1408  H1412   1.073   .     S
C1416  C533    1.442   1_556 S
C1419  C1420   1.542   .     S
C1419  H1427   1.089   .     S
C1419  H1428   1.105   .     S
C1420  H1426   1.109   .     S
C1420  H1425   1.110   .     S
C1420  C1421   1.525   .     S
C1421  H1423   1.111   .     S
C1421  H1422   1.107   .     S
C1421  H1228   1.110   1_655 S
C1429  H1438   1.092   .     S
C1429  H1437   1.102   .     S
C1429  C1430   1.540   .     S
C1430  H1436   1.111   .     S
C1430  H1435   1.108   .     S
C1430  C1431   1.526   .     S
C1431  H1432   1.111   .     S
C1431  H1433   1.106   .     S
H1434  C1235   1.110   1_655 S
C1439  C1440   1.537   .     S
C1439  H1447   1.089   .     S
C1439  H1448   1.112   .     S
C1440  H1446   1.104   .     S
C1440  C1441   1.532   .     S
C1440  H1445   1.110   .     S
C1441  H1443   1.109   .     S
C1441  H1444   1.108   .     S
C1441  H1442   1.109   .     S
C1449  C1450   1.538   .     S
C1449  H1457   1.086   .     S
C1449  H1458   1.108   .     S
C1450  H1455   1.109   .     S
C1450  C1451   1.526   .     S
C1450  H1456   1.107   .     S
C1451  H1453   1.111   .     S
C1451  H1454   1.110   .     S
C1451  H1452   1.110   .     S
N1459  O1460   1.299   .     A
N1459  O1461   1.300   .     A
N1462  O1463   1.301   .     A
N1462  O1464   1.300   .     A
N1465  O1466   1.301   .     A
N1465  O1467   1.301   .     A
N1468  O1470   1.300   .     A
N1468  O1469   1.301   .     A
O1471  Zn1485  1.995   .     S
O1471  C1477   1.296   .     A
O1472  Zn1486  1.995   .     S
O1472  C1478   1.298   .     A
O1473  C1478   1.296   .     A
O1473  Zn1485  1.968   .     S
O1474  C1477   1.301   .     A
O1474  Zn1486  1.968   .     S
N1475  C1490   1.384   .     A
N1475  C1488   1.372   .     A
N1475  Zn1485  2.057   .     S
N1476  C1489   1.384   .     A
N1476  C1487   1.383   .     A
N1476  Zn1486  2.057   .     S
C1477  C1516   1.413   .     S
C1478  C1515   1.408   .     S
O1479  C1483   1.303   .     A
O1479  Zn1485  1.984   .     S
O1480  C1484   1.302   .     A
O1480  Zn1486  1.984   .     S
O1481  C1484   1.311   .     A
O1481  Zn1485  2.018   .     S
O1482  Zn1486  2.018   .     S
O1482  C1483   1.315   .     A
C1483  C1511   1.448   .     S
C1484  C1512   1.438   .     S
C1487  C1517   1.521   .     S
C1488  C1527   1.514   .     S
C1488  C901    1.429   1_565 S
C1489  C1537   1.507   .     S
C1490  C1547   1.519   .     S
C1490  C899    1.445   1_565 S
C1491  N1557   1.448   .     S
C1491  C1516   1.411   .     A
C1491  C1689   1.393   1_455 S
C1492  N1560   1.440   .     S
C1492  C1515   1.400   .     A
C1492  C1592   1.383   .     S
C1493  C1515   1.400   .     A
C1493  N1563   1.435   .     S
C1493  C1589   1.393   .     S
C1494  N1566   1.434   .     S
C1494  C1516   1.401   .     A
C1494  C1688   1.383   1_455 S
C1495  C1513   1.395   .     A
C1495  H1499   1.084   .     S
C1495  C1503   1.379   .     A
C1496  C1514   1.397   .     A
C1496  C1504   1.379   .     A
C1496  H1500   1.084   .     S
C1497  C1514   1.399   .     A
C1497  H1501   1.083   .     S
C1497  C1505   1.382   .     A
C1498  H1502   1.084   .     S
C1498  C1513   1.398   .     A
C1498  C1506   1.381   .     A
C1503  H1507   1.083   .     S
C1503  C1511   1.405   .     A
C1504  C1512   1.401   .     A
C1504  H1508   1.083   .     S
C1505  C1512   1.396   .     A
C1505  H1509   1.079   .     S
C1506  C1511   1.397   .     A
C1506  H1510   1.073   .     S
C1514  C631    1.442   1_556 S
C1517  C1518   1.542   .     S
C1517  H1525   1.089   .     S
C1517  H1526   1.105   .     S
C1518  H1524   1.109   .     S
C1518  H1523   1.110   .     S
C1518  C1519   1.525   .     S
C1519  H1521   1.111   .     S
C1519  H1520   1.107   .     S
C1519  H1620   1.110   .     S
H1522  C1715   1.110   1_455 S
C1527  H1536   1.092   .     S
C1527  H1535   1.102   .     S
C1527  C1528   1.540   .     S
C1528  H1534   1.111   .     S
C1528  H1533   1.108   .     S
C1528  C1529   1.526   .     S
C1529  H1530   1.111   .     S
C1529  H1531   1.106   .     S
C1529  H1728   1.110   1_455 S
H1532  C1627   1.110   .     S
C1537  C1538   1.537   .     S
C1537  H1545   1.089   .     S
C1537  H1546   1.112   .     S
C1538  H1544   1.104   .     S
C1538  C1539   1.532   .     S
C1538  H1543   1.110   .     S
C1539  H1541   1.109   .     S
C1539  H1542   1.108   .     S
C1539  H1540   1.109   .     S
C1547  C1548   1.538   .     S
C1547  H1555   1.086   .     S
C1547  H1556   1.108   .     S
C1548  H1553   1.109   .     S
C1548  C1549   1.526   .     S
C1548  H1554   1.107   .     S
C1549  H1551   1.111   .     S
C1549  H1552   1.110   .     S
C1549  H1550   1.110   .     S
N1557  O1558   1.299   .     A
N1557  O1559   1.300   .     A
N1560  O1561   1.301   .     A
N1560  O1562   1.300   .     A
N1563  O1564   1.301   .     A
N1563  O1565   1.301   .     A
N1566  O1568   1.300   .     A
N1566  O1567   1.301   .     A
O1569  Zn1583  1.995   .     S
O1569  C1575   1.296   .     A
O1570  Zn1584  1.995   .     S
O1570  C1576   1.298   .     A
O1571  C1576   1.296   .     A
O1571  Zn1583  1.968   .     S
O1572  C1575   1.301   .     A
O1572  Zn1584  1.968   .     S
N1573  C1588   1.384   .     A
N1573  C1586   1.372   .     A
N1573  Zn1583  2.057   .     S
N1574  C1587   1.384   .     A
N1574  C1585   1.383   .     A
N1574  Zn1584  2.057   .     S
C1575  C1614   1.413   .     S
C1576  C1613   1.408   .     S
O1577  C1581   1.303   .     A
O1577  Zn1583  1.984   .     S
O1578  C1582   1.302   .     A
O1578  Zn1584  1.984   .     S
O1579  C1582   1.311   .     A
O1579  Zn1583  2.018   .     S
O1580  Zn1584  2.018   .     S
O1580  C1581   1.315   .     A
C1581  C1609   1.448   .     S
C1582  C1610   1.438   .     S
C1585  C1615   1.521   .     S
C1586  C1625   1.514   .     S
C1586  C999    1.429   1_565 S
C1587  C1635   1.507   .     S
C1588  C1645   1.519   .     S
C1588  C997    1.445   1_565 S
C1589  N1655   1.448   .     S
C1589  C1614   1.411   .     A
C1590  N1658   1.440   .     S
C1590  C1613   1.400   .     A
C1590  C1690   1.383   .     S
C1591  C1613   1.400   .     A
C1591  N1661   1.435   .     S
C1591  C1687   1.393   .     S
C1592  N1664   1.434   .     S
C1592  C1614   1.401   .     A
C1593  C1611   1.395   .     A
C1593  H1597   1.084   .     S
C1593  C1601   1.379   .     A
C1594  C1612   1.397   .     A
C1594  C1602   1.379   .     A
C1594  H1598   1.084   .     S
C1595  C1612   1.399   .     A
C1595  H1599   1.083   .     S
C1595  C1603   1.382   .     A
C1596  H1600   1.084   .     S
C1596  C1611   1.398   .     A
C1596  C1604   1.381   .     A
C1601  H1605   1.083   .     S
C1601  C1609   1.405   .     A
C1602  C1610   1.401   .     A
C1602  H1606   1.083   .     S
C1603  C1610   1.396   .     A
C1603  H1607   1.079   .     S
C1604  C1609   1.397   .     A
C1604  H1608   1.073   .     S
C1612  C729    1.442   1_556 S
C1615  C1616   1.542   .     S
C1615  H1623   1.089   .     S
C1615  H1624   1.105   .     S
C1616  H1622   1.109   .     S
C1616  H1621   1.110   .     S
C1616  C1617   1.525   .     S
C1617  H1619   1.111   .     S
C1617  H1618   1.107   .     S
C1617  H1718   1.110   .     S
C1625  H1634   1.092   .     S
C1625  H1633   1.102   .     S
C1625  C1626   1.540   .     S
C1626  H1632   1.111   .     S
C1626  H1631   1.108   .     S
C1626  C1627   1.526   .     S
C1627  H1628   1.111   .     S
C1627  H1629   1.106   .     S
H1630  C1725   1.110   .     S
C1635  C1636   1.537   .     S
C1635  H1643   1.089   .     S
C1635  H1644   1.112   .     S
C1636  H1642   1.104   .     S
C1636  C1637   1.532   .     S
C1636  H1641   1.110   .     S
C1637  H1639   1.109   .     S
C1637  H1640   1.108   .     S
C1637  H1638   1.109   .     S
C1645  C1646   1.538   .     S
C1645  H1653   1.086   .     S
C1645  H1654   1.108   .     S
C1646  H1651   1.109   .     S
C1646  C1647   1.526   .     S
C1646  H1652   1.107   .     S
C1647  H1649   1.111   .     S
C1647  H1650   1.110   .     S
C1647  H1648   1.110   .     S
N1655  O1656   1.299   .     A
N1655  O1657   1.300   .     A
N1658  O1659   1.301   .     A
N1658  O1660   1.300   .     A
N1661  O1662   1.301   .     A
N1661  O1663   1.301   .     A
N1664  O1666   1.300   .     A
N1664  O1665   1.301   .     A
O1667  Zn1681  1.995   .     S
O1667  C1673   1.296   .     A
O1668  Zn1682  1.995   .     S
O1668  C1674   1.298   .     A
O1669  C1674   1.296   .     A
O1669  Zn1681  1.968   .     S
O1670  C1673   1.301   .     A
O1670  Zn1682  1.968   .     S
N1671  C1686   1.384   .     A
N1671  C1684   1.372   .     A
N1671  Zn1681  2.057   .     S
N1672  C1685   1.384   .     A
N1672  C1683   1.383   .     A
N1672  Zn1682  2.057   .     S
C1673  C1712   1.413   .     S
C1674  C1711   1.408   .     S
O1675  C1679   1.303   .     A
O1675  Zn1681  1.984   .     S
O1676  C1680   1.302   .     A
O1676  Zn1682  1.984   .     S
O1677  C1680   1.311   .     A
O1677  Zn1681  2.018   .     S
O1678  Zn1682  2.018   .     S
O1678  C1679   1.315   .     A
C1679  C1707   1.448   .     S
C1680  C1708   1.438   .     S
C1683  C1713   1.521   .     S
C1684  C1723   1.514   .     S
C1684  C1097   1.429   1_565 S
C1685  C1733   1.507   .     S
C1686  C1743   1.519   .     S
C1686  C1095   1.445   1_565 S
C1687  N1753   1.448   .     S
C1687  C1712   1.411   .     A
C1688  N1756   1.440   .     S
C1688  C1711   1.400   .     A
C1688  C1494   1.383   1_655 S
C1689  C1711   1.400   .     A
C1689  N1759   1.435   .     S
C1689  C1491   1.393   1_655 S
C1690  N1762   1.434   .     S
C1690  C1712   1.401   .     A
C1691  C1709   1.395   .     A
C1691  H1695   1.084   .     S
C1691  C1699   1.379   .     A
C1692  C1710   1.397   .     A
C1692  C1700   1.379   .     A
C1692  H1696   1.084   .     S
C1693  C1710   1.399   .     A
C1693  H1697   1.083   .     S
C1693  C1701   1.382   .     A
C1694  H1698   1.084   .     S
C1694  C1709   1.398   .     A
C1694  C1702   1.381   .     A
C1699  H1703   1.083   .     S
C1699  C1707   1.405   .     A
C1700  C1708   1.401   .     A
C1700  H1704   1.083   .     S
C1701  C1708   1.396   .     A
C1701  H1705   1.079   .     S
C1702  C1707   1.397   .     A
C1702  H1706   1.073   .     S
C1710  C827    1.442   1_556 S
C1713  C1714   1.542   .     S
C1713  H1721   1.089   .     S
C1713  H1722   1.105   .     S
C1714  H1720   1.109   .     S
C1714  H1719   1.110   .     S
C1714  C1715   1.525   .     S
C1715  H1717   1.111   .     S
C1715  H1716   1.107   .     S
C1715  H1522   1.110   1_655 S
C1723  H1732   1.092   .     S
C1723  H1731   1.102   .     S
C1723  C1724   1.540   .     S
C1724  H1730   1.111   .     S
C1724  H1729   1.108   .     S
C1724  C1725   1.526   .     S
C1725  H1726   1.111   .     S
C1725  H1727   1.106   .     S
H1728  C1529   1.110   1_655 S
C1733  C1734   1.537   .     S
C1733  H1741   1.089   .     S
C1733  H1742   1.112   .     S
C1734  H1740   1.104   .     S
C1734  C1735   1.532   .     S
C1734  H1739   1.110   .     S
C1735  H1737   1.109   .     S
C1735  H1738   1.108   .     S
C1735  H1736   1.109   .     S
C1743  C1744   1.538   .     S
C1743  H1751   1.086   .     S
C1743  H1752   1.108   .     S
C1744  H1749   1.109   .     S
C1744  C1745   1.526   .     S
C1744  H1750   1.107   .     S
C1745  H1747   1.111   .     S
C1745  H1748   1.110   .     S
C1745  H1746   1.110   .     S
N1753  O1754   1.299   .     A
N1753  O1755   1.300   .     A
N1756  O1757   1.301   .     A
N1756  O1758   1.300   .     A
N1759  O1760   1.301   .     A
N1759  O1761   1.301   .     A
N1762  O1764   1.300   .     A
N1762  O1763   1.301   .     A
