data_str_m2_o1_o18_pcu_sym.66
_audit_creation_date              2020-01-03
_audit_creation_method            'Materials Studio'
_symmetry_space_group_name_H-M    'P1'
_symmetry_Int_Tables_number       1
_symmetry_cell_setting            triclinic
loop_
_symmetry_equiv_pos_as_xyz
  x,y,z
_cell_length_a                    28.6087
_cell_length_b                    32.3547
_cell_length_c                    30.8687
_cell_angle_alpha                 89.6877
_cell_angle_beta                  74.5450
_cell_angle_gamma                 90.2801
loop_
_atom_site_label
_atom_site_type_symbol
_atom_site_fract_x
_atom_site_fract_y
_atom_site_fract_z
_atom_site_U_iso_or_equiv
_atom_site_adp_type
_atom_site_occupancy
C1     C     0.33283   0.08747   0.25143   0.00000  Uiso   1.00
C2     C     0.02038   0.02036   0.28132   0.00000  Uiso   1.00
C3     C     0.00095   0.29052   0.24772   0.00000  Uiso   1.00
C4     C     0.33237   0.04281   0.25232   0.00000  Uiso   1.00
C5     C     0.18335   0.13989   0.27705   0.00000  Uiso   1.00
C6     C     0.14998   0.19343   0.22293   0.00000  Uiso   1.00
C7     C     0.13374   0.14010   0.27697   0.00000  Uiso   1.00
C8     C     0.19960   0.19321   0.22300   0.00000  Uiso   1.00
C9     C     0.30626   0.16764   0.33622   0.00000  Uiso   1.00
C10    C     0.02703   0.16494   0.16392   0.00000  Uiso   1.00
C11    C     0.29193   0.17086   0.38571   0.00000  Uiso   1.00
C12    C     0.00050   0.24586   0.24858   0.00000  Uiso   1.00
C13    C     0.04149   0.15834   0.11500   0.00000  Uiso   1.00
C14    C     0.30594   0.19237   0.45634   0.00000  Uiso   1.00
C15    C     0.03147   0.12610   0.04739   0.00000  Uiso   1.00
C16    C     0.32373   0.18593   0.41005   0.00000  Uiso   1.00
C17    C     0.01281   0.13548   0.09267   0.00000  Uiso   1.00
C18    C     0.24400   0.16098   0.40847   0.00000  Uiso   1.00
C19    C     0.08796   0.17125   0.09126   0.00000  Uiso   1.00
C20    C     0.22591   0.16624   0.45515   0.00000  Uiso   1.00
C21    C     0.10898   0.15892   0.04666   0.00000  Uiso   1.00
C22    C     0.25722   0.18387   0.47883   0.00000  Uiso   1.00
C23    C     0.19082   0.18555   0.04637   0.00000  Uiso   1.00
C24    C     0.07946   0.13663   0.02434   0.00000  Uiso   1.00
C25    C     0.17706   0.15592   0.47837   0.00000  Uiso   1.00
C26    C     0.15861   0.16734   0.02414   0.00000  Uiso   1.00
C27    C     0.29424   0.29252   0.18359   0.00000  Uiso   1.00
C28    C     0.03910   0.04084   0.31643   0.00000  Uiso   1.00
C29    C     0.14660   0.13342   0.45755   0.00000  Uiso   1.00
C30    C     0.23927   0.19354   0.02440   0.00000  Uiso   1.00
C31    C     0.09872   0.12383   0.47992   0.00000  Uiso   1.00
C32    C     0.31178   0.02256   0.22190   0.00000  Uiso   1.00
C33    C     0.02150   0.31076   0.27818   0.00000  Uiso   1.00
C34    C     0.31293   0.31298   0.21873   0.00000  Uiso   1.00
Cu35   Cu    0.04689   0.16667   0.25000   0.00000  Uiso   1.00
Cu36   Cu    0.28645   0.16666   0.25000   0.00000  Uiso   1.00
H37    H     0.10714   0.19054   0.10910   0.00000  Uiso   1.00
H38    H     0.22487   0.21437   0.20137   0.00000  Uiso   1.00
H39    H     0.25460   0.24149   0.06014   0.00000  Uiso   1.00
H40    H     0.26980   0.19473   0.07639   0.00000  Uiso   1.00
H41    H     0.06894   0.11545   0.42806   0.00000  Uiso   1.00
H42    H     0.08745   0.07165   0.44825   0.00000  Uiso   1.00
H43    H     0.27585   0.14335   0.12798   0.00000  Uiso   1.00
H44    H     0.30280   0.10037   0.14208   0.00000  Uiso   1.00
H45    H     0.05906   0.16958   0.37901   0.00000  Uiso   1.00
H46    H     0.05598   0.21270   0.40929   0.00000  Uiso   1.00
H47    H     0.30241   0.26044   0.17500   0.00000  Uiso   1.00
H48    H     0.22073   0.15092   0.38839   0.00000  Uiso   1.00
H49    H     0.03085   0.07291   0.32506   0.00000  Uiso   1.00
H50    H     0.17858   0.11599   0.33845   0.00000  Uiso   1.00
H51    H     0.19189   0.08146   0.29626   0.00000  Uiso   1.00
H52    H     0.15453   0.21715   0.16150   0.00000  Uiso   1.00
H53    H     0.14160   0.25184   0.20355   0.00000  Uiso   1.00
H54    H     0.33032   0.20483   0.47455   0.00000  Uiso   1.00
H55    H     0.00870   0.10872   0.03095   0.00000  Uiso   1.00
H56    H     0.18022   0.19322   0.08146   0.00000  Uiso   1.00
H57    H     0.15934   0.12095   0.42425   0.00000  Uiso   1.00
H58    H     0.29631   0.04058   0.19949   0.00000  Uiso   1.00
H59    H     0.03690   0.29273   0.30065   0.00000  Uiso   1.00
H60    H     0.10847   0.11892   0.29858   0.00000  Uiso   1.00
N61    N     0.11736   0.16668   0.24999   0.00000  Uiso   1.00
N62    N     0.21597   0.16666   0.25001   0.00000  Uiso   1.00
N63    N     0.26985   0.21302   0.04843   0.00000  Uiso   1.00
N64    N     0.07002   0.09984   0.45747   0.00000  Uiso   1.00
N65    N     0.29933   0.11904   0.11539   0.00000  Uiso   1.00
N66    N     0.03969   0.19698   0.38756   0.00000  Uiso   1.00
N67    N     0.19933   0.11133   0.30546   0.00000  Uiso   1.00
N68    N     0.13398   0.22196   0.19451   0.00000  Uiso   1.00
O69    O     0.03958   0.10655   0.25000   0.00000  Uiso   1.00
O70    O     0.06360   0.02189   0.33669   0.00000  Uiso   1.00
O71    O     0.29375   0.22678   0.25000   0.00000  Uiso   1.00
O72    O     0.29372   0.10654   0.25000   0.00000  Uiso   1.00
O73    O     0.03961   0.22679   0.24999   0.00000  Uiso   1.00
O74    O     0.01852   0.16668   0.31491   0.00000  Uiso   1.00
O75    O     0.31481   0.16666   0.18508   0.00000  Uiso   1.00
O76    O     0.27267   0.16667   0.31492   0.00000  Uiso   1.00
O77    O     0.06067   0.16667   0.18508   0.00000  Uiso   1.00
O78    O     0.26984   0.31151   0.16327   0.00000  Uiso   1.00
C79    C     0.66616   0.08747   0.25143   0.00000  Uiso   1.00
C80    C     0.35372   0.02036   0.28132   0.00000  Uiso   1.00
C81    C     0.33428   0.29052   0.24772   0.00000  Uiso   1.00
C82    C     0.66570   0.04281   0.25232   0.00000  Uiso   1.00
C83    C     0.51668   0.13989   0.27705   0.00000  Uiso   1.00
C84    C     0.48332   0.19343   0.22293   0.00000  Uiso   1.00
C85    C     0.46707   0.14010   0.27697   0.00000  Uiso   1.00
C86    C     0.53293   0.19321   0.22300   0.00000  Uiso   1.00
C87    C     0.63960   0.16764   0.33622   0.00000  Uiso   1.00
C88    C     0.36036   0.16494   0.16392   0.00000  Uiso   1.00
C89    C     0.62526   0.17086   0.38571   0.00000  Uiso   1.00
C90    C     0.33384   0.24586   0.24858   0.00000  Uiso   1.00
C91    C     0.37482   0.15834   0.11500   0.00000  Uiso   1.00
C92    C     0.63928   0.19237   0.45634   0.00000  Uiso   1.00
C93    C     0.36481   0.12610   0.04739   0.00000  Uiso   1.00
C94    C     0.65706   0.18593   0.41005   0.00000  Uiso   1.00
C95    C     0.34614   0.13548   0.09267   0.00000  Uiso   1.00
C96    C     0.57734   0.16098   0.40847   0.00000  Uiso   1.00
C97    C     0.42130   0.17125   0.09126   0.00000  Uiso   1.00
C98    C     0.55925   0.16624   0.45515   0.00000  Uiso   1.00
C99    C     0.44231   0.15892   0.04666   0.00000  Uiso   1.00
C100   C     0.59056   0.18387   0.47883   0.00000  Uiso   1.00
C101   C     0.52415   0.18555   0.04637   0.00000  Uiso   1.00
C102   C     0.41279   0.13663   0.02434   0.00000  Uiso   1.00
C103   C     0.51039   0.15592   0.47837   0.00000  Uiso   1.00
C104   C     0.49195   0.16734   0.02414   0.00000  Uiso   1.00
C105   C     0.62757   0.29252   0.18359   0.00000  Uiso   1.00
C106   C     0.37243   0.04084   0.31643   0.00000  Uiso   1.00
C107   C     0.47993   0.13342   0.45755   0.00000  Uiso   1.00
C108   C     0.57260   0.19354   0.02440   0.00000  Uiso   1.00
C109   C     0.43205   0.12383   0.47992   0.00000  Uiso   1.00
C110   C     0.64512   0.02256   0.22190   0.00000  Uiso   1.00
C111   C     0.35483   0.31076   0.27818   0.00000  Uiso   1.00
C112   C     0.64627   0.31298   0.21873   0.00000  Uiso   1.00
Cu113  Cu    0.38022   0.16667   0.25000   0.00000  Uiso   1.00
Cu114  Cu    0.61978   0.16666   0.25000   0.00000  Uiso   1.00
H115   H     0.44047   0.19054   0.10910   0.00000  Uiso   1.00
H116   H     0.55820   0.21437   0.20137   0.00000  Uiso   1.00
H117   H     0.58793   0.24149   0.06014   0.00000  Uiso   1.00
H118   H     0.60314   0.19473   0.07639   0.00000  Uiso   1.00
H119   H     0.40227   0.11545   0.42806   0.00000  Uiso   1.00
H120   H     0.42078   0.07165   0.44825   0.00000  Uiso   1.00
H121   H     0.60919   0.14335   0.12798   0.00000  Uiso   1.00
H122   H     0.63613   0.10037   0.14208   0.00000  Uiso   1.00
H123   H     0.39239   0.16958   0.37901   0.00000  Uiso   1.00
H124   H     0.38932   0.21270   0.40929   0.00000  Uiso   1.00
H125   H     0.63574   0.26044   0.17500   0.00000  Uiso   1.00
H126   H     0.55406   0.15092   0.38839   0.00000  Uiso   1.00
H127   H     0.36419   0.07291   0.32506   0.00000  Uiso   1.00
H128   H     0.51191   0.11599   0.33845   0.00000  Uiso   1.00
H129   H     0.52522   0.08146   0.29626   0.00000  Uiso   1.00
H130   H     0.48787   0.21715   0.16150   0.00000  Uiso   1.00
H131   H     0.47493   0.25184   0.20355   0.00000  Uiso   1.00
H132   H     0.66365   0.20483   0.47455   0.00000  Uiso   1.00
H133   H     0.34203   0.10872   0.03095   0.00000  Uiso   1.00
H134   H     0.51355   0.19322   0.08146   0.00000  Uiso   1.00
H135   H     0.49267   0.12095   0.42425   0.00000  Uiso   1.00
H136   H     0.62964   0.04058   0.19949   0.00000  Uiso   1.00
H137   H     0.37024   0.29273   0.30065   0.00000  Uiso   1.00
H138   H     0.44180   0.11892   0.29858   0.00000  Uiso   1.00
N139   N     0.45069   0.16668   0.24999   0.00000  Uiso   1.00
N140   N     0.54931   0.16666   0.25001   0.00000  Uiso   1.00
N141   N     0.60318   0.21302   0.04843   0.00000  Uiso   1.00
N142   N     0.40335   0.09984   0.45747   0.00000  Uiso   1.00
N143   N     0.63267   0.11904   0.11539   0.00000  Uiso   1.00
N144   N     0.37302   0.19698   0.38756   0.00000  Uiso   1.00
N145   N     0.53266   0.11133   0.30546   0.00000  Uiso   1.00
N146   N     0.46731   0.22196   0.19451   0.00000  Uiso   1.00
O147   O     0.37291   0.10655   0.25000   0.00000  Uiso   1.00
O148   O     0.39694   0.02189   0.33669   0.00000  Uiso   1.00
O149   O     0.62709   0.22678   0.25000   0.00000  Uiso   1.00
O150   O     0.62706   0.10654   0.25000   0.00000  Uiso   1.00
O151   O     0.37294   0.22679   0.24999   0.00000  Uiso   1.00
O152   O     0.35186   0.16668   0.31491   0.00000  Uiso   1.00
O153   O     0.64814   0.16666   0.18508   0.00000  Uiso   1.00
O154   O     0.60600   0.16667   0.31492   0.00000  Uiso   1.00
O155   O     0.39400   0.16667   0.18508   0.00000  Uiso   1.00
O156   O     0.60317   0.31151   0.16327   0.00000  Uiso   1.00
C157   C     0.99949   0.08747   0.25143   0.00000  Uiso   1.00
C158   C     0.68705   0.02036   0.28132   0.00000  Uiso   1.00
C159   C     0.66761   0.29052   0.24772   0.00000  Uiso   1.00
C160   C     0.99904   0.04281   0.25232   0.00000  Uiso   1.00
C161   C     0.85002   0.13989   0.27705   0.00000  Uiso   1.00
C162   C     0.81665   0.19343   0.22293   0.00000  Uiso   1.00
C163   C     0.80040   0.14010   0.27697   0.00000  Uiso   1.00
C164   C     0.86627   0.19321   0.22300   0.00000  Uiso   1.00
C165   C     0.97293   0.16764   0.33622   0.00000  Uiso   1.00
C166   C     0.69370   0.16494   0.16392   0.00000  Uiso   1.00
C167   C     0.95859   0.17086   0.38571   0.00000  Uiso   1.00
C168   C     0.66717   0.24586   0.24858   0.00000  Uiso   1.00
C169   C     0.70816   0.15834   0.11500   0.00000  Uiso   1.00
C170   C     0.97261   0.19237   0.45634   0.00000  Uiso   1.00
C171   C     0.69814   0.12610   0.04739   0.00000  Uiso   1.00
C172   C     0.99039   0.18593   0.41005   0.00000  Uiso   1.00
C173   C     0.67947   0.13548   0.09267   0.00000  Uiso   1.00
C174   C     0.91067   0.16098   0.40847   0.00000  Uiso   1.00
C175   C     0.75463   0.17125   0.09126   0.00000  Uiso   1.00
C176   C     0.89258   0.16624   0.45515   0.00000  Uiso   1.00
C177   C     0.77564   0.15892   0.04666   0.00000  Uiso   1.00
C178   C     0.92389   0.18387   0.47883   0.00000  Uiso   1.00
C179   C     0.85749   0.18555   0.04637   0.00000  Uiso   1.00
C180   C     0.74613   0.13663   0.02434   0.00000  Uiso   1.00
C181   C     0.84372   0.15592   0.47837   0.00000  Uiso   1.00
C182   C     0.82528   0.16734   0.02414   0.00000  Uiso   1.00
C183   C     0.96090   0.29252   0.18359   0.00000  Uiso   1.00
C184   C     0.70576   0.04084   0.31643   0.00000  Uiso   1.00
C185   C     0.81326   0.13342   0.45755   0.00000  Uiso   1.00
C186   C     0.90593   0.19354   0.02440   0.00000  Uiso   1.00
C187   C     0.76538   0.12383   0.47992   0.00000  Uiso   1.00
C188   C     0.97845   0.02256   0.22190   0.00000  Uiso   1.00
C189   C     0.68817   0.31076   0.27818   0.00000  Uiso   1.00
C190   C     0.97960   0.31298   0.21873   0.00000  Uiso   1.00
Cu191  Cu    0.71355   0.16667   0.25000   0.00000  Uiso   1.00
Cu192  Cu    0.95311   0.16666   0.25000   0.00000  Uiso   1.00
H193   H     0.77380   0.19054   0.10910   0.00000  Uiso   1.00
H194   H     0.89154   0.21437   0.20137   0.00000  Uiso   1.00
H195   H     0.92126   0.24149   0.06014   0.00000  Uiso   1.00
H196   H     0.93647   0.19473   0.07639   0.00000  Uiso   1.00
H197   H     0.73561   0.11545   0.42806   0.00000  Uiso   1.00
H198   H     0.75411   0.07165   0.44825   0.00000  Uiso   1.00
H199   H     0.94252   0.14335   0.12798   0.00000  Uiso   1.00
H200   H     0.96947   0.10037   0.14208   0.00000  Uiso   1.00
H201   H     0.72572   0.16958   0.37901   0.00000  Uiso   1.00
H202   H     0.72265   0.21270   0.40929   0.00000  Uiso   1.00
H203   H     0.96907   0.26044   0.17500   0.00000  Uiso   1.00
H204   H     0.88740   0.15092   0.38839   0.00000  Uiso   1.00
H205   H     0.69752   0.07291   0.32506   0.00000  Uiso   1.00
H206   H     0.84525   0.11599   0.33845   0.00000  Uiso   1.00
H207   H     0.85856   0.08146   0.29626   0.00000  Uiso   1.00
H208   H     0.82120   0.21715   0.16150   0.00000  Uiso   1.00
H209   H     0.80827   0.25184   0.20355   0.00000  Uiso   1.00
H210   H     0.99699   0.20483   0.47455   0.00000  Uiso   1.00
H211   H     0.67537   0.10872   0.03095   0.00000  Uiso   1.00
H212   H     0.84688   0.19322   0.08146   0.00000  Uiso   1.00
H213   H     0.82600   0.12095   0.42425   0.00000  Uiso   1.00
H214   H     0.96297   0.04058   0.19949   0.00000  Uiso   1.00
H215   H     0.70357   0.29273   0.30065   0.00000  Uiso   1.00
H216   H     0.77514   0.11892   0.29858   0.00000  Uiso   1.00
N217   N     0.78403   0.16668   0.24999   0.00000  Uiso   1.00
N218   N     0.88264   0.16666   0.25001   0.00000  Uiso   1.00
N219   N     0.93652   0.21302   0.04843   0.00000  Uiso   1.00
N220   N     0.73668   0.09984   0.45747   0.00000  Uiso   1.00
N221   N     0.96600   0.11904   0.11539   0.00000  Uiso   1.00
N222   N     0.70636   0.19698   0.38756   0.00000  Uiso   1.00
N223   N     0.86600   0.11133   0.30546   0.00000  Uiso   1.00
N224   N     0.80065   0.22196   0.19451   0.00000  Uiso   1.00
O225   O     0.70625   0.10655   0.25000   0.00000  Uiso   1.00
O226   O     0.73027   0.02189   0.33669   0.00000  Uiso   1.00
O227   O     0.96042   0.22678   0.25000   0.00000  Uiso   1.00
O228   O     0.96039   0.10654   0.25000   0.00000  Uiso   1.00
O229   O     0.70628   0.22679   0.24999   0.00000  Uiso   1.00
O230   O     0.68519   0.16668   0.31491   0.00000  Uiso   1.00
O231   O     0.98148   0.16666   0.18508   0.00000  Uiso   1.00
O232   O     0.93933   0.16667   0.31492   0.00000  Uiso   1.00
O233   O     0.72733   0.16667   0.18508   0.00000  Uiso   1.00
O234   O     0.93650   0.31151   0.16327   0.00000  Uiso   1.00
C235   C     0.33283   0.42080   0.25143   0.00000  Uiso   1.00
C236   C     0.02038   0.35369   0.28132   0.00000  Uiso   1.00
C237   C     0.00095   0.62386   0.24772   0.00000  Uiso   1.00
C238   C     0.33237   0.37614   0.25232   0.00000  Uiso   1.00
C239   C     0.18335   0.47322   0.27705   0.00000  Uiso   1.00
C240   C     0.14998   0.52676   0.22293   0.00000  Uiso   1.00
C241   C     0.13374   0.47343   0.27697   0.00000  Uiso   1.00
C242   C     0.19960   0.52654   0.22300   0.00000  Uiso   1.00
C243   C     0.30626   0.50097   0.33622   0.00000  Uiso   1.00
C244   C     0.02703   0.49827   0.16392   0.00000  Uiso   1.00
C245   C     0.29193   0.50419   0.38571   0.00000  Uiso   1.00
C246   C     0.00050   0.57920   0.24858   0.00000  Uiso   1.00
C247   C     0.04149   0.49167   0.11500   0.00000  Uiso   1.00
C248   C     0.30594   0.52570   0.45634   0.00000  Uiso   1.00
C249   C     0.03147   0.45943   0.04739   0.00000  Uiso   1.00
C250   C     0.32373   0.51926   0.41005   0.00000  Uiso   1.00
C251   C     0.01281   0.46881   0.09267   0.00000  Uiso   1.00
C252   C     0.24400   0.49432   0.40847   0.00000  Uiso   1.00
C253   C     0.08796   0.50458   0.09126   0.00000  Uiso   1.00
C254   C     0.22591   0.49957   0.45515   0.00000  Uiso   1.00
C255   C     0.10898   0.49225   0.04666   0.00000  Uiso   1.00
C256   C     0.25722   0.51720   0.47883   0.00000  Uiso   1.00
C257   C     0.19082   0.51889   0.04637   0.00000  Uiso   1.00
C258   C     0.07946   0.46997   0.02434   0.00000  Uiso   1.00
C259   C     0.17706   0.48925   0.47837   0.00000  Uiso   1.00
C260   C     0.15861   0.50068   0.02414   0.00000  Uiso   1.00
C261   C     0.29424   0.62586   0.18359   0.00000  Uiso   1.00
C262   C     0.03910   0.37417   0.31643   0.00000  Uiso   1.00
C263   C     0.14660   0.46675   0.45755   0.00000  Uiso   1.00
C264   C     0.23927   0.52687   0.02440   0.00000  Uiso   1.00
C265   C     0.09872   0.45716   0.47992   0.00000  Uiso   1.00
C266   C     0.31178   0.35590   0.22190   0.00000  Uiso   1.00
C267   C     0.02150   0.64410   0.27818   0.00000  Uiso   1.00
C268   C     0.31293   0.64631   0.21873   0.00000  Uiso   1.00
Cu269  Cu    0.04689   0.50001   0.25000   0.00000  Uiso   1.00
Cu270  Cu    0.28645   0.49999   0.25000   0.00000  Uiso   1.00
H271   H     0.10714   0.52388   0.10910   0.00000  Uiso   1.00
H272   H     0.22487   0.54771   0.20137   0.00000  Uiso   1.00
H273   H     0.25460   0.57483   0.06014   0.00000  Uiso   1.00
H274   H     0.26980   0.52806   0.07639   0.00000  Uiso   1.00
H275   H     0.06894   0.44879   0.42806   0.00000  Uiso   1.00
H276   H     0.08745   0.40498   0.44825   0.00000  Uiso   1.00
H277   H     0.27585   0.47669   0.12798   0.00000  Uiso   1.00
H278   H     0.30280   0.43370   0.14208   0.00000  Uiso   1.00
H279   H     0.05906   0.50292   0.37901   0.00000  Uiso   1.00
H280   H     0.05598   0.54604   0.40929   0.00000  Uiso   1.00
H281   H     0.30241   0.59377   0.17500   0.00000  Uiso   1.00
H282   H     0.22073   0.48426   0.38839   0.00000  Uiso   1.00
H283   H     0.03085   0.40624   0.32506   0.00000  Uiso   1.00
H284   H     0.17858   0.44932   0.33845   0.00000  Uiso   1.00
H285   H     0.19189   0.41480   0.29626   0.00000  Uiso   1.00
H286   H     0.15453   0.55049   0.16150   0.00000  Uiso   1.00
H287   H     0.14160   0.58517   0.20355   0.00000  Uiso   1.00
H288   H     0.33032   0.53816   0.47455   0.00000  Uiso   1.00
H289   H     0.00870   0.44205   0.03095   0.00000  Uiso   1.00
H290   H     0.18022   0.52656   0.08146   0.00000  Uiso   1.00
H291   H     0.15934   0.45428   0.42425   0.00000  Uiso   1.00
H292   H     0.29631   0.37392   0.19949   0.00000  Uiso   1.00
H293   H     0.03690   0.62606   0.30065   0.00000  Uiso   1.00
H294   H     0.10847   0.45226   0.29858   0.00000  Uiso   1.00
N295   N     0.11736   0.50001   0.24999   0.00000  Uiso   1.00
N296   N     0.21597   0.49999   0.25001   0.00000  Uiso   1.00
N297   N     0.26985   0.54635   0.04843   0.00000  Uiso   1.00
N298   N     0.07002   0.43318   0.45747   0.00000  Uiso   1.00
N299   N     0.29933   0.45238   0.11539   0.00000  Uiso   1.00
N300   N     0.03969   0.53032   0.38756   0.00000  Uiso   1.00
N301   N     0.19933   0.44467   0.30546   0.00000  Uiso   1.00
N302   N     0.13398   0.55530   0.19451   0.00000  Uiso   1.00
O303   O     0.03958   0.43989   0.25000   0.00000  Uiso   1.00
O304   O     0.06360   0.35522   0.33669   0.00000  Uiso   1.00
O305   O     0.29375   0.56011   0.25000   0.00000  Uiso   1.00
O306   O     0.29372   0.43988   0.25000   0.00000  Uiso   1.00
O307   O     0.03961   0.56012   0.24999   0.00000  Uiso   1.00
O308   O     0.01852   0.50001   0.31491   0.00000  Uiso   1.00
O309   O     0.31481   0.49999   0.18508   0.00000  Uiso   1.00
O310   O     0.27267   0.50000   0.31492   0.00000  Uiso   1.00
O311   O     0.06067   0.50000   0.18508   0.00000  Uiso   1.00
O312   O     0.26984   0.64485   0.16327   0.00000  Uiso   1.00
C313   C     0.66616   0.42080   0.25143   0.00000  Uiso   1.00
C314   C     0.35372   0.35369   0.28132   0.00000  Uiso   1.00
C315   C     0.33428   0.62386   0.24772   0.00000  Uiso   1.00
C316   C     0.66570   0.37614   0.25232   0.00000  Uiso   1.00
C317   C     0.51668   0.47322   0.27705   0.00000  Uiso   1.00
C318   C     0.48332   0.52676   0.22293   0.00000  Uiso   1.00
C319   C     0.46707   0.47343   0.27697   0.00000  Uiso   1.00
C320   C     0.53293   0.52654   0.22300   0.00000  Uiso   1.00
C321   C     0.63960   0.50097   0.33622   0.00000  Uiso   1.00
C322   C     0.36036   0.49827   0.16392   0.00000  Uiso   1.00
C323   C     0.62526   0.50419   0.38571   0.00000  Uiso   1.00
C324   C     0.33384   0.57920   0.24858   0.00000  Uiso   1.00
C325   C     0.37482   0.49167   0.11500   0.00000  Uiso   1.00
C326   C     0.63928   0.52570   0.45634   0.00000  Uiso   1.00
C327   C     0.36481   0.45943   0.04739   0.00000  Uiso   1.00
C328   C     0.65706   0.51926   0.41005   0.00000  Uiso   1.00
C329   C     0.34614   0.46881   0.09267   0.00000  Uiso   1.00
C330   C     0.57734   0.49432   0.40847   0.00000  Uiso   1.00
C331   C     0.42130   0.50458   0.09126   0.00000  Uiso   1.00
C332   C     0.55925   0.49957   0.45515   0.00000  Uiso   1.00
C333   C     0.44231   0.49225   0.04666   0.00000  Uiso   1.00
C334   C     0.59056   0.51720   0.47883   0.00000  Uiso   1.00
C335   C     0.52415   0.51889   0.04637   0.00000  Uiso   1.00
C336   C     0.41279   0.46997   0.02434   0.00000  Uiso   1.00
C337   C     0.51039   0.48925   0.47837   0.00000  Uiso   1.00
C338   C     0.49195   0.50068   0.02414   0.00000  Uiso   1.00
C339   C     0.62757   0.62586   0.18359   0.00000  Uiso   1.00
C340   C     0.37243   0.37417   0.31643   0.00000  Uiso   1.00
C341   C     0.47993   0.46675   0.45755   0.00000  Uiso   1.00
C342   C     0.57260   0.52687   0.02440   0.00000  Uiso   1.00
C343   C     0.43205   0.45716   0.47992   0.00000  Uiso   1.00
C344   C     0.64512   0.35590   0.22190   0.00000  Uiso   1.00
C345   C     0.35483   0.64410   0.27818   0.00000  Uiso   1.00
C346   C     0.64627   0.64631   0.21873   0.00000  Uiso   1.00
Cu347  Cu    0.38022   0.50001   0.25000   0.00000  Uiso   1.00
Cu348  Cu    0.61978   0.49999   0.25000   0.00000  Uiso   1.00
H349   H     0.44047   0.52388   0.10910   0.00000  Uiso   1.00
H350   H     0.55820   0.54771   0.20137   0.00000  Uiso   1.00
H351   H     0.58793   0.57483   0.06014   0.00000  Uiso   1.00
H352   H     0.60314   0.52806   0.07639   0.00000  Uiso   1.00
H353   H     0.40227   0.44879   0.42806   0.00000  Uiso   1.00
H354   H     0.42078   0.40498   0.44825   0.00000  Uiso   1.00
H355   H     0.60919   0.47669   0.12798   0.00000  Uiso   1.00
H356   H     0.63613   0.43370   0.14208   0.00000  Uiso   1.00
H357   H     0.39239   0.50292   0.37901   0.00000  Uiso   1.00
H358   H     0.38932   0.54604   0.40929   0.00000  Uiso   1.00
H359   H     0.63574   0.59377   0.17500   0.00000  Uiso   1.00
H360   H     0.55406   0.48426   0.38839   0.00000  Uiso   1.00
H361   H     0.36419   0.40624   0.32506   0.00000  Uiso   1.00
H362   H     0.51191   0.44932   0.33845   0.00000  Uiso   1.00
H363   H     0.52522   0.41480   0.29626   0.00000  Uiso   1.00
H364   H     0.48787   0.55049   0.16150   0.00000  Uiso   1.00
H365   H     0.47493   0.58517   0.20355   0.00000  Uiso   1.00
H366   H     0.66365   0.53816   0.47455   0.00000  Uiso   1.00
H367   H     0.34203   0.44205   0.03095   0.00000  Uiso   1.00
H368   H     0.51355   0.52656   0.08146   0.00000  Uiso   1.00
H369   H     0.49267   0.45428   0.42425   0.00000  Uiso   1.00
H370   H     0.62964   0.37392   0.19949   0.00000  Uiso   1.00
H371   H     0.37024   0.62606   0.30065   0.00000  Uiso   1.00
H372   H     0.44180   0.45226   0.29858   0.00000  Uiso   1.00
N373   N     0.45069   0.50001   0.24999   0.00000  Uiso   1.00
N374   N     0.54931   0.49999   0.25001   0.00000  Uiso   1.00
N375   N     0.60318   0.54635   0.04843   0.00000  Uiso   1.00
N376   N     0.40335   0.43318   0.45747   0.00000  Uiso   1.00
N377   N     0.63267   0.45238   0.11539   0.00000  Uiso   1.00
N378   N     0.37302   0.53032   0.38756   0.00000  Uiso   1.00
N379   N     0.53266   0.44467   0.30546   0.00000  Uiso   1.00
N380   N     0.46731   0.55530   0.19451   0.00000  Uiso   1.00
O381   O     0.37291   0.43989   0.25000   0.00000  Uiso   1.00
O382   O     0.39694   0.35522   0.33669   0.00000  Uiso   1.00
O383   O     0.62709   0.56011   0.25000   0.00000  Uiso   1.00
O384   O     0.62706   0.43988   0.25000   0.00000  Uiso   1.00
O385   O     0.37294   0.56012   0.24999   0.00000  Uiso   1.00
O386   O     0.35186   0.50001   0.31491   0.00000  Uiso   1.00
O387   O     0.64814   0.49999   0.18508   0.00000  Uiso   1.00
O388   O     0.60600   0.50000   0.31492   0.00000  Uiso   1.00
O389   O     0.39400   0.50000   0.18508   0.00000  Uiso   1.00
O390   O     0.60317   0.64485   0.16327   0.00000  Uiso   1.00
C391   C     0.99949   0.42080   0.25143   0.00000  Uiso   1.00
C392   C     0.68705   0.35369   0.28132   0.00000  Uiso   1.00
C393   C     0.66761   0.62386   0.24772   0.00000  Uiso   1.00
C394   C     0.99904   0.37614   0.25232   0.00000  Uiso   1.00
C395   C     0.85002   0.47322   0.27705   0.00000  Uiso   1.00
C396   C     0.81665   0.52676   0.22293   0.00000  Uiso   1.00
C397   C     0.80040   0.47343   0.27697   0.00000  Uiso   1.00
C398   C     0.86627   0.52654   0.22300   0.00000  Uiso   1.00
C399   C     0.97293   0.50097   0.33622   0.00000  Uiso   1.00
C400   C     0.69370   0.49827   0.16392   0.00000  Uiso   1.00
C401   C     0.95859   0.50419   0.38571   0.00000  Uiso   1.00
C402   C     0.66717   0.57920   0.24858   0.00000  Uiso   1.00
C403   C     0.70816   0.49167   0.11500   0.00000  Uiso   1.00
C404   C     0.97261   0.52570   0.45634   0.00000  Uiso   1.00
C405   C     0.69814   0.45943   0.04739   0.00000  Uiso   1.00
C406   C     0.99039   0.51926   0.41005   0.00000  Uiso   1.00
C407   C     0.67947   0.46881   0.09267   0.00000  Uiso   1.00
C408   C     0.91067   0.49432   0.40847   0.00000  Uiso   1.00
C409   C     0.75463   0.50458   0.09126   0.00000  Uiso   1.00
C410   C     0.89258   0.49957   0.45515   0.00000  Uiso   1.00
C411   C     0.77564   0.49225   0.04666   0.00000  Uiso   1.00
C412   C     0.92389   0.51720   0.47883   0.00000  Uiso   1.00
C413   C     0.85749   0.51889   0.04637   0.00000  Uiso   1.00
C414   C     0.74613   0.46997   0.02434   0.00000  Uiso   1.00
C415   C     0.84372   0.48925   0.47837   0.00000  Uiso   1.00
C416   C     0.82528   0.50068   0.02414   0.00000  Uiso   1.00
C417   C     0.96090   0.62586   0.18359   0.00000  Uiso   1.00
C418   C     0.70576   0.37417   0.31643   0.00000  Uiso   1.00
C419   C     0.81326   0.46675   0.45755   0.00000  Uiso   1.00
C420   C     0.90593   0.52687   0.02440   0.00000  Uiso   1.00
C421   C     0.76538   0.45716   0.47992   0.00000  Uiso   1.00
C422   C     0.97845   0.35590   0.22190   0.00000  Uiso   1.00
C423   C     0.68817   0.64410   0.27818   0.00000  Uiso   1.00
C424   C     0.97960   0.64631   0.21873   0.00000  Uiso   1.00
Cu425  Cu    0.71355   0.50001   0.25000   0.00000  Uiso   1.00
Cu426  Cu    0.95311   0.49999   0.25000   0.00000  Uiso   1.00
H427   H     0.77380   0.52388   0.10910   0.00000  Uiso   1.00
H428   H     0.89154   0.54771   0.20137   0.00000  Uiso   1.00
H429   H     0.92126   0.57483   0.06014   0.00000  Uiso   1.00
H430   H     0.93647   0.52806   0.07639   0.00000  Uiso   1.00
H431   H     0.73561   0.44879   0.42806   0.00000  Uiso   1.00
H432   H     0.75411   0.40498   0.44825   0.00000  Uiso   1.00
H433   H     0.94252   0.47669   0.12798   0.00000  Uiso   1.00
H434   H     0.96947   0.43370   0.14208   0.00000  Uiso   1.00
H435   H     0.72572   0.50292   0.37901   0.00000  Uiso   1.00
H436   H     0.72265   0.54604   0.40929   0.00000  Uiso   1.00
H437   H     0.96907   0.59377   0.17500   0.00000  Uiso   1.00
H438   H     0.88740   0.48426   0.38839   0.00000  Uiso   1.00
H439   H     0.69752   0.40624   0.32506   0.00000  Uiso   1.00
H440   H     0.84525   0.44932   0.33845   0.00000  Uiso   1.00
H441   H     0.85856   0.41480   0.29626   0.00000  Uiso   1.00
H442   H     0.82120   0.55049   0.16150   0.00000  Uiso   1.00
H443   H     0.80827   0.58517   0.20355   0.00000  Uiso   1.00
H444   H     0.99699   0.53816   0.47455   0.00000  Uiso   1.00
H445   H     0.67537   0.44205   0.03095   0.00000  Uiso   1.00
H446   H     0.84688   0.52656   0.08146   0.00000  Uiso   1.00
H447   H     0.82600   0.45428   0.42425   0.00000  Uiso   1.00
H448   H     0.96297   0.37392   0.19949   0.00000  Uiso   1.00
H449   H     0.70357   0.62606   0.30065   0.00000  Uiso   1.00
H450   H     0.77514   0.45226   0.29858   0.00000  Uiso   1.00
N451   N     0.78403   0.50001   0.24999   0.00000  Uiso   1.00
N452   N     0.88264   0.49999   0.25001   0.00000  Uiso   1.00
N453   N     0.93652   0.54635   0.04843   0.00000  Uiso   1.00
N454   N     0.73668   0.43318   0.45747   0.00000  Uiso   1.00
N455   N     0.96600   0.45238   0.11539   0.00000  Uiso   1.00
N456   N     0.70636   0.53032   0.38756   0.00000  Uiso   1.00
N457   N     0.86600   0.44467   0.30546   0.00000  Uiso   1.00
N458   N     0.80065   0.55530   0.19451   0.00000  Uiso   1.00
O459   O     0.70625   0.43989   0.25000   0.00000  Uiso   1.00
O460   O     0.73027   0.35522   0.33669   0.00000  Uiso   1.00
O461   O     0.96042   0.56011   0.25000   0.00000  Uiso   1.00
O462   O     0.96039   0.43988   0.25000   0.00000  Uiso   1.00
O463   O     0.70628   0.56012   0.24999   0.00000  Uiso   1.00
O464   O     0.68519   0.50001   0.31491   0.00000  Uiso   1.00
O465   O     0.98148   0.49999   0.18508   0.00000  Uiso   1.00
O466   O     0.93933   0.50000   0.31492   0.00000  Uiso   1.00
O467   O     0.72733   0.50000   0.18508   0.00000  Uiso   1.00
O468   O     0.93650   0.64485   0.16327   0.00000  Uiso   1.00
C469   C     0.33283   0.75414   0.25143   0.00000  Uiso   1.00
C470   C     0.02038   0.68702   0.28132   0.00000  Uiso   1.00
C471   C     0.00095   0.95719   0.24772   0.00000  Uiso   1.00
C472   C     0.33237   0.70948   0.25232   0.00000  Uiso   1.00
C473   C     0.18335   0.80655   0.27705   0.00000  Uiso   1.00
C474   C     0.14998   0.86010   0.22293   0.00000  Uiso   1.00
C475   C     0.13374   0.80677   0.27697   0.00000  Uiso   1.00
C476   C     0.19960   0.85988   0.22300   0.00000  Uiso   1.00
C477   C     0.30626   0.83431   0.33622   0.00000  Uiso   1.00
C478   C     0.02703   0.83161   0.16392   0.00000  Uiso   1.00
C479   C     0.29193   0.83752   0.38571   0.00000  Uiso   1.00
C480   C     0.00050   0.91253   0.24858   0.00000  Uiso   1.00
C481   C     0.04149   0.82500   0.11500   0.00000  Uiso   1.00
C482   C     0.30594   0.85904   0.45634   0.00000  Uiso   1.00
C483   C     0.03147   0.79277   0.04739   0.00000  Uiso   1.00
C484   C     0.32373   0.85260   0.41005   0.00000  Uiso   1.00
C485   C     0.01281   0.80214   0.09267   0.00000  Uiso   1.00
C486   C     0.24400   0.82765   0.40847   0.00000  Uiso   1.00
C487   C     0.08796   0.83791   0.09126   0.00000  Uiso   1.00
C488   C     0.22591   0.83290   0.45515   0.00000  Uiso   1.00
C489   C     0.10898   0.82558   0.04666   0.00000  Uiso   1.00
C490   C     0.25722   0.85054   0.47883   0.00000  Uiso   1.00
C491   C     0.19082   0.85222   0.04637   0.00000  Uiso   1.00
C492   C     0.07946   0.80330   0.02434   0.00000  Uiso   1.00
C493   C     0.17706   0.82258   0.47837   0.00000  Uiso   1.00
C494   C     0.15861   0.83401   0.02414   0.00000  Uiso   1.00
C495   C     0.29424   0.95919   0.18359   0.00000  Uiso   1.00
C496   C     0.03910   0.70750   0.31643   0.00000  Uiso   1.00
C497   C     0.14660   0.80009   0.45755   0.00000  Uiso   1.00
C498   C     0.23927   0.86021   0.02440   0.00000  Uiso   1.00
C499   C     0.09872   0.79049   0.47992   0.00000  Uiso   1.00
C500   C     0.31178   0.68923   0.22190   0.00000  Uiso   1.00
C501   C     0.02150   0.97743   0.27818   0.00000  Uiso   1.00
C502   C     0.31293   0.97965   0.21873   0.00000  Uiso   1.00
Cu503  Cu    0.04689   0.83334   0.25000   0.00000  Uiso   1.00
Cu504  Cu    0.28645   0.83333   0.25000   0.00000  Uiso   1.00
H505   H     0.10714   0.85721   0.10910   0.00000  Uiso   1.00
H506   H     0.22487   0.88104   0.20137   0.00000  Uiso   1.00
H507   H     0.25460   0.90816   0.06014   0.00000  Uiso   1.00
H508   H     0.26980   0.86139   0.07639   0.00000  Uiso   1.00
H509   H     0.06894   0.78212   0.42806   0.00000  Uiso   1.00
H510   H     0.08745   0.73832   0.44825   0.00000  Uiso   1.00
H511   H     0.27585   0.81002   0.12798   0.00000  Uiso   1.00
H512   H     0.30280   0.76703   0.14208   0.00000  Uiso   1.00
H513   H     0.05906   0.83625   0.37901   0.00000  Uiso   1.00
H514   H     0.05598   0.87937   0.40929   0.00000  Uiso   1.00
H515   H     0.30241   0.92710   0.17500   0.00000  Uiso   1.00
H516   H     0.22073   0.81759   0.38839   0.00000  Uiso   1.00
H517   H     0.03085   0.73958   0.32506   0.00000  Uiso   1.00
H518   H     0.17858   0.78266   0.33845   0.00000  Uiso   1.00
H519   H     0.19189   0.74813   0.29626   0.00000  Uiso   1.00
H520   H     0.15453   0.88382   0.16150   0.00000  Uiso   1.00
H521   H     0.14160   0.91850   0.20355   0.00000  Uiso   1.00
H522   H     0.33032   0.87150   0.47455   0.00000  Uiso   1.00
H523   H     0.00870   0.77539   0.03095   0.00000  Uiso   1.00
H524   H     0.18022   0.85989   0.08146   0.00000  Uiso   1.00
H525   H     0.15934   0.78761   0.42425   0.00000  Uiso   1.00
H526   H     0.29631   0.70725   0.19949   0.00000  Uiso   1.00
H527   H     0.03690   0.95939   0.30065   0.00000  Uiso   1.00
H528   H     0.10847   0.78559   0.29858   0.00000  Uiso   1.00
N529   N     0.11736   0.83334   0.24999   0.00000  Uiso   1.00
N530   N     0.21597   0.83332   0.25001   0.00000  Uiso   1.00
N531   N     0.26985   0.87969   0.04843   0.00000  Uiso   1.00
N532   N     0.07002   0.76651   0.45747   0.00000  Uiso   1.00
N533   N     0.29933   0.78571   0.11539   0.00000  Uiso   1.00
N534   N     0.03969   0.86365   0.38756   0.00000  Uiso   1.00
N535   N     0.19933   0.77800   0.30546   0.00000  Uiso   1.00
N536   N     0.13398   0.88863   0.19451   0.00000  Uiso   1.00
O537   O     0.03958   0.77322   0.25000   0.00000  Uiso   1.00
O538   O     0.06360   0.68855   0.33669   0.00000  Uiso   1.00
O539   O     0.29375   0.89345   0.25000   0.00000  Uiso   1.00
O540   O     0.29372   0.77321   0.25000   0.00000  Uiso   1.00
O541   O     0.03961   0.89346   0.24999   0.00000  Uiso   1.00
O542   O     0.01852   0.83334   0.31491   0.00000  Uiso   1.00
O543   O     0.31481   0.83332   0.18508   0.00000  Uiso   1.00
O544   O     0.27267   0.83333   0.31492   0.00000  Uiso   1.00
O545   O     0.06067   0.83333   0.18508   0.00000  Uiso   1.00
O546   O     0.26984   0.97818   0.16327   0.00000  Uiso   1.00
C547   C     0.66616   0.75414   0.25143   0.00000  Uiso   1.00
C548   C     0.35372   0.68702   0.28132   0.00000  Uiso   1.00
C549   C     0.33428   0.95719   0.24772   0.00000  Uiso   1.00
C550   C     0.66570   0.70948   0.25232   0.00000  Uiso   1.00
C551   C     0.51668   0.80655   0.27705   0.00000  Uiso   1.00
C552   C     0.48332   0.86010   0.22293   0.00000  Uiso   1.00
C553   C     0.46707   0.80677   0.27697   0.00000  Uiso   1.00
C554   C     0.53293   0.85988   0.22300   0.00000  Uiso   1.00
C555   C     0.63960   0.83431   0.33622   0.00000  Uiso   1.00
C556   C     0.36036   0.83161   0.16392   0.00000  Uiso   1.00
C557   C     0.62526   0.83752   0.38571   0.00000  Uiso   1.00
C558   C     0.33384   0.91253   0.24858   0.00000  Uiso   1.00
C559   C     0.37482   0.82500   0.11500   0.00000  Uiso   1.00
C560   C     0.63928   0.85904   0.45634   0.00000  Uiso   1.00
C561   C     0.36481   0.79277   0.04739   0.00000  Uiso   1.00
C562   C     0.65706   0.85260   0.41005   0.00000  Uiso   1.00
C563   C     0.34614   0.80214   0.09267   0.00000  Uiso   1.00
C564   C     0.57734   0.82765   0.40847   0.00000  Uiso   1.00
C565   C     0.42130   0.83791   0.09126   0.00000  Uiso   1.00
C566   C     0.55925   0.83290   0.45515   0.00000  Uiso   1.00
C567   C     0.44231   0.82558   0.04666   0.00000  Uiso   1.00
C568   C     0.59056   0.85054   0.47883   0.00000  Uiso   1.00
C569   C     0.52415   0.85222   0.04637   0.00000  Uiso   1.00
C570   C     0.41279   0.80330   0.02434   0.00000  Uiso   1.00
C571   C     0.51039   0.82258   0.47837   0.00000  Uiso   1.00
C572   C     0.49195   0.83401   0.02414   0.00000  Uiso   1.00
C573   C     0.62757   0.95919   0.18359   0.00000  Uiso   1.00
C574   C     0.37243   0.70750   0.31643   0.00000  Uiso   1.00
C575   C     0.47993   0.80009   0.45755   0.00000  Uiso   1.00
C576   C     0.57260   0.86021   0.02440   0.00000  Uiso   1.00
C577   C     0.43205   0.79049   0.47992   0.00000  Uiso   1.00
C578   C     0.64512   0.68923   0.22190   0.00000  Uiso   1.00
C579   C     0.35483   0.97743   0.27818   0.00000  Uiso   1.00
C580   C     0.64627   0.97965   0.21873   0.00000  Uiso   1.00
Cu581  Cu    0.38022   0.83334   0.25000   0.00000  Uiso   1.00
Cu582  Cu    0.61978   0.83333   0.25000   0.00000  Uiso   1.00
H583   H     0.44047   0.85721   0.10910   0.00000  Uiso   1.00
H584   H     0.55820   0.88104   0.20137   0.00000  Uiso   1.00
H585   H     0.58793   0.90816   0.06014   0.00000  Uiso   1.00
H586   H     0.60314   0.86139   0.07639   0.00000  Uiso   1.00
H587   H     0.40227   0.78212   0.42806   0.00000  Uiso   1.00
H588   H     0.42078   0.73832   0.44825   0.00000  Uiso   1.00
H589   H     0.60919   0.81002   0.12798   0.00000  Uiso   1.00
H590   H     0.63613   0.76703   0.14208   0.00000  Uiso   1.00
H591   H     0.39239   0.83625   0.37901   0.00000  Uiso   1.00
H592   H     0.38932   0.87937   0.40929   0.00000  Uiso   1.00
H593   H     0.63574   0.92710   0.17500   0.00000  Uiso   1.00
H594   H     0.55406   0.81759   0.38839   0.00000  Uiso   1.00
H595   H     0.36419   0.73958   0.32506   0.00000  Uiso   1.00
H596   H     0.51191   0.78266   0.33845   0.00000  Uiso   1.00
H597   H     0.52522   0.74813   0.29626   0.00000  Uiso   1.00
H598   H     0.48787   0.88382   0.16150   0.00000  Uiso   1.00
H599   H     0.47493   0.91850   0.20355   0.00000  Uiso   1.00
H600   H     0.66365   0.87150   0.47455   0.00000  Uiso   1.00
H601   H     0.34203   0.77539   0.03095   0.00000  Uiso   1.00
H602   H     0.51355   0.85989   0.08146   0.00000  Uiso   1.00
H603   H     0.49267   0.78761   0.42425   0.00000  Uiso   1.00
H604   H     0.62964   0.70725   0.19949   0.00000  Uiso   1.00
H605   H     0.37024   0.95939   0.30065   0.00000  Uiso   1.00
H606   H     0.44180   0.78559   0.29858   0.00000  Uiso   1.00
N607   N     0.45069   0.83334   0.24999   0.00000  Uiso   1.00
N608   N     0.54931   0.83332   0.25001   0.00000  Uiso   1.00
N609   N     0.60318   0.87969   0.04843   0.00000  Uiso   1.00
N610   N     0.40335   0.76651   0.45747   0.00000  Uiso   1.00
N611   N     0.63267   0.78571   0.11539   0.00000  Uiso   1.00
N612   N     0.37302   0.86365   0.38756   0.00000  Uiso   1.00
N613   N     0.53266   0.77800   0.30546   0.00000  Uiso   1.00
N614   N     0.46731   0.88863   0.19451   0.00000  Uiso   1.00
O615   O     0.37291   0.77322   0.25000   0.00000  Uiso   1.00
O616   O     0.39694   0.68855   0.33669   0.00000  Uiso   1.00
O617   O     0.62709   0.89345   0.25000   0.00000  Uiso   1.00
O618   O     0.62706   0.77321   0.25000   0.00000  Uiso   1.00
O619   O     0.37294   0.89346   0.24999   0.00000  Uiso   1.00
O620   O     0.35186   0.83334   0.31491   0.00000  Uiso   1.00
O621   O     0.64814   0.83332   0.18508   0.00000  Uiso   1.00
O622   O     0.60600   0.83333   0.31492   0.00000  Uiso   1.00
O623   O     0.39400   0.83333   0.18508   0.00000  Uiso   1.00
O624   O     0.60317   0.97818   0.16327   0.00000  Uiso   1.00
C625   C     0.99949   0.75414   0.25143   0.00000  Uiso   1.00
C626   C     0.68705   0.68702   0.28132   0.00000  Uiso   1.00
C627   C     0.66761   0.95719   0.24772   0.00000  Uiso   1.00
C628   C     0.99904   0.70948   0.25232   0.00000  Uiso   1.00
C629   C     0.85002   0.80655   0.27705   0.00000  Uiso   1.00
C630   C     0.81665   0.86010   0.22293   0.00000  Uiso   1.00
C631   C     0.80040   0.80677   0.27697   0.00000  Uiso   1.00
C632   C     0.86627   0.85988   0.22300   0.00000  Uiso   1.00
C633   C     0.97293   0.83431   0.33622   0.00000  Uiso   1.00
C634   C     0.69370   0.83161   0.16392   0.00000  Uiso   1.00
C635   C     0.95859   0.83752   0.38571   0.00000  Uiso   1.00
C636   C     0.66717   0.91253   0.24858   0.00000  Uiso   1.00
C637   C     0.70816   0.82500   0.11500   0.00000  Uiso   1.00
C638   C     0.97261   0.85904   0.45634   0.00000  Uiso   1.00
C639   C     0.69814   0.79277   0.04739   0.00000  Uiso   1.00
C640   C     0.99039   0.85260   0.41005   0.00000  Uiso   1.00
C641   C     0.67947   0.80214   0.09267   0.00000  Uiso   1.00
C642   C     0.91067   0.82765   0.40847   0.00000  Uiso   1.00
C643   C     0.75463   0.83791   0.09126   0.00000  Uiso   1.00
C644   C     0.89258   0.83290   0.45515   0.00000  Uiso   1.00
C645   C     0.77564   0.82558   0.04666   0.00000  Uiso   1.00
C646   C     0.92389   0.85054   0.47883   0.00000  Uiso   1.00
C647   C     0.85749   0.85222   0.04637   0.00000  Uiso   1.00
C648   C     0.74613   0.80330   0.02434   0.00000  Uiso   1.00
C649   C     0.84372   0.82258   0.47837   0.00000  Uiso   1.00
C650   C     0.82528   0.83401   0.02414   0.00000  Uiso   1.00
C651   C     0.96090   0.95919   0.18359   0.00000  Uiso   1.00
C652   C     0.70576   0.70750   0.31643   0.00000  Uiso   1.00
C653   C     0.81326   0.80009   0.45755   0.00000  Uiso   1.00
C654   C     0.90593   0.86021   0.02440   0.00000  Uiso   1.00
C655   C     0.76538   0.79049   0.47992   0.00000  Uiso   1.00
C656   C     0.97845   0.68923   0.22190   0.00000  Uiso   1.00
C657   C     0.68817   0.97743   0.27818   0.00000  Uiso   1.00
C658   C     0.97960   0.97965   0.21873   0.00000  Uiso   1.00
Cu659  Cu    0.71355   0.83334   0.25000   0.00000  Uiso   1.00
Cu660  Cu    0.95311   0.83333   0.25000   0.00000  Uiso   1.00
H661   H     0.77380   0.85721   0.10910   0.00000  Uiso   1.00
H662   H     0.89154   0.88104   0.20137   0.00000  Uiso   1.00
H663   H     0.92126   0.90816   0.06014   0.00000  Uiso   1.00
H664   H     0.93647   0.86139   0.07639   0.00000  Uiso   1.00
H665   H     0.73561   0.78212   0.42806   0.00000  Uiso   1.00
H666   H     0.75411   0.73832   0.44825   0.00000  Uiso   1.00
H667   H     0.94252   0.81002   0.12798   0.00000  Uiso   1.00
H668   H     0.96947   0.76703   0.14208   0.00000  Uiso   1.00
H669   H     0.72572   0.83625   0.37901   0.00000  Uiso   1.00
H670   H     0.72265   0.87937   0.40929   0.00000  Uiso   1.00
H671   H     0.96907   0.92710   0.17500   0.00000  Uiso   1.00
H672   H     0.88740   0.81759   0.38839   0.00000  Uiso   1.00
H673   H     0.69752   0.73958   0.32506   0.00000  Uiso   1.00
H674   H     0.84525   0.78266   0.33845   0.00000  Uiso   1.00
H675   H     0.85856   0.74813   0.29626   0.00000  Uiso   1.00
H676   H     0.82120   0.88382   0.16150   0.00000  Uiso   1.00
H677   H     0.80827   0.91850   0.20355   0.00000  Uiso   1.00
H678   H     0.99699   0.87150   0.47455   0.00000  Uiso   1.00
H679   H     0.67537   0.77539   0.03095   0.00000  Uiso   1.00
H680   H     0.84688   0.85989   0.08146   0.00000  Uiso   1.00
H681   H     0.82600   0.78761   0.42425   0.00000  Uiso   1.00
H682   H     0.96297   0.70725   0.19949   0.00000  Uiso   1.00
H683   H     0.70357   0.95939   0.30065   0.00000  Uiso   1.00
H684   H     0.77514   0.78559   0.29858   0.00000  Uiso   1.00
N685   N     0.78403   0.83334   0.24999   0.00000  Uiso   1.00
N686   N     0.88264   0.83332   0.25001   0.00000  Uiso   1.00
N687   N     0.93652   0.87969   0.04843   0.00000  Uiso   1.00
N688   N     0.73668   0.76651   0.45747   0.00000  Uiso   1.00
N689   N     0.96600   0.78571   0.11539   0.00000  Uiso   1.00
N690   N     0.70636   0.86365   0.38756   0.00000  Uiso   1.00
N691   N     0.86600   0.77800   0.30546   0.00000  Uiso   1.00
N692   N     0.80065   0.88863   0.19451   0.00000  Uiso   1.00
O693   O     0.70625   0.77322   0.25000   0.00000  Uiso   1.00
O694   O     0.73027   0.68855   0.33669   0.00000  Uiso   1.00
O695   O     0.96042   0.89345   0.25000   0.00000  Uiso   1.00
O696   O     0.96039   0.77321   0.25000   0.00000  Uiso   1.00
O697   O     0.70628   0.89346   0.24999   0.00000  Uiso   1.00
O698   O     0.68519   0.83334   0.31491   0.00000  Uiso   1.00
O699   O     0.98148   0.83332   0.18508   0.00000  Uiso   1.00
O700   O     0.93933   0.83333   0.31492   0.00000  Uiso   1.00
O701   O     0.72733   0.83333   0.18508   0.00000  Uiso   1.00
O702   O     0.93650   0.97818   0.16327   0.00000  Uiso   1.00
C703   C     0.33283   0.08747   0.75143   0.00000  Uiso   1.00
C704   C     0.02038   0.02036   0.78132   0.00000  Uiso   1.00
C705   C     0.00095   0.29052   0.74772   0.00000  Uiso   1.00
C706   C     0.33237   0.04281   0.75232   0.00000  Uiso   1.00
C707   C     0.18335   0.13989   0.77705   0.00000  Uiso   1.00
C708   C     0.14998   0.19343   0.72293   0.00000  Uiso   1.00
C709   C     0.13374   0.14010   0.77697   0.00000  Uiso   1.00
C710   C     0.19960   0.19321   0.72300   0.00000  Uiso   1.00
C711   C     0.30626   0.16764   0.83622   0.00000  Uiso   1.00
C712   C     0.02703   0.16494   0.66392   0.00000  Uiso   1.00
C713   C     0.29193   0.17086   0.88571   0.00000  Uiso   1.00
C714   C     0.00050   0.24586   0.74858   0.00000  Uiso   1.00
C715   C     0.04149   0.15834   0.61500   0.00000  Uiso   1.00
C716   C     0.30594   0.19237   0.95634   0.00000  Uiso   1.00
C717   C     0.03147   0.12610   0.54739   0.00000  Uiso   1.00
C718   C     0.32373   0.18593   0.91005   0.00000  Uiso   1.00
C719   C     0.01281   0.13548   0.59267   0.00000  Uiso   1.00
C720   C     0.24400   0.16098   0.90847   0.00000  Uiso   1.00
C721   C     0.08796   0.17125   0.59126   0.00000  Uiso   1.00
C722   C     0.22591   0.16624   0.95515   0.00000  Uiso   1.00
C723   C     0.10898   0.15892   0.54666   0.00000  Uiso   1.00
C724   C     0.25722   0.18387   0.97883   0.00000  Uiso   1.00
C725   C     0.19082   0.18555   0.54637   0.00000  Uiso   1.00
C726   C     0.07946   0.13663   0.52434   0.00000  Uiso   1.00
C727   C     0.17706   0.15592   0.97837   0.00000  Uiso   1.00
C728   C     0.15861   0.16734   0.52414   0.00000  Uiso   1.00
C729   C     0.29424   0.29252   0.68359   0.00000  Uiso   1.00
C730   C     0.03910   0.04084   0.81643   0.00000  Uiso   1.00
C731   C     0.14660   0.13342   0.95755   0.00000  Uiso   1.00
C732   C     0.23927   0.19354   0.52440   0.00000  Uiso   1.00
C733   C     0.09872   0.12383   0.97992   0.00000  Uiso   1.00
C734   C     0.31178   0.02256   0.72190   0.00000  Uiso   1.00
C735   C     0.02150   0.31076   0.77818   0.00000  Uiso   1.00
C736   C     0.31293   0.31298   0.71873   0.00000  Uiso   1.00
Cu737  Cu    0.04689   0.16667   0.75000   0.00000  Uiso   1.00
Cu738  Cu    0.28645   0.16666   0.75000   0.00000  Uiso   1.00
H739   H     0.10714   0.19054   0.60910   0.00000  Uiso   1.00
H740   H     0.22487   0.21437   0.70137   0.00000  Uiso   1.00
H741   H     0.25460   0.24149   0.56014   0.00000  Uiso   1.00
H742   H     0.26980   0.19473   0.57639   0.00000  Uiso   1.00
H743   H     0.06894   0.11545   0.92806   0.00000  Uiso   1.00
H744   H     0.08745   0.07165   0.94825   0.00000  Uiso   1.00
H745   H     0.27585   0.14335   0.62798   0.00000  Uiso   1.00
H746   H     0.30280   0.10037   0.64208   0.00000  Uiso   1.00
H747   H     0.05906   0.16958   0.87901   0.00000  Uiso   1.00
H748   H     0.05598   0.21270   0.90929   0.00000  Uiso   1.00
H749   H     0.30241   0.26044   0.67500   0.00000  Uiso   1.00
H750   H     0.22073   0.15092   0.88839   0.00000  Uiso   1.00
H751   H     0.03085   0.07291   0.82506   0.00000  Uiso   1.00
H752   H     0.17858   0.11599   0.83845   0.00000  Uiso   1.00
H753   H     0.19189   0.08146   0.79626   0.00000  Uiso   1.00
H754   H     0.15453   0.21715   0.66150   0.00000  Uiso   1.00
H755   H     0.14160   0.25184   0.70355   0.00000  Uiso   1.00
H756   H     0.33032   0.20483   0.97455   0.00000  Uiso   1.00
H757   H     0.00870   0.10872   0.53095   0.00000  Uiso   1.00
H758   H     0.18022   0.19322   0.58146   0.00000  Uiso   1.00
H759   H     0.15934   0.12095   0.92425   0.00000  Uiso   1.00
H760   H     0.29631   0.04058   0.69949   0.00000  Uiso   1.00
H761   H     0.03690   0.29273   0.80065   0.00000  Uiso   1.00
H762   H     0.10847   0.11892   0.79858   0.00000  Uiso   1.00
N763   N     0.11736   0.16668   0.74999   0.00000  Uiso   1.00
N764   N     0.21597   0.16666   0.75001   0.00000  Uiso   1.00
N765   N     0.26985   0.21302   0.54843   0.00000  Uiso   1.00
N766   N     0.07002   0.09984   0.95747   0.00000  Uiso   1.00
N767   N     0.29933   0.11904   0.61539   0.00000  Uiso   1.00
N768   N     0.03969   0.19698   0.88756   0.00000  Uiso   1.00
N769   N     0.19933   0.11133   0.80546   0.00000  Uiso   1.00
N770   N     0.13398   0.22196   0.69451   0.00000  Uiso   1.00
O771   O     0.03958   0.10655   0.75000   0.00000  Uiso   1.00
O772   O     0.06360   0.02189   0.83669   0.00000  Uiso   1.00
O773   O     0.29375   0.22678   0.75000   0.00000  Uiso   1.00
O774   O     0.29372   0.10654   0.75000   0.00000  Uiso   1.00
O775   O     0.03961   0.22679   0.74999   0.00000  Uiso   1.00
O776   O     0.01852   0.16668   0.81491   0.00000  Uiso   1.00
O777   O     0.31481   0.16666   0.68508   0.00000  Uiso   1.00
O778   O     0.27267   0.16667   0.81492   0.00000  Uiso   1.00
O779   O     0.06067   0.16667   0.68508   0.00000  Uiso   1.00
O780   O     0.26984   0.31151   0.66327   0.00000  Uiso   1.00
C781   C     0.66616   0.08747   0.75143   0.00000  Uiso   1.00
C782   C     0.35372   0.02036   0.78132   0.00000  Uiso   1.00
C783   C     0.33428   0.29052   0.74772   0.00000  Uiso   1.00
C784   C     0.66570   0.04281   0.75232   0.00000  Uiso   1.00
C785   C     0.51668   0.13989   0.77705   0.00000  Uiso   1.00
C786   C     0.48332   0.19343   0.72293   0.00000  Uiso   1.00
C787   C     0.46707   0.14010   0.77697   0.00000  Uiso   1.00
C788   C     0.53293   0.19321   0.72300   0.00000  Uiso   1.00
C789   C     0.63960   0.16764   0.83622   0.00000  Uiso   1.00
C790   C     0.36036   0.16494   0.66392   0.00000  Uiso   1.00
C791   C     0.62526   0.17086   0.88571   0.00000  Uiso   1.00
C792   C     0.33384   0.24586   0.74858   0.00000  Uiso   1.00
C793   C     0.37482   0.15834   0.61500   0.00000  Uiso   1.00
C794   C     0.63928   0.19237   0.95634   0.00000  Uiso   1.00
C795   C     0.36481   0.12610   0.54739   0.00000  Uiso   1.00
C796   C     0.65706   0.18593   0.91005   0.00000  Uiso   1.00
C797   C     0.34614   0.13548   0.59267   0.00000  Uiso   1.00
C798   C     0.57734   0.16098   0.90847   0.00000  Uiso   1.00
C799   C     0.42130   0.17125   0.59126   0.00000  Uiso   1.00
C800   C     0.55925   0.16624   0.95515   0.00000  Uiso   1.00
C801   C     0.44231   0.15892   0.54666   0.00000  Uiso   1.00
C802   C     0.59056   0.18387   0.97883   0.00000  Uiso   1.00
C803   C     0.52415   0.18555   0.54637   0.00000  Uiso   1.00
C804   C     0.41279   0.13663   0.52434   0.00000  Uiso   1.00
C805   C     0.51039   0.15592   0.97837   0.00000  Uiso   1.00
C806   C     0.49195   0.16734   0.52414   0.00000  Uiso   1.00
C807   C     0.62757   0.29252   0.68359   0.00000  Uiso   1.00
C808   C     0.37243   0.04084   0.81643   0.00000  Uiso   1.00
C809   C     0.47993   0.13342   0.95755   0.00000  Uiso   1.00
C810   C     0.57260   0.19354   0.52440   0.00000  Uiso   1.00
C811   C     0.43205   0.12383   0.97992   0.00000  Uiso   1.00
C812   C     0.64512   0.02256   0.72190   0.00000  Uiso   1.00
C813   C     0.35483   0.31076   0.77818   0.00000  Uiso   1.00
C814   C     0.64627   0.31298   0.71873   0.00000  Uiso   1.00
Cu815  Cu    0.38022   0.16667   0.75000   0.00000  Uiso   1.00
Cu816  Cu    0.61978   0.16666   0.75000   0.00000  Uiso   1.00
H817   H     0.44047   0.19054   0.60910   0.00000  Uiso   1.00
H818   H     0.55820   0.21437   0.70137   0.00000  Uiso   1.00
H819   H     0.58793   0.24149   0.56014   0.00000  Uiso   1.00
H820   H     0.60314   0.19473   0.57639   0.00000  Uiso   1.00
H821   H     0.40227   0.11545   0.92806   0.00000  Uiso   1.00
H822   H     0.42078   0.07165   0.94825   0.00000  Uiso   1.00
H823   H     0.60919   0.14335   0.62798   0.00000  Uiso   1.00
H824   H     0.63613   0.10037   0.64208   0.00000  Uiso   1.00
H825   H     0.39239   0.16958   0.87901   0.00000  Uiso   1.00
H826   H     0.38932   0.21270   0.90929   0.00000  Uiso   1.00
H827   H     0.63574   0.26044   0.67500   0.00000  Uiso   1.00
H828   H     0.55406   0.15092   0.88839   0.00000  Uiso   1.00
H829   H     0.36419   0.07291   0.82506   0.00000  Uiso   1.00
H830   H     0.51191   0.11599   0.83845   0.00000  Uiso   1.00
H831   H     0.52522   0.08146   0.79626   0.00000  Uiso   1.00
H832   H     0.48787   0.21715   0.66150   0.00000  Uiso   1.00
H833   H     0.47493   0.25184   0.70355   0.00000  Uiso   1.00
H834   H     0.66365   0.20483   0.97455   0.00000  Uiso   1.00
H835   H     0.34203   0.10872   0.53095   0.00000  Uiso   1.00
H836   H     0.51355   0.19322   0.58146   0.00000  Uiso   1.00
H837   H     0.49267   0.12095   0.92425   0.00000  Uiso   1.00
H838   H     0.62964   0.04058   0.69949   0.00000  Uiso   1.00
H839   H     0.37024   0.29273   0.80065   0.00000  Uiso   1.00
H840   H     0.44180   0.11892   0.79858   0.00000  Uiso   1.00
N841   N     0.45069   0.16668   0.74999   0.00000  Uiso   1.00
N842   N     0.54931   0.16666   0.75001   0.00000  Uiso   1.00
N843   N     0.60318   0.21302   0.54843   0.00000  Uiso   1.00
N844   N     0.40335   0.09984   0.95747   0.00000  Uiso   1.00
N845   N     0.63267   0.11904   0.61539   0.00000  Uiso   1.00
N846   N     0.37302   0.19698   0.88756   0.00000  Uiso   1.00
N847   N     0.53266   0.11133   0.80546   0.00000  Uiso   1.00
N848   N     0.46731   0.22196   0.69451   0.00000  Uiso   1.00
O849   O     0.37291   0.10655   0.75000   0.00000  Uiso   1.00
O850   O     0.39694   0.02189   0.83669   0.00000  Uiso   1.00
O851   O     0.62709   0.22678   0.75000   0.00000  Uiso   1.00
O852   O     0.62706   0.10654   0.75000   0.00000  Uiso   1.00
O853   O     0.37294   0.22679   0.74999   0.00000  Uiso   1.00
O854   O     0.35186   0.16668   0.81491   0.00000  Uiso   1.00
O855   O     0.64814   0.16666   0.68508   0.00000  Uiso   1.00
O856   O     0.60600   0.16667   0.81492   0.00000  Uiso   1.00
O857   O     0.39400   0.16667   0.68508   0.00000  Uiso   1.00
O858   O     0.60317   0.31151   0.66327   0.00000  Uiso   1.00
C859   C     0.99949   0.08747   0.75143   0.00000  Uiso   1.00
C860   C     0.68705   0.02036   0.78132   0.00000  Uiso   1.00
C861   C     0.66761   0.29052   0.74772   0.00000  Uiso   1.00
C862   C     0.99904   0.04281   0.75232   0.00000  Uiso   1.00
C863   C     0.85002   0.13989   0.77705   0.00000  Uiso   1.00
C864   C     0.81665   0.19343   0.72293   0.00000  Uiso   1.00
C865   C     0.80040   0.14010   0.77697   0.00000  Uiso   1.00
C866   C     0.86627   0.19321   0.72300   0.00000  Uiso   1.00
C867   C     0.97293   0.16764   0.83622   0.00000  Uiso   1.00
C868   C     0.69370   0.16494   0.66392   0.00000  Uiso   1.00
C869   C     0.95859   0.17086   0.88571   0.00000  Uiso   1.00
C870   C     0.66717   0.24586   0.74858   0.00000  Uiso   1.00
C871   C     0.70816   0.15834   0.61500   0.00000  Uiso   1.00
C872   C     0.97261   0.19237   0.95634   0.00000  Uiso   1.00
C873   C     0.69814   0.12610   0.54739   0.00000  Uiso   1.00
C874   C     0.99039   0.18593   0.91005   0.00000  Uiso   1.00
C875   C     0.67947   0.13548   0.59267   0.00000  Uiso   1.00
C876   C     0.91067   0.16098   0.90847   0.00000  Uiso   1.00
C877   C     0.75463   0.17125   0.59126   0.00000  Uiso   1.00
C878   C     0.89258   0.16624   0.95515   0.00000  Uiso   1.00
C879   C     0.77564   0.15892   0.54666   0.00000  Uiso   1.00
C880   C     0.92389   0.18387   0.97883   0.00000  Uiso   1.00
C881   C     0.85749   0.18555   0.54637   0.00000  Uiso   1.00
C882   C     0.74613   0.13663   0.52434   0.00000  Uiso   1.00
C883   C     0.84372   0.15592   0.97837   0.00000  Uiso   1.00
C884   C     0.82528   0.16734   0.52414   0.00000  Uiso   1.00
C885   C     0.96090   0.29252   0.68359   0.00000  Uiso   1.00
C886   C     0.70576   0.04084   0.81643   0.00000  Uiso   1.00
C887   C     0.81326   0.13342   0.95755   0.00000  Uiso   1.00
C888   C     0.90593   0.19354   0.52440   0.00000  Uiso   1.00
C889   C     0.76538   0.12383   0.97992   0.00000  Uiso   1.00
C890   C     0.97845   0.02256   0.72190   0.00000  Uiso   1.00
C891   C     0.68817   0.31076   0.77818   0.00000  Uiso   1.00
C892   C     0.97960   0.31298   0.71873   0.00000  Uiso   1.00
Cu893  Cu    0.71355   0.16667   0.75000   0.00000  Uiso   1.00
Cu894  Cu    0.95311   0.16666   0.75000   0.00000  Uiso   1.00
H895   H     0.77380   0.19054   0.60910   0.00000  Uiso   1.00
H896   H     0.89154   0.21437   0.70137   0.00000  Uiso   1.00
H897   H     0.92126   0.24149   0.56014   0.00000  Uiso   1.00
H898   H     0.93647   0.19473   0.57639   0.00000  Uiso   1.00
H899   H     0.73561   0.11545   0.92806   0.00000  Uiso   1.00
H900   H     0.75411   0.07165   0.94825   0.00000  Uiso   1.00
H901   H     0.94252   0.14335   0.62798   0.00000  Uiso   1.00
H902   H     0.96947   0.10037   0.64208   0.00000  Uiso   1.00
H903   H     0.72572   0.16958   0.87901   0.00000  Uiso   1.00
H904   H     0.72265   0.21270   0.90929   0.00000  Uiso   1.00
H905   H     0.96907   0.26044   0.67500   0.00000  Uiso   1.00
H906   H     0.88740   0.15092   0.88839   0.00000  Uiso   1.00
H907   H     0.69752   0.07291   0.82506   0.00000  Uiso   1.00
H908   H     0.84525   0.11599   0.83845   0.00000  Uiso   1.00
H909   H     0.85856   0.08146   0.79626   0.00000  Uiso   1.00
H910   H     0.82120   0.21715   0.66150   0.00000  Uiso   1.00
H911   H     0.80827   0.25184   0.70355   0.00000  Uiso   1.00
H912   H     0.99699   0.20483   0.97455   0.00000  Uiso   1.00
H913   H     0.67537   0.10872   0.53095   0.00000  Uiso   1.00
H914   H     0.84688   0.19322   0.58146   0.00000  Uiso   1.00
H915   H     0.82600   0.12095   0.92425   0.00000  Uiso   1.00
H916   H     0.96297   0.04058   0.69949   0.00000  Uiso   1.00
H917   H     0.70357   0.29273   0.80065   0.00000  Uiso   1.00
H918   H     0.77514   0.11892   0.79858   0.00000  Uiso   1.00
N919   N     0.78403   0.16668   0.74999   0.00000  Uiso   1.00
N920   N     0.88264   0.16666   0.75001   0.00000  Uiso   1.00
N921   N     0.93652   0.21302   0.54843   0.00000  Uiso   1.00
N922   N     0.73668   0.09984   0.95747   0.00000  Uiso   1.00
N923   N     0.96600   0.11904   0.61539   0.00000  Uiso   1.00
N924   N     0.70636   0.19698   0.88756   0.00000  Uiso   1.00
N925   N     0.86600   0.11133   0.80546   0.00000  Uiso   1.00
N926   N     0.80065   0.22196   0.69451   0.00000  Uiso   1.00
O927   O     0.70625   0.10655   0.75000   0.00000  Uiso   1.00
O928   O     0.73027   0.02189   0.83669   0.00000  Uiso   1.00
O929   O     0.96042   0.22678   0.75000   0.00000  Uiso   1.00
O930   O     0.96039   0.10654   0.75000   0.00000  Uiso   1.00
O931   O     0.70628   0.22679   0.74999   0.00000  Uiso   1.00
O932   O     0.68519   0.16668   0.81491   0.00000  Uiso   1.00
O933   O     0.98148   0.16666   0.68508   0.00000  Uiso   1.00
O934   O     0.93933   0.16667   0.81492   0.00000  Uiso   1.00
O935   O     0.72733   0.16667   0.68508   0.00000  Uiso   1.00
O936   O     0.93650   0.31151   0.66327   0.00000  Uiso   1.00
C937   C     0.33283   0.42080   0.75143   0.00000  Uiso   1.00
C938   C     0.02038   0.35369   0.78132   0.00000  Uiso   1.00
C939   C     0.00095   0.62386   0.74772   0.00000  Uiso   1.00
C940   C     0.33237   0.37614   0.75232   0.00000  Uiso   1.00
C941   C     0.18335   0.47322   0.77705   0.00000  Uiso   1.00
C942   C     0.14998   0.52676   0.72293   0.00000  Uiso   1.00
C943   C     0.13374   0.47343   0.77697   0.00000  Uiso   1.00
C944   C     0.19960   0.52654   0.72300   0.00000  Uiso   1.00
C945   C     0.30626   0.50097   0.83622   0.00000  Uiso   1.00
C946   C     0.02703   0.49827   0.66392   0.00000  Uiso   1.00
C947   C     0.29193   0.50419   0.88571   0.00000  Uiso   1.00
C948   C     0.00050   0.57920   0.74858   0.00000  Uiso   1.00
C949   C     0.04149   0.49167   0.61500   0.00000  Uiso   1.00
C950   C     0.30594   0.52570   0.95634   0.00000  Uiso   1.00
C951   C     0.03147   0.45943   0.54739   0.00000  Uiso   1.00
C952   C     0.32373   0.51926   0.91005   0.00000  Uiso   1.00
C953   C     0.01281   0.46881   0.59267   0.00000  Uiso   1.00
C954   C     0.24400   0.49432   0.90847   0.00000  Uiso   1.00
C955   C     0.08796   0.50458   0.59126   0.00000  Uiso   1.00
C956   C     0.22591   0.49957   0.95515   0.00000  Uiso   1.00
C957   C     0.10898   0.49225   0.54666   0.00000  Uiso   1.00
C958   C     0.25722   0.51720   0.97883   0.00000  Uiso   1.00
C959   C     0.19082   0.51889   0.54637   0.00000  Uiso   1.00
C960   C     0.07946   0.46997   0.52434   0.00000  Uiso   1.00
C961   C     0.17706   0.48925   0.97837   0.00000  Uiso   1.00
C962   C     0.15861   0.50068   0.52414   0.00000  Uiso   1.00
C963   C     0.29424   0.62586   0.68359   0.00000  Uiso   1.00
C964   C     0.03910   0.37417   0.81643   0.00000  Uiso   1.00
C965   C     0.14660   0.46675   0.95755   0.00000  Uiso   1.00
C966   C     0.23927   0.52687   0.52440   0.00000  Uiso   1.00
C967   C     0.09872   0.45716   0.97992   0.00000  Uiso   1.00
C968   C     0.31178   0.35590   0.72190   0.00000  Uiso   1.00
C969   C     0.02150   0.64410   0.77818   0.00000  Uiso   1.00
C970   C     0.31293   0.64631   0.71873   0.00000  Uiso   1.00
Cu971  Cu    0.04689   0.50001   0.75000   0.00000  Uiso   1.00
Cu972  Cu    0.28645   0.49999   0.75000   0.00000  Uiso   1.00
H973   H     0.10714   0.52388   0.60910   0.00000  Uiso   1.00
H974   H     0.22487   0.54771   0.70137   0.00000  Uiso   1.00
H975   H     0.25460   0.57483   0.56014   0.00000  Uiso   1.00
H976   H     0.26980   0.52806   0.57639   0.00000  Uiso   1.00
H977   H     0.06894   0.44879   0.92806   0.00000  Uiso   1.00
H978   H     0.08745   0.40498   0.94825   0.00000  Uiso   1.00
H979   H     0.27585   0.47669   0.62798   0.00000  Uiso   1.00
H980   H     0.30280   0.43370   0.64208   0.00000  Uiso   1.00
H981   H     0.05906   0.50292   0.87901   0.00000  Uiso   1.00
H982   H     0.05598   0.54604   0.90929   0.00000  Uiso   1.00
H983   H     0.30241   0.59377   0.67500   0.00000  Uiso   1.00
H984   H     0.22073   0.48426   0.88839   0.00000  Uiso   1.00
H985   H     0.03085   0.40624   0.82506   0.00000  Uiso   1.00
H986   H     0.17858   0.44932   0.83845   0.00000  Uiso   1.00
H987   H     0.19189   0.41480   0.79626   0.00000  Uiso   1.00
H988   H     0.15453   0.55049   0.66150   0.00000  Uiso   1.00
H989   H     0.14160   0.58517   0.70355   0.00000  Uiso   1.00
H990   H     0.33032   0.53816   0.97455   0.00000  Uiso   1.00
H991   H     0.00870   0.44205   0.53095   0.00000  Uiso   1.00
H992   H     0.18022   0.52656   0.58146   0.00000  Uiso   1.00
H993   H     0.15934   0.45428   0.92425   0.00000  Uiso   1.00
H994   H     0.29631   0.37392   0.69949   0.00000  Uiso   1.00
H995   H     0.03690   0.62606   0.80065   0.00000  Uiso   1.00
H996   H     0.10847   0.45226   0.79858   0.00000  Uiso   1.00
N997   N     0.11736   0.50001   0.74999   0.00000  Uiso   1.00
N998   N     0.21597   0.49999   0.75001   0.00000  Uiso   1.00
N999   N     0.26985   0.54635   0.54843   0.00000  Uiso   1.00
N1000  N     0.07002   0.43318   0.95747   0.00000  Uiso   1.00
N1001  N     0.29933   0.45238   0.61539   0.00000  Uiso   1.00
N1002  N     0.03969   0.53032   0.88756   0.00000  Uiso   1.00
N1003  N     0.19933   0.44467   0.80546   0.00000  Uiso   1.00
N1004  N     0.13398   0.55530   0.69451   0.00000  Uiso   1.00
O1005  O     0.03958   0.43989   0.75000   0.00000  Uiso   1.00
O1006  O     0.06360   0.35522   0.83669   0.00000  Uiso   1.00
O1007  O     0.29375   0.56011   0.75000   0.00000  Uiso   1.00
O1008  O     0.29372   0.43988   0.75000   0.00000  Uiso   1.00
O1009  O     0.03961   0.56012   0.74999   0.00000  Uiso   1.00
O1010  O     0.01852   0.50001   0.81491   0.00000  Uiso   1.00
O1011  O     0.31481   0.49999   0.68508   0.00000  Uiso   1.00
O1012  O     0.27267   0.50000   0.81492   0.00000  Uiso   1.00
O1013  O     0.06067   0.50000   0.68508   0.00000  Uiso   1.00
O1014  O     0.26984   0.64485   0.66327   0.00000  Uiso   1.00
C1015  C     0.66616   0.42080   0.75143   0.00000  Uiso   1.00
C1016  C     0.35372   0.35369   0.78132   0.00000  Uiso   1.00
C1017  C     0.33428   0.62386   0.74772   0.00000  Uiso   1.00
C1018  C     0.66570   0.37614   0.75232   0.00000  Uiso   1.00
C1019  C     0.51668   0.47322   0.77705   0.00000  Uiso   1.00
C1020  C     0.48332   0.52676   0.72293   0.00000  Uiso   1.00
C1021  C     0.46707   0.47343   0.77697   0.00000  Uiso   1.00
C1022  C     0.53293   0.52654   0.72300   0.00000  Uiso   1.00
C1023  C     0.63960   0.50097   0.83622   0.00000  Uiso   1.00
C1024  C     0.36036   0.49827   0.66392   0.00000  Uiso   1.00
C1025  C     0.62526   0.50419   0.88571   0.00000  Uiso   1.00
C1026  C     0.33384   0.57920   0.74858   0.00000  Uiso   1.00
C1027  C     0.37482   0.49167   0.61500   0.00000  Uiso   1.00
C1028  C     0.63928   0.52570   0.95634   0.00000  Uiso   1.00
C1029  C     0.36481   0.45943   0.54739   0.00000  Uiso   1.00
C1030  C     0.65706   0.51926   0.91005   0.00000  Uiso   1.00
C1031  C     0.34614   0.46881   0.59267   0.00000  Uiso   1.00
C1032  C     0.57734   0.49432   0.90847   0.00000  Uiso   1.00
C1033  C     0.42130   0.50458   0.59126   0.00000  Uiso   1.00
C1034  C     0.55925   0.49957   0.95515   0.00000  Uiso   1.00
C1035  C     0.44231   0.49225   0.54666   0.00000  Uiso   1.00
C1036  C     0.59056   0.51720   0.97883   0.00000  Uiso   1.00
C1037  C     0.52415   0.51889   0.54637   0.00000  Uiso   1.00
C1038  C     0.41279   0.46997   0.52434   0.00000  Uiso   1.00
C1039  C     0.51039   0.48925   0.97837   0.00000  Uiso   1.00
C1040  C     0.49195   0.50068   0.52414   0.00000  Uiso   1.00
C1041  C     0.62757   0.62586   0.68359   0.00000  Uiso   1.00
C1042  C     0.37243   0.37417   0.81643   0.00000  Uiso   1.00
C1043  C     0.47993   0.46675   0.95755   0.00000  Uiso   1.00
C1044  C     0.57260   0.52687   0.52440   0.00000  Uiso   1.00
C1045  C     0.43205   0.45716   0.97992   0.00000  Uiso   1.00
C1046  C     0.64512   0.35590   0.72190   0.00000  Uiso   1.00
C1047  C     0.35483   0.64410   0.77818   0.00000  Uiso   1.00
C1048  C     0.64627   0.64631   0.71873   0.00000  Uiso   1.00
Cu1049 Cu    0.38022   0.50001   0.75000   0.00000  Uiso   1.00
Cu1050 Cu    0.61978   0.49999   0.75000   0.00000  Uiso   1.00
H1051  H     0.44047   0.52388   0.60910   0.00000  Uiso   1.00
H1052  H     0.55820   0.54771   0.70137   0.00000  Uiso   1.00
H1053  H     0.58793   0.57483   0.56014   0.00000  Uiso   1.00
H1054  H     0.60314   0.52806   0.57639   0.00000  Uiso   1.00
H1055  H     0.40227   0.44879   0.92806   0.00000  Uiso   1.00
H1056  H     0.42078   0.40498   0.94825   0.00000  Uiso   1.00
H1057  H     0.60919   0.47669   0.62798   0.00000  Uiso   1.00
H1058  H     0.63613   0.43370   0.64208   0.00000  Uiso   1.00
H1059  H     0.39239   0.50292   0.87901   0.00000  Uiso   1.00
H1060  H     0.38932   0.54604   0.90929   0.00000  Uiso   1.00
H1061  H     0.63574   0.59377   0.67500   0.00000  Uiso   1.00
H1062  H     0.55406   0.48426   0.88839   0.00000  Uiso   1.00
H1063  H     0.36419   0.40624   0.82506   0.00000  Uiso   1.00
H1064  H     0.51191   0.44932   0.83845   0.00000  Uiso   1.00
H1065  H     0.52522   0.41480   0.79626   0.00000  Uiso   1.00
H1066  H     0.48787   0.55049   0.66150   0.00000  Uiso   1.00
H1067  H     0.47493   0.58517   0.70355   0.00000  Uiso   1.00
H1068  H     0.66365   0.53816   0.97455   0.00000  Uiso   1.00
H1069  H     0.34203   0.44205   0.53095   0.00000  Uiso   1.00
H1070  H     0.51355   0.52656   0.58146   0.00000  Uiso   1.00
H1071  H     0.49267   0.45428   0.92425   0.00000  Uiso   1.00
H1072  H     0.62964   0.37392   0.69949   0.00000  Uiso   1.00
H1073  H     0.37024   0.62606   0.80065   0.00000  Uiso   1.00
H1074  H     0.44180   0.45226   0.79858   0.00000  Uiso   1.00
N1075  N     0.45069   0.50001   0.74999   0.00000  Uiso   1.00
N1076  N     0.54931   0.49999   0.75001   0.00000  Uiso   1.00
N1077  N     0.60318   0.54635   0.54843   0.00000  Uiso   1.00
N1078  N     0.40335   0.43318   0.95747   0.00000  Uiso   1.00
N1079  N     0.63267   0.45238   0.61539   0.00000  Uiso   1.00
N1080  N     0.37302   0.53032   0.88756   0.00000  Uiso   1.00
N1081  N     0.53266   0.44467   0.80546   0.00000  Uiso   1.00
N1082  N     0.46731   0.55530   0.69451   0.00000  Uiso   1.00
O1083  O     0.37291   0.43989   0.75000   0.00000  Uiso   1.00
O1084  O     0.39694   0.35522   0.83669   0.00000  Uiso   1.00
O1085  O     0.62709   0.56011   0.75000   0.00000  Uiso   1.00
O1086  O     0.62706   0.43988   0.75000   0.00000  Uiso   1.00
O1087  O     0.37294   0.56012   0.74999   0.00000  Uiso   1.00
O1088  O     0.35186   0.50001   0.81491   0.00000  Uiso   1.00
O1089  O     0.64814   0.49999   0.68508   0.00000  Uiso   1.00
O1090  O     0.60600   0.50000   0.81492   0.00000  Uiso   1.00
O1091  O     0.39400   0.50000   0.68508   0.00000  Uiso   1.00
O1092  O     0.60317   0.64485   0.66327   0.00000  Uiso   1.00
C1093  C     0.99949   0.42080   0.75143   0.00000  Uiso   1.00
C1094  C     0.68705   0.35369   0.78132   0.00000  Uiso   1.00
C1095  C     0.66761   0.62386   0.74772   0.00000  Uiso   1.00
C1096  C     0.99904   0.37614   0.75232   0.00000  Uiso   1.00
C1097  C     0.85002   0.47322   0.77705   0.00000  Uiso   1.00
C1098  C     0.81665   0.52676   0.72293   0.00000  Uiso   1.00
C1099  C     0.80040   0.47343   0.77697   0.00000  Uiso   1.00
C1100  C     0.86627   0.52654   0.72300   0.00000  Uiso   1.00
C1101  C     0.97293   0.50097   0.83622   0.00000  Uiso   1.00
C1102  C     0.69370   0.49827   0.66392   0.00000  Uiso   1.00
C1103  C     0.95859   0.50419   0.88571   0.00000  Uiso   1.00
C1104  C     0.66717   0.57920   0.74858   0.00000  Uiso   1.00
C1105  C     0.70816   0.49167   0.61500   0.00000  Uiso   1.00
C1106  C     0.97261   0.52570   0.95634   0.00000  Uiso   1.00
C1107  C     0.69814   0.45943   0.54739   0.00000  Uiso   1.00
C1108  C     0.99039   0.51926   0.91005   0.00000  Uiso   1.00
C1109  C     0.67947   0.46881   0.59267   0.00000  Uiso   1.00
C1110  C     0.91067   0.49432   0.90847   0.00000  Uiso   1.00
C1111  C     0.75463   0.50458   0.59126   0.00000  Uiso   1.00
C1112  C     0.89258   0.49957   0.95515   0.00000  Uiso   1.00
C1113  C     0.77564   0.49225   0.54666   0.00000  Uiso   1.00
C1114  C     0.92389   0.51720   0.97883   0.00000  Uiso   1.00
C1115  C     0.85749   0.51889   0.54637   0.00000  Uiso   1.00
C1116  C     0.74613   0.46997   0.52434   0.00000  Uiso   1.00
C1117  C     0.84372   0.48925   0.97837   0.00000  Uiso   1.00
C1118  C     0.82528   0.50068   0.52414   0.00000  Uiso   1.00
C1119  C     0.96090   0.62586   0.68359   0.00000  Uiso   1.00
C1120  C     0.70576   0.37417   0.81643   0.00000  Uiso   1.00
C1121  C     0.81326   0.46675   0.95755   0.00000  Uiso   1.00
C1122  C     0.90593   0.52687   0.52440   0.00000  Uiso   1.00
C1123  C     0.76538   0.45716   0.97992   0.00000  Uiso   1.00
C1124  C     0.97845   0.35590   0.72190   0.00000  Uiso   1.00
C1125  C     0.68817   0.64410   0.77818   0.00000  Uiso   1.00
C1126  C     0.97960   0.64631   0.71873   0.00000  Uiso   1.00
Cu1127 Cu    0.71355   0.50001   0.75000   0.00000  Uiso   1.00
Cu1128 Cu    0.95311   0.49999   0.75000   0.00000  Uiso   1.00
H1129  H     0.77380   0.52388   0.60910   0.00000  Uiso   1.00
H1130  H     0.89154   0.54771   0.70137   0.00000  Uiso   1.00
H1131  H     0.92126   0.57483   0.56014   0.00000  Uiso   1.00
H1132  H     0.93647   0.52806   0.57639   0.00000  Uiso   1.00
H1133  H     0.73561   0.44879   0.92806   0.00000  Uiso   1.00
H1134  H     0.75411   0.40498   0.94825   0.00000  Uiso   1.00
H1135  H     0.94252   0.47669   0.62798   0.00000  Uiso   1.00
H1136  H     0.96947   0.43370   0.64208   0.00000  Uiso   1.00
H1137  H     0.72572   0.50292   0.87901   0.00000  Uiso   1.00
H1138  H     0.72265   0.54604   0.90929   0.00000  Uiso   1.00
H1139  H     0.96907   0.59377   0.67500   0.00000  Uiso   1.00
H1140  H     0.88740   0.48426   0.88839   0.00000  Uiso   1.00
H1141  H     0.69752   0.40624   0.82506   0.00000  Uiso   1.00
H1142  H     0.84525   0.44932   0.83845   0.00000  Uiso   1.00
H1143  H     0.85856   0.41480   0.79626   0.00000  Uiso   1.00
H1144  H     0.82120   0.55049   0.66150   0.00000  Uiso   1.00
H1145  H     0.80827   0.58517   0.70355   0.00000  Uiso   1.00
H1146  H     0.99699   0.53816   0.97455   0.00000  Uiso   1.00
H1147  H     0.67537   0.44205   0.53095   0.00000  Uiso   1.00
H1148  H     0.84688   0.52656   0.58146   0.00000  Uiso   1.00
H1149  H     0.82600   0.45428   0.92425   0.00000  Uiso   1.00
H1150  H     0.96297   0.37392   0.69949   0.00000  Uiso   1.00
H1151  H     0.70357   0.62606   0.80065   0.00000  Uiso   1.00
H1152  H     0.77514   0.45226   0.79858   0.00000  Uiso   1.00
N1153  N     0.78403   0.50001   0.74999   0.00000  Uiso   1.00
N1154  N     0.88264   0.49999   0.75001   0.00000  Uiso   1.00
N1155  N     0.93652   0.54635   0.54843   0.00000  Uiso   1.00
N1156  N     0.73668   0.43318   0.95747   0.00000  Uiso   1.00
N1157  N     0.96600   0.45238   0.61539   0.00000  Uiso   1.00
N1158  N     0.70636   0.53032   0.88756   0.00000  Uiso   1.00
N1159  N     0.86600   0.44467   0.80546   0.00000  Uiso   1.00
N1160  N     0.80065   0.55530   0.69451   0.00000  Uiso   1.00
O1161  O     0.70625   0.43989   0.75000   0.00000  Uiso   1.00
O1162  O     0.73027   0.35522   0.83669   0.00000  Uiso   1.00
O1163  O     0.96042   0.56011   0.75000   0.00000  Uiso   1.00
O1164  O     0.96039   0.43988   0.75000   0.00000  Uiso   1.00
O1165  O     0.70628   0.56012   0.74999   0.00000  Uiso   1.00
O1166  O     0.68519   0.50001   0.81491   0.00000  Uiso   1.00
O1167  O     0.98148   0.49999   0.68508   0.00000  Uiso   1.00
O1168  O     0.93933   0.50000   0.81492   0.00000  Uiso   1.00
O1169  O     0.72733   0.50000   0.68508   0.00000  Uiso   1.00
O1170  O     0.93650   0.64485   0.66327   0.00000  Uiso   1.00
C1171  C     0.33283   0.75414   0.75143   0.00000  Uiso   1.00
C1172  C     0.02038   0.68702   0.78132   0.00000  Uiso   1.00
C1173  C     0.00095   0.95719   0.74772   0.00000  Uiso   1.00
C1174  C     0.33237   0.70948   0.75232   0.00000  Uiso   1.00
C1175  C     0.18335   0.80655   0.77705   0.00000  Uiso   1.00
C1176  C     0.14998   0.86010   0.72293   0.00000  Uiso   1.00
C1177  C     0.13374   0.80677   0.77697   0.00000  Uiso   1.00
C1178  C     0.19960   0.85988   0.72300   0.00000  Uiso   1.00
C1179  C     0.30626   0.83431   0.83622   0.00000  Uiso   1.00
C1180  C     0.02703   0.83161   0.66392   0.00000  Uiso   1.00
C1181  C     0.29193   0.83752   0.88571   0.00000  Uiso   1.00
C1182  C     0.00050   0.91253   0.74858   0.00000  Uiso   1.00
C1183  C     0.04149   0.82500   0.61500   0.00000  Uiso   1.00
C1184  C     0.30594   0.85904   0.95634   0.00000  Uiso   1.00
C1185  C     0.03147   0.79277   0.54739   0.00000  Uiso   1.00
C1186  C     0.32373   0.85260   0.91005   0.00000  Uiso   1.00
C1187  C     0.01281   0.80214   0.59267   0.00000  Uiso   1.00
C1188  C     0.24400   0.82765   0.90847   0.00000  Uiso   1.00
C1189  C     0.08796   0.83791   0.59126   0.00000  Uiso   1.00
C1190  C     0.22591   0.83290   0.95515   0.00000  Uiso   1.00
C1191  C     0.10898   0.82558   0.54666   0.00000  Uiso   1.00
C1192  C     0.25722   0.85054   0.97883   0.00000  Uiso   1.00
C1193  C     0.19082   0.85222   0.54637   0.00000  Uiso   1.00
C1194  C     0.07946   0.80330   0.52434   0.00000  Uiso   1.00
C1195  C     0.17706   0.82258   0.97837   0.00000  Uiso   1.00
C1196  C     0.15861   0.83401   0.52414   0.00000  Uiso   1.00
C1197  C     0.29424   0.95919   0.68359   0.00000  Uiso   1.00
C1198  C     0.03910   0.70750   0.81643   0.00000  Uiso   1.00
C1199  C     0.14660   0.80009   0.95755   0.00000  Uiso   1.00
C1200  C     0.23927   0.86021   0.52440   0.00000  Uiso   1.00
C1201  C     0.09872   0.79049   0.97992   0.00000  Uiso   1.00
C1202  C     0.31178   0.68923   0.72190   0.00000  Uiso   1.00
C1203  C     0.02150   0.97743   0.77818   0.00000  Uiso   1.00
C1204  C     0.31293   0.97965   0.71873   0.00000  Uiso   1.00
Cu1205 Cu    0.04689   0.83334   0.75000   0.00000  Uiso   1.00
Cu1206 Cu    0.28645   0.83333   0.75000   0.00000  Uiso   1.00
H1207  H     0.10714   0.85721   0.60910   0.00000  Uiso   1.00
H1208  H     0.22487   0.88104   0.70137   0.00000  Uiso   1.00
H1209  H     0.25460   0.90816   0.56014   0.00000  Uiso   1.00
H1210  H     0.26980   0.86139   0.57639   0.00000  Uiso   1.00
H1211  H     0.06894   0.78212   0.92806   0.00000  Uiso   1.00
H1212  H     0.08745   0.73832   0.94825   0.00000  Uiso   1.00
H1213  H     0.27585   0.81002   0.62798   0.00000  Uiso   1.00
H1214  H     0.30280   0.76703   0.64208   0.00000  Uiso   1.00
H1215  H     0.05906   0.83625   0.87901   0.00000  Uiso   1.00
H1216  H     0.05598   0.87937   0.90929   0.00000  Uiso   1.00
H1217  H     0.30241   0.92710   0.67500   0.00000  Uiso   1.00
H1218  H     0.22073   0.81759   0.88839   0.00000  Uiso   1.00
H1219  H     0.03085   0.73958   0.82506   0.00000  Uiso   1.00
H1220  H     0.17858   0.78266   0.83845   0.00000  Uiso   1.00
H1221  H     0.19189   0.74813   0.79626   0.00000  Uiso   1.00
H1222  H     0.15453   0.88382   0.66150   0.00000  Uiso   1.00
H1223  H     0.14160   0.91850   0.70355   0.00000  Uiso   1.00
H1224  H     0.33032   0.87150   0.97455   0.00000  Uiso   1.00
H1225  H     0.00870   0.77539   0.53095   0.00000  Uiso   1.00
H1226  H     0.18022   0.85989   0.58146   0.00000  Uiso   1.00
H1227  H     0.15934   0.78761   0.92425   0.00000  Uiso   1.00
H1228  H     0.29631   0.70725   0.69949   0.00000  Uiso   1.00
H1229  H     0.03690   0.95939   0.80065   0.00000  Uiso   1.00
H1230  H     0.10847   0.78559   0.79858   0.00000  Uiso   1.00
N1231  N     0.11736   0.83334   0.74999   0.00000  Uiso   1.00
N1232  N     0.21597   0.83332   0.75001   0.00000  Uiso   1.00
N1233  N     0.26985   0.87969   0.54843   0.00000  Uiso   1.00
N1234  N     0.07002   0.76651   0.95747   0.00000  Uiso   1.00
N1235  N     0.29933   0.78571   0.61539   0.00000  Uiso   1.00
N1236  N     0.03969   0.86365   0.88756   0.00000  Uiso   1.00
N1237  N     0.19933   0.77800   0.80546   0.00000  Uiso   1.00
N1238  N     0.13398   0.88863   0.69451   0.00000  Uiso   1.00
O1239  O     0.03958   0.77322   0.75000   0.00000  Uiso   1.00
O1240  O     0.06360   0.68855   0.83669   0.00000  Uiso   1.00
O1241  O     0.29375   0.89345   0.75000   0.00000  Uiso   1.00
O1242  O     0.29372   0.77321   0.75000   0.00000  Uiso   1.00
O1243  O     0.03961   0.89346   0.74999   0.00000  Uiso   1.00
O1244  O     0.01852   0.83334   0.81491   0.00000  Uiso   1.00
O1245  O     0.31481   0.83332   0.68508   0.00000  Uiso   1.00
O1246  O     0.27267   0.83333   0.81492   0.00000  Uiso   1.00
O1247  O     0.06067   0.83333   0.68508   0.00000  Uiso   1.00
O1248  O     0.26984   0.97818   0.66327   0.00000  Uiso   1.00
C1249  C     0.66616   0.75414   0.75143   0.00000  Uiso   1.00
C1250  C     0.35372   0.68702   0.78132   0.00000  Uiso   1.00
C1251  C     0.33428   0.95719   0.74772   0.00000  Uiso   1.00
C1252  C     0.66570   0.70948   0.75232   0.00000  Uiso   1.00
C1253  C     0.51668   0.80655   0.77705   0.00000  Uiso   1.00
C1254  C     0.48332   0.86010   0.72293   0.00000  Uiso   1.00
C1255  C     0.46707   0.80677   0.77697   0.00000  Uiso   1.00
C1256  C     0.53293   0.85988   0.72300   0.00000  Uiso   1.00
C1257  C     0.63960   0.83431   0.83622   0.00000  Uiso   1.00
C1258  C     0.36036   0.83161   0.66392   0.00000  Uiso   1.00
C1259  C     0.62526   0.83752   0.88571   0.00000  Uiso   1.00
C1260  C     0.33384   0.91253   0.74858   0.00000  Uiso   1.00
C1261  C     0.37482   0.82500   0.61500   0.00000  Uiso   1.00
C1262  C     0.63928   0.85904   0.95634   0.00000  Uiso   1.00
C1263  C     0.36481   0.79277   0.54739   0.00000  Uiso   1.00
C1264  C     0.65706   0.85260   0.91005   0.00000  Uiso   1.00
C1265  C     0.34614   0.80214   0.59267   0.00000  Uiso   1.00
C1266  C     0.57734   0.82765   0.90847   0.00000  Uiso   1.00
C1267  C     0.42130   0.83791   0.59126   0.00000  Uiso   1.00
C1268  C     0.55925   0.83290   0.95515   0.00000  Uiso   1.00
C1269  C     0.44231   0.82558   0.54666   0.00000  Uiso   1.00
C1270  C     0.59056   0.85054   0.97883   0.00000  Uiso   1.00
C1271  C     0.52415   0.85222   0.54637   0.00000  Uiso   1.00
C1272  C     0.41279   0.80330   0.52434   0.00000  Uiso   1.00
C1273  C     0.51039   0.82258   0.97837   0.00000  Uiso   1.00
C1274  C     0.49195   0.83401   0.52414   0.00000  Uiso   1.00
C1275  C     0.62757   0.95919   0.68359   0.00000  Uiso   1.00
C1276  C     0.37243   0.70750   0.81643   0.00000  Uiso   1.00
C1277  C     0.47993   0.80009   0.95755   0.00000  Uiso   1.00
C1278  C     0.57260   0.86021   0.52440   0.00000  Uiso   1.00
C1279  C     0.43205   0.79049   0.97992   0.00000  Uiso   1.00
C1280  C     0.64512   0.68923   0.72190   0.00000  Uiso   1.00
C1281  C     0.35483   0.97743   0.77818   0.00000  Uiso   1.00
C1282  C     0.64627   0.97965   0.71873   0.00000  Uiso   1.00
Cu1283 Cu    0.38022   0.83334   0.75000   0.00000  Uiso   1.00
Cu1284 Cu    0.61978   0.83333   0.75000   0.00000  Uiso   1.00
H1285  H     0.44047   0.85721   0.60910   0.00000  Uiso   1.00
H1286  H     0.55820   0.88104   0.70137   0.00000  Uiso   1.00
H1287  H     0.58793   0.90816   0.56014   0.00000  Uiso   1.00
H1288  H     0.60314   0.86139   0.57639   0.00000  Uiso   1.00
H1289  H     0.40227   0.78212   0.92806   0.00000  Uiso   1.00
H1290  H     0.42078   0.73832   0.94825   0.00000  Uiso   1.00
H1291  H     0.60919   0.81002   0.62798   0.00000  Uiso   1.00
H1292  H     0.63613   0.76703   0.64208   0.00000  Uiso   1.00
H1293  H     0.39239   0.83625   0.87901   0.00000  Uiso   1.00
H1294  H     0.38932   0.87937   0.90929   0.00000  Uiso   1.00
H1295  H     0.63574   0.92710   0.67500   0.00000  Uiso   1.00
H1296  H     0.55406   0.81759   0.88839   0.00000  Uiso   1.00
H1297  H     0.36419   0.73958   0.82506   0.00000  Uiso   1.00
H1298  H     0.51191   0.78266   0.83845   0.00000  Uiso   1.00
H1299  H     0.52522   0.74813   0.79626   0.00000  Uiso   1.00
H1300  H     0.48787   0.88382   0.66150   0.00000  Uiso   1.00
H1301  H     0.47493   0.91850   0.70355   0.00000  Uiso   1.00
H1302  H     0.66365   0.87150   0.97455   0.00000  Uiso   1.00
H1303  H     0.34203   0.77539   0.53095   0.00000  Uiso   1.00
H1304  H     0.51355   0.85989   0.58146   0.00000  Uiso   1.00
H1305  H     0.49267   0.78761   0.92425   0.00000  Uiso   1.00
H1306  H     0.62964   0.70725   0.69949   0.00000  Uiso   1.00
H1307  H     0.37024   0.95939   0.80065   0.00000  Uiso   1.00
H1308  H     0.44180   0.78559   0.79858   0.00000  Uiso   1.00
N1309  N     0.45069   0.83334   0.74999   0.00000  Uiso   1.00
N1310  N     0.54931   0.83332   0.75001   0.00000  Uiso   1.00
N1311  N     0.60318   0.87969   0.54843   0.00000  Uiso   1.00
N1312  N     0.40335   0.76651   0.95747   0.00000  Uiso   1.00
N1313  N     0.63267   0.78571   0.61539   0.00000  Uiso   1.00
N1314  N     0.37302   0.86365   0.88756   0.00000  Uiso   1.00
N1315  N     0.53266   0.77800   0.80546   0.00000  Uiso   1.00
N1316  N     0.46731   0.88863   0.69451   0.00000  Uiso   1.00
O1317  O     0.37291   0.77322   0.75000   0.00000  Uiso   1.00
O1318  O     0.39694   0.68855   0.83669   0.00000  Uiso   1.00
O1319  O     0.62709   0.89345   0.75000   0.00000  Uiso   1.00
O1320  O     0.62706   0.77321   0.75000   0.00000  Uiso   1.00
O1321  O     0.37294   0.89346   0.74999   0.00000  Uiso   1.00
O1322  O     0.35186   0.83334   0.81491   0.00000  Uiso   1.00
O1323  O     0.64814   0.83332   0.68508   0.00000  Uiso   1.00
O1324  O     0.60600   0.83333   0.81492   0.00000  Uiso   1.00
O1325  O     0.39400   0.83333   0.68508   0.00000  Uiso   1.00
O1326  O     0.60317   0.97818   0.66327   0.00000  Uiso   1.00
C1327  C     0.99949   0.75414   0.75143   0.00000  Uiso   1.00
C1328  C     0.68705   0.68702   0.78132   0.00000  Uiso   1.00
C1329  C     0.66761   0.95719   0.74772   0.00000  Uiso   1.00
C1330  C     0.99904   0.70948   0.75232   0.00000  Uiso   1.00
C1331  C     0.85002   0.80655   0.77705   0.00000  Uiso   1.00
C1332  C     0.81665   0.86010   0.72293   0.00000  Uiso   1.00
C1333  C     0.80040   0.80677   0.77697   0.00000  Uiso   1.00
C1334  C     0.86627   0.85988   0.72300   0.00000  Uiso   1.00
C1335  C     0.97293   0.83431   0.83622   0.00000  Uiso   1.00
C1336  C     0.69370   0.83161   0.66392   0.00000  Uiso   1.00
C1337  C     0.95859   0.83752   0.88571   0.00000  Uiso   1.00
C1338  C     0.66717   0.91253   0.74858   0.00000  Uiso   1.00
C1339  C     0.70816   0.82500   0.61500   0.00000  Uiso   1.00
C1340  C     0.97261   0.85904   0.95634   0.00000  Uiso   1.00
C1341  C     0.69814   0.79277   0.54739   0.00000  Uiso   1.00
C1342  C     0.99039   0.85260   0.91005   0.00000  Uiso   1.00
C1343  C     0.67947   0.80214   0.59267   0.00000  Uiso   1.00
C1344  C     0.91067   0.82765   0.90847   0.00000  Uiso   1.00
C1345  C     0.75463   0.83791   0.59126   0.00000  Uiso   1.00
C1346  C     0.89258   0.83290   0.95515   0.00000  Uiso   1.00
C1347  C     0.77564   0.82558   0.54666   0.00000  Uiso   1.00
C1348  C     0.92389   0.85054   0.97883   0.00000  Uiso   1.00
C1349  C     0.85749   0.85222   0.54637   0.00000  Uiso   1.00
C1350  C     0.74613   0.80330   0.52434   0.00000  Uiso   1.00
C1351  C     0.84372   0.82258   0.97837   0.00000  Uiso   1.00
C1352  C     0.82528   0.83401   0.52414   0.00000  Uiso   1.00
C1353  C     0.96090   0.95919   0.68359   0.00000  Uiso   1.00
C1354  C     0.70576   0.70750   0.81643   0.00000  Uiso   1.00
C1355  C     0.81326   0.80009   0.95755   0.00000  Uiso   1.00
C1356  C     0.90593   0.86021   0.52440   0.00000  Uiso   1.00
C1357  C     0.76538   0.79049   0.97992   0.00000  Uiso   1.00
C1358  C     0.97845   0.68923   0.72190   0.00000  Uiso   1.00
C1359  C     0.68817   0.97743   0.77818   0.00000  Uiso   1.00
C1360  C     0.97960   0.97965   0.71873   0.00000  Uiso   1.00
Cu1361 Cu    0.71355   0.83334   0.75000   0.00000  Uiso   1.00
Cu1362 Cu    0.95311   0.83333   0.75000   0.00000  Uiso   1.00
H1363  H     0.77380   0.85721   0.60910   0.00000  Uiso   1.00
H1364  H     0.89154   0.88104   0.70137   0.00000  Uiso   1.00
H1365  H     0.92126   0.90816   0.56014   0.00000  Uiso   1.00
H1366  H     0.93647   0.86139   0.57639   0.00000  Uiso   1.00
H1367  H     0.73561   0.78212   0.92806   0.00000  Uiso   1.00
H1368  H     0.75411   0.73832   0.94825   0.00000  Uiso   1.00
H1369  H     0.94252   0.81002   0.62798   0.00000  Uiso   1.00
H1370  H     0.96947   0.76703   0.64208   0.00000  Uiso   1.00
H1371  H     0.72572   0.83625   0.87901   0.00000  Uiso   1.00
H1372  H     0.72265   0.87937   0.90929   0.00000  Uiso   1.00
H1373  H     0.96907   0.92710   0.67500   0.00000  Uiso   1.00
H1374  H     0.88740   0.81759   0.88839   0.00000  Uiso   1.00
H1375  H     0.69752   0.73958   0.82506   0.00000  Uiso   1.00
H1376  H     0.84525   0.78266   0.83845   0.00000  Uiso   1.00
H1377  H     0.85856   0.74813   0.79626   0.00000  Uiso   1.00
H1378  H     0.82120   0.88382   0.66150   0.00000  Uiso   1.00
H1379  H     0.80827   0.91850   0.70355   0.00000  Uiso   1.00
H1380  H     0.99699   0.87150   0.97455   0.00000  Uiso   1.00
H1381  H     0.67537   0.77539   0.53095   0.00000  Uiso   1.00
H1382  H     0.84688   0.85989   0.58146   0.00000  Uiso   1.00
H1383  H     0.82600   0.78761   0.92425   0.00000  Uiso   1.00
H1384  H     0.96297   0.70725   0.69949   0.00000  Uiso   1.00
H1385  H     0.70357   0.95939   0.80065   0.00000  Uiso   1.00
H1386  H     0.77514   0.78559   0.79858   0.00000  Uiso   1.00
N1387  N     0.78403   0.83334   0.74999   0.00000  Uiso   1.00
N1388  N     0.88264   0.83332   0.75001   0.00000  Uiso   1.00
N1389  N     0.93652   0.87969   0.54843   0.00000  Uiso   1.00
N1390  N     0.73668   0.76651   0.95747   0.00000  Uiso   1.00
N1391  N     0.96600   0.78571   0.61539   0.00000  Uiso   1.00
N1392  N     0.70636   0.86365   0.88756   0.00000  Uiso   1.00
N1393  N     0.86600   0.77800   0.80546   0.00000  Uiso   1.00
N1394  N     0.80065   0.88863   0.69451   0.00000  Uiso   1.00
O1395  O     0.70625   0.77322   0.75000   0.00000  Uiso   1.00
O1396  O     0.73027   0.68855   0.83669   0.00000  Uiso   1.00
O1397  O     0.96042   0.89345   0.75000   0.00000  Uiso   1.00
O1398  O     0.96039   0.77321   0.75000   0.00000  Uiso   1.00
O1399  O     0.70628   0.89346   0.74999   0.00000  Uiso   1.00
O1400  O     0.68519   0.83334   0.81491   0.00000  Uiso   1.00
O1401  O     0.98148   0.83332   0.68508   0.00000  Uiso   1.00
O1402  O     0.93933   0.83333   0.81492   0.00000  Uiso   1.00
O1403  O     0.72733   0.83333   0.68508   0.00000  Uiso   1.00
O1404  O     0.93650   0.97818   0.66327   0.00000  Uiso   1.00
loop_
_geom_bond_atom_site_label_1
_geom_bond_atom_site_label_2
_geom_bond_distance
_geom_bond_site_symmetry_2
_ccdc_geom_bond_type
C1     O72     1.291   .     A
C1     C4      1.445   .     S
C1     O147    1.290   .     S
C2     C28     1.488   .     S
C2     C160    1.411   1_455 S
C2     C501    1.393   1_545 S
C3     C33     1.399   .     A
C3     C12     1.445   .     S
C3     C190    1.411   1_455 S
C4     C32     1.398   .     A
C4     C80     1.411   .     S
C5     N67     1.429   .     S
C5     C7      1.420   .     A
C5     N62     1.374   .     A
C6     N61     1.374   .     A
C6     N68     1.429   .     S
C6     C8      1.420   .     A
C7     N61     1.363   .     A
C7     H60     1.082   .     S
C8     H38     1.082   .     S
C8     N62     1.363   .     A
C9     O76     1.302   .     A
C9     C11     1.477   .     S
C9     O152    1.296   .     S
C10    O77     1.300   .     A
C10    C13     1.473   .     S
C10    O231    1.294   1_455 S
C11    C18     1.398   .     A
C11    C16     1.412   .     A
C12    O73     1.291   .     A
C12    O227    1.290   1_455 S
C13    C19     1.397   .     A
C13    C17     1.413   .     A
C14    H54     1.083   .     S
C14    C16     1.400   .     A
C14    C22     1.407   .     A
C15    H55     1.084   .     S
C15    C24     1.407   .     A
C15    C17     1.393   .     A
C16    N144    1.438   .     S
C17    N221    1.434   1_455 S
C18    H48     1.074   .     S
C18    C20     1.407   .     A
C19    C21     1.408   .     A
C19    H37     1.075   .     S
C20    C25     1.428   .     A
C20    C22     1.418   .     A
C21    C26     1.429   .     A
C21    C24     1.420   .     A
C22    C732    1.400   .     S
C23    H56     1.075   .     S
C23    C26     1.415   .     A
C23    C30     1.393   .     A
C24    C733    1.400   1_554 S
C25    C29     1.414   .     A
C25    C728    1.422   .     S
C26    C727    1.422   1_554 S
C27    O78     1.221   .     D
C27    C34     1.488   .     S
C27    H47     1.084   .     S
C28    H49     1.084   .     S
C28    O70     1.222   .     D
C29    H57     1.076   .     S
C29    C31     1.392   .     A
C30    N63     1.435   .     S
C30    C724    1.400   1_554 S
C31    N64     1.435   .     S
C31    C726    1.400   .     S
C32    H58     1.084   .     S
C32    C502    1.392   1_545 S
C33    H59     1.085   .     S
C33    C236    1.393   .     S
C34    C81     1.411   .     S
C34    C266    1.392   .     S
Cu35   O74     1.951   .     S
Cu35   O77     1.937   .     S
Cu35   N61     2.016   .     S
Cu35   O73     1.957   .     S
Cu35   O69     1.955   .     S
Cu35   Cu192   2.683   1_455 S
Cu36   O76     1.937   .     S
Cu36   O71     1.955   .     S
Cu36   N62     2.016   .     S
Cu36   O75     1.951   .     S
Cu36   O72     1.957   .     S
Cu36   Cu113   2.683   .     S
H39    N63     1.046   .     S
H40    N63     1.044   .     S
H41    N64     1.044   .     S
H42    N64     1.046   .     S
H43    N65     1.044   .     S
H44    N65     1.045   .     S
H45    N66     1.045   .     S
H46    N66     1.046   .     S
H50    N67     1.045   .     S
H51    N67     1.046   .     S
H52    N68     1.045   .     S
H53    N68     1.045   .     S
N65    C95     1.434   .     S
N66    C172    1.438   1_455 S
O69    C157    1.290   1_455 S
O71    C90     1.290   .     S
O74    C165    1.296   1_455 S
O75    C88     1.294   .     S
C79    O150    1.291   .     A
C79    C82     1.445   .     S
C79    O225    1.290   .     S
C80    C106    1.488   .     S
C80    C579    1.393   1_545 S
C81    C111    1.399   .     A
C81    C90     1.445   .     S
C82    C110    1.398   .     A
C82    C158    1.411   .     S
C83    N145    1.429   .     S
C83    C85     1.420   .     A
C83    N140    1.374   .     A
C84    N139    1.374   .     A
C84    N146    1.429   .     S
C84    C86     1.420   .     A
C85    N139    1.363   .     A
C85    H138    1.082   .     S
C86    H116    1.082   .     S
C86    N140    1.363   .     A
C87    O154    1.302   .     A
C87    C89     1.477   .     S
C87    O230    1.296   .     S
C88    O155    1.300   .     A
C88    C91     1.473   .     S
C89    C96     1.398   .     A
C89    C94     1.412   .     A
C90    O151    1.291   .     A
C91    C97     1.397   .     A
C91    C95     1.413   .     A
C92    H132    1.083   .     S
C92    C94     1.400   .     A
C92    C100    1.407   .     A
C93    H133    1.084   .     S
C93    C102    1.407   .     A
C93    C95     1.393   .     A
C94    N222    1.438   .     S
C96    H126    1.074   .     S
C96    C98     1.407   .     A
C97    C99     1.408   .     A
C97    H115    1.075   .     S
C98    C103    1.428   .     A
C98    C100    1.418   .     A
C99    C104    1.429   .     A
C99    C102    1.420   .     A
C100   C810    1.400   .     S
C101   H134    1.075   .     S
C101   C104    1.415   .     A
C101   C108    1.393   .     A
C102   C811    1.400   1_554 S
C103   C107    1.414   .     A
C103   C806    1.422   .     S
C104   C805    1.422   1_554 S
C105   O156    1.221   .     D
C105   C112    1.488   .     S
C105   H125    1.084   .     S
C106   H127    1.084   .     S
C106   O148    1.222   .     D
C107   H135    1.076   .     S
C107   C109    1.392   .     A
C108   N141    1.435   .     S
C108   C802    1.400   1_554 S
C109   N142    1.435   .     S
C109   C804    1.400   .     S
C110   H136    1.084   .     S
C110   C580    1.392   1_545 S
C111   H137    1.085   .     S
C111   C314    1.393   .     S
C112   C159    1.411   .     S
C112   C344    1.392   .     S
Cu113  O152    1.951   .     S
Cu113  O155    1.937   .     S
Cu113  N139    2.016   .     S
Cu113  O151    1.957   .     S
Cu113  O147    1.955   .     S
Cu114  O154    1.937   .     S
Cu114  O149    1.955   .     S
Cu114  N140    2.016   .     S
Cu114  O153    1.951   .     S
Cu114  O150    1.957   .     S
Cu114  Cu191   2.683   .     S
H117   N141    1.046   .     S
H118   N141    1.044   .     S
H119   N142    1.044   .     S
H120   N142    1.046   .     S
H121   N143    1.044   .     S
H122   N143    1.045   .     S
H123   N144    1.045   .     S
H124   N144    1.046   .     S
H128   N145    1.045   .     S
H129   N145    1.046   .     S
H130   N146    1.045   .     S
H131   N146    1.045   .     S
N143   C173    1.434   .     S
O149   C168    1.290   .     S
O153   C166    1.294   .     S
C157   O228    1.291   .     A
C157   C160    1.445   .     S
C157   O69     1.290   1_655 S
C158   C184    1.488   .     S
C158   C657    1.393   1_545 S
C159   C189    1.399   .     A
C159   C168    1.445   .     S
C160   C188    1.398   .     A
C160   C2      1.411   1_655 S
C161   N223    1.429   .     S
C161   C163    1.420   .     A
C161   N218    1.374   .     A
C162   N217    1.374   .     A
C162   N224    1.429   .     S
C162   C164    1.420   .     A
C163   N217    1.363   .     A
C163   H216    1.082   .     S
C164   H194    1.082   .     S
C164   N218    1.363   .     A
C165   O232    1.302   .     A
C165   C167    1.477   .     S
C165   O74     1.296   1_655 S
C166   O233    1.300   .     A
C166   C169    1.473   .     S
C167   C174    1.398   .     A
C167   C172    1.412   .     A
C168   O229    1.291   .     A
C169   C175    1.397   .     A
C169   C173    1.413   .     A
C170   H210    1.083   .     S
C170   C172    1.400   .     A
C170   C178    1.407   .     A
C171   H211    1.084   .     S
C171   C180    1.407   .     A
C171   C173    1.393   .     A
C172   N66     1.438   1_655 S
C174   H204    1.074   .     S
C174   C176    1.407   .     A
C175   C177    1.408   .     A
C175   H193    1.075   .     S
C176   C181    1.428   .     A
C176   C178    1.418   .     A
C177   C182    1.429   .     A
C177   C180    1.420   .     A
C178   C888    1.400   .     S
C179   H212    1.075   .     S
C179   C182    1.415   .     A
C179   C186    1.393   .     A
C180   C889    1.400   1_554 S
C181   C185    1.414   .     A
C181   C884    1.422   .     S
C182   C883    1.422   1_554 S
C183   O234    1.221   .     D
C183   C190    1.488   .     S
C183   H203    1.084   .     S
C184   H205    1.084   .     S
C184   O226    1.222   .     D
C185   H213    1.076   .     S
C185   C187    1.392   .     A
C186   N219    1.435   .     S
C186   C880    1.400   1_554 S
C187   N220    1.435   .     S
C187   C882    1.400   .     S
C188   H214    1.084   .     S
C188   C658    1.392   1_545 S
C189   H215    1.085   .     S
C189   C392    1.393   .     S
C190   C3      1.411   1_655 S
C190   C422    1.392   .     S
Cu191  O230    1.951   .     S
Cu191  O233    1.937   .     S
Cu191  N217    2.016   .     S
Cu191  O229    1.957   .     S
Cu191  O225    1.955   .     S
Cu192  O232    1.937   .     S
Cu192  O227    1.955   .     S
Cu192  N218    2.016   .     S
Cu192  O231    1.951   .     S
Cu192  O228    1.957   .     S
Cu192  Cu35    2.683   1_655 S
H195   N219    1.046   .     S
H196   N219    1.044   .     S
H197   N220    1.044   .     S
H198   N220    1.046   .     S
H199   N221    1.044   .     S
H200   N221    1.045   .     S
H201   N222    1.045   .     S
H202   N222    1.046   .     S
H206   N223    1.045   .     S
H207   N223    1.046   .     S
H208   N224    1.045   .     S
H209   N224    1.045   .     S
N221   C17     1.434   1_655 S
O227   C12     1.290   1_655 S
O231   C10     1.294   1_655 S
C235   O306    1.291   .     A
C235   C238    1.445   .     S
C235   O381    1.290   .     S
C236   C262    1.488   .     S
C236   C394    1.411   1_455 S
C237   C267    1.399   .     A
C237   C246    1.445   .     S
C237   C424    1.411   1_455 S
C238   C266    1.398   .     A
C238   C314    1.411   .     S
C239   N301    1.429   .     S
C239   C241    1.420   .     A
C239   N296    1.374   .     A
C240   N295    1.374   .     A
C240   N302    1.429   .     S
C240   C242    1.420   .     A
C241   N295    1.363   .     A
C241   H294    1.082   .     S
C242   H272    1.082   .     S
C242   N296    1.363   .     A
C243   O310    1.302   .     A
C243   C245    1.477   .     S
C243   O386    1.296   .     S
C244   O311    1.300   .     A
C244   C247    1.473   .     S
C244   O465    1.294   1_455 S
C245   C252    1.398   .     A
C245   C250    1.412   .     A
C246   O307    1.291   .     A
C246   O461    1.290   1_455 S
C247   C253    1.397   .     A
C247   C251    1.413   .     A
C248   H288    1.083   .     S
C248   C250    1.400   .     A
C248   C256    1.407   .     A
C249   H289    1.084   .     S
C249   C258    1.407   .     A
C249   C251    1.393   .     A
C250   N378    1.438   .     S
C251   N455    1.434   1_455 S
C252   H282    1.074   .     S
C252   C254    1.407   .     A
C253   C255    1.408   .     A
C253   H271    1.075   .     S
C254   C259    1.428   .     A
C254   C256    1.418   .     A
C255   C260    1.429   .     A
C255   C258    1.420   .     A
C256   C966    1.400   .     S
C257   H290    1.075   .     S
C257   C260    1.415   .     A
C257   C264    1.393   .     A
C258   C967    1.400   1_554 S
C259   C263    1.414   .     A
C259   C962    1.422   .     S
C260   C961    1.422   1_554 S
C261   O312    1.221   .     D
C261   C268    1.488   .     S
C261   H281    1.084   .     S
C262   H283    1.084   .     S
C262   O304    1.222   .     D
C263   H291    1.076   .     S
C263   C265    1.392   .     A
C264   N297    1.435   .     S
C264   C958    1.400   1_554 S
C265   N298    1.435   .     S
C265   C960    1.400   .     S
C266   H292    1.084   .     S
C267   H293    1.085   .     S
C267   C470    1.393   .     S
C268   C315    1.411   .     S
C268   C500    1.392   .     S
Cu269  O308    1.951   .     S
Cu269  O311    1.937   .     S
Cu269  N295    2.016   .     S
Cu269  O307    1.957   .     S
Cu269  O303    1.955   .     S
Cu269  Cu426   2.683   1_455 S
Cu270  O310    1.937   .     S
Cu270  O305    1.955   .     S
Cu270  N296    2.016   .     S
Cu270  O309    1.951   .     S
Cu270  O306    1.957   .     S
Cu270  Cu347   2.683   .     S
H273   N297    1.046   .     S
H274   N297    1.044   .     S
H275   N298    1.044   .     S
H276   N298    1.046   .     S
H277   N299    1.044   .     S
H278   N299    1.045   .     S
H279   N300    1.045   .     S
H280   N300    1.046   .     S
H284   N301    1.045   .     S
H285   N301    1.046   .     S
H286   N302    1.045   .     S
H287   N302    1.045   .     S
N299   C329    1.434   .     S
N300   C406    1.438   1_455 S
O303   C391    1.290   1_455 S
O305   C324    1.290   .     S
O308   C399    1.296   1_455 S
O309   C322    1.294   .     S
C313   O384    1.291   .     A
C313   C316    1.445   .     S
C313   O459    1.290   .     S
C314   C340    1.488   .     S
C315   C345    1.399   .     A
C315   C324    1.445   .     S
C316   C344    1.398   .     A
C316   C392    1.411   .     S
C317   N379    1.429   .     S
C317   C319    1.420   .     A
C317   N374    1.374   .     A
C318   N373    1.374   .     A
C318   N380    1.429   .     S
C318   C320    1.420   .     A
C319   N373    1.363   .     A
C319   H372    1.082   .     S
C320   H350    1.082   .     S
C320   N374    1.363   .     A
C321   O388    1.302   .     A
C321   C323    1.477   .     S
C321   O464    1.296   .     S
C322   O389    1.300   .     A
C322   C325    1.473   .     S
C323   C330    1.398   .     A
C323   C328    1.412   .     A
C324   O385    1.291   .     A
C325   C331    1.397   .     A
C325   C329    1.413   .     A
C326   H366    1.083   .     S
C326   C328    1.400   .     A
C326   C334    1.407   .     A
C327   H367    1.084   .     S
C327   C336    1.407   .     A
C327   C329    1.393   .     A
C328   N456    1.438   .     S
C330   H360    1.074   .     S
C330   C332    1.407   .     A
C331   C333    1.408   .     A
C331   H349    1.075   .     S
C332   C337    1.428   .     A
C332   C334    1.418   .     A
C333   C338    1.429   .     A
C333   C336    1.420   .     A
C334   C1044   1.400   .     S
C335   H368    1.075   .     S
C335   C338    1.415   .     A
C335   C342    1.393   .     A
C336   C1045   1.400   1_554 S
C337   C341    1.414   .     A
C337   C1040   1.422   .     S
C338   C1039   1.422   1_554 S
C339   O390    1.221   .     D
C339   C346    1.488   .     S
C339   H359    1.084   .     S
C340   H361    1.084   .     S
C340   O382    1.222   .     D
C341   H369    1.076   .     S
C341   C343    1.392   .     A
C342   N375    1.435   .     S
C342   C1036   1.400   1_554 S
C343   N376    1.435   .     S
C343   C1038   1.400   .     S
C344   H370    1.084   .     S
C345   H371    1.085   .     S
C345   C548    1.393   .     S
C346   C393    1.411   .     S
C346   C578    1.392   .     S
Cu347  O386    1.951   .     S
Cu347  O389    1.937   .     S
Cu347  N373    2.016   .     S
Cu347  O385    1.957   .     S
Cu347  O381    1.955   .     S
Cu348  O388    1.937   .     S
Cu348  O383    1.955   .     S
Cu348  N374    2.016   .     S
Cu348  O387    1.951   .     S
Cu348  O384    1.957   .     S
Cu348  Cu425   2.683   .     S
H351   N375    1.046   .     S
H352   N375    1.044   .     S
H353   N376    1.044   .     S
H354   N376    1.046   .     S
H355   N377    1.044   .     S
H356   N377    1.045   .     S
H357   N378    1.045   .     S
H358   N378    1.046   .     S
H362   N379    1.045   .     S
H363   N379    1.046   .     S
H364   N380    1.045   .     S
H365   N380    1.045   .     S
N377   C407    1.434   .     S
O383   C402    1.290   .     S
O387   C400    1.294   .     S
C391   O462    1.291   .     A
C391   C394    1.445   .     S
C391   O303    1.290   1_655 S
C392   C418    1.488   .     S
C393   C423    1.399   .     A
C393   C402    1.445   .     S
C394   C422    1.398   .     A
C394   C236    1.411   1_655 S
C395   N457    1.429   .     S
C395   C397    1.420   .     A
C395   N452    1.374   .     A
C396   N451    1.374   .     A
C396   N458    1.429   .     S
C396   C398    1.420   .     A
C397   N451    1.363   .     A
C397   H450    1.082   .     S
C398   H428    1.082   .     S
C398   N452    1.363   .     A
C399   O466    1.302   .     A
C399   C401    1.477   .     S
C399   O308    1.296   1_655 S
C400   O467    1.300   .     A
C400   C403    1.473   .     S
C401   C408    1.398   .     A
C401   C406    1.412   .     A
C402   O463    1.291   .     A
C403   C409    1.397   .     A
C403   C407    1.413   .     A
C404   H444    1.083   .     S
C404   C406    1.400   .     A
C404   C412    1.407   .     A
C405   H445    1.084   .     S
C405   C414    1.407   .     A
C405   C407    1.393   .     A
C406   N300    1.438   1_655 S
C408   H438    1.074   .     S
C408   C410    1.407   .     A
C409   C411    1.408   .     A
C409   H427    1.075   .     S
C410   C415    1.428   .     A
C410   C412    1.418   .     A
C411   C416    1.429   .     A
C411   C414    1.420   .     A
C412   C1122   1.400   .     S
C413   H446    1.075   .     S
C413   C416    1.415   .     A
C413   C420    1.393   .     A
C414   C1123   1.400   1_554 S
C415   C419    1.414   .     A
C415   C1118   1.422   .     S
C416   C1117   1.422   1_554 S
C417   O468    1.221   .     D
C417   C424    1.488   .     S
C417   H437    1.084   .     S
C418   H439    1.084   .     S
C418   O460    1.222   .     D
C419   H447    1.076   .     S
C419   C421    1.392   .     A
C420   N453    1.435   .     S
C420   C1114   1.400   1_554 S
C421   N454    1.435   .     S
C421   C1116   1.400   .     S
C422   H448    1.084   .     S
C423   H449    1.085   .     S
C423   C626    1.393   .     S
C424   C237    1.411   1_655 S
C424   C656    1.392   .     S
Cu425  O464    1.951   .     S
Cu425  O467    1.937   .     S
Cu425  N451    2.016   .     S
Cu425  O463    1.957   .     S
Cu425  O459    1.955   .     S
Cu426  O466    1.937   .     S
Cu426  O461    1.955   .     S
Cu426  N452    2.016   .     S
Cu426  O465    1.951   .     S
Cu426  O462    1.957   .     S
Cu426  Cu269   2.683   1_655 S
H429   N453    1.046   .     S
H430   N453    1.044   .     S
H431   N454    1.044   .     S
H432   N454    1.046   .     S
H433   N455    1.044   .     S
H434   N455    1.045   .     S
H435   N456    1.045   .     S
H436   N456    1.046   .     S
H440   N457    1.045   .     S
H441   N457    1.046   .     S
H442   N458    1.045   .     S
H443   N458    1.045   .     S
N455   C251    1.434   1_655 S
O461   C246    1.290   1_655 S
O465   C244    1.294   1_655 S
C469   O540    1.291   .     A
C469   C472    1.445   .     S
C469   O615    1.290   .     S
C470   C496    1.488   .     S
C470   C628    1.411   1_455 S
C471   C501    1.399   .     A
C471   C480    1.445   .     S
C471   C658    1.411   1_455 S
C472   C500    1.398   .     A
C472   C548    1.411   .     S
C473   N535    1.429   .     S
C473   C475    1.420   .     A
C473   N530    1.374   .     A
C474   N529    1.374   .     A
C474   N536    1.429   .     S
C474   C476    1.420   .     A
C475   N529    1.363   .     A
C475   H528    1.082   .     S
C476   H506    1.082   .     S
C476   N530    1.363   .     A
C477   O544    1.302   .     A
C477   C479    1.477   .     S
C477   O620    1.296   .     S
C478   O545    1.300   .     A
C478   C481    1.473   .     S
C478   O699    1.294   1_455 S
C479   C486    1.398   .     A
C479   C484    1.412   .     A
C480   O541    1.291   .     A
C480   O695    1.290   1_455 S
C481   C487    1.397   .     A
C481   C485    1.413   .     A
C482   H522    1.083   .     S
C482   C484    1.400   .     A
C482   C490    1.407   .     A
C483   H523    1.084   .     S
C483   C492    1.407   .     A
C483   C485    1.393   .     A
C484   N612    1.438   .     S
C485   N689    1.434   1_455 S
C486   H516    1.074   .     S
C486   C488    1.407   .     A
C487   C489    1.408   .     A
C487   H505    1.075   .     S
C488   C493    1.428   .     A
C488   C490    1.418   .     A
C489   C494    1.429   .     A
C489   C492    1.420   .     A
C490   C1200   1.400   .     S
C491   H524    1.075   .     S
C491   C494    1.415   .     A
C491   C498    1.393   .     A
C492   C1201   1.400   1_554 S
C493   C497    1.414   .     A
C493   C1196   1.422   .     S
C494   C1195   1.422   1_554 S
C495   O546    1.221   .     D
C495   C502    1.488   .     S
C495   H515    1.084   .     S
C496   H517    1.084   .     S
C496   O538    1.222   .     D
C497   H525    1.076   .     S
C497   C499    1.392   .     A
C498   N531    1.435   .     S
C498   C1192   1.400   1_554 S
C499   N532    1.435   .     S
C499   C1194   1.400   .     S
C500   H526    1.084   .     S
C501   H527    1.085   .     S
C501   C2      1.393   1_565 S
C502   C549    1.411   .     S
C502   C32     1.392   1_565 S
Cu503  O542    1.951   .     S
Cu503  O545    1.937   .     S
Cu503  N529    2.016   .     S
Cu503  O541    1.957   .     S
Cu503  O537    1.955   .     S
Cu503  Cu660   2.683   1_455 S
Cu504  O544    1.937   .     S
Cu504  O539    1.955   .     S
Cu504  N530    2.016   .     S
Cu504  O543    1.951   .     S
Cu504  O540    1.957   .     S
Cu504  Cu581   2.683   .     S
H507   N531    1.046   .     S
H508   N531    1.044   .     S
H509   N532    1.044   .     S
H510   N532    1.046   .     S
H511   N533    1.044   .     S
H512   N533    1.045   .     S
H513   N534    1.045   .     S
H514   N534    1.046   .     S
H518   N535    1.045   .     S
H519   N535    1.046   .     S
H520   N536    1.045   .     S
H521   N536    1.045   .     S
N533   C563    1.434   .     S
N534   C640    1.438   1_455 S
O537   C625    1.290   1_455 S
O539   C558    1.290   .     S
O542   C633    1.296   1_455 S
O543   C556    1.294   .     S
C547   O618    1.291   .     A
C547   C550    1.445   .     S
C547   O693    1.290   .     S
C548   C574    1.488   .     S
C549   C579    1.399   .     A
C549   C558    1.445   .     S
C550   C578    1.398   .     A
C550   C626    1.411   .     S
C551   N613    1.429   .     S
C551   C553    1.420   .     A
C551   N608    1.374   .     A
C552   N607    1.374   .     A
C552   N614    1.429   .     S
C552   C554    1.420   .     A
C553   N607    1.363   .     A
C553   H606    1.082   .     S
C554   H584    1.082   .     S
C554   N608    1.363   .     A
C555   O622    1.302   .     A
C555   C557    1.477   .     S
C555   O698    1.296   .     S
C556   O623    1.300   .     A
C556   C559    1.473   .     S
C557   C564    1.398   .     A
C557   C562    1.412   .     A
C558   O619    1.291   .     A
C559   C565    1.397   .     A
C559   C563    1.413   .     A
C560   H600    1.083   .     S
C560   C562    1.400   .     A
C560   C568    1.407   .     A
C561   H601    1.084   .     S
C561   C570    1.407   .     A
C561   C563    1.393   .     A
C562   N690    1.438   .     S
C564   H594    1.074   .     S
C564   C566    1.407   .     A
C565   C567    1.408   .     A
C565   H583    1.075   .     S
C566   C571    1.428   .     A
C566   C568    1.418   .     A
C567   C572    1.429   .     A
C567   C570    1.420   .     A
C568   C1278   1.400   .     S
C569   H602    1.075   .     S
C569   C572    1.415   .     A
C569   C576    1.393   .     A
C570   C1279   1.400   1_554 S
C571   C575    1.414   .     A
C571   C1274   1.422   .     S
C572   C1273   1.422   1_554 S
C573   O624    1.221   .     D
C573   C580    1.488   .     S
C573   H593    1.084   .     S
C574   H595    1.084   .     S
C574   O616    1.222   .     D
C575   H603    1.076   .     S
C575   C577    1.392   .     A
C576   N609    1.435   .     S
C576   C1270   1.400   1_554 S
C577   N610    1.435   .     S
C577   C1272   1.400   .     S
C578   H604    1.084   .     S
C579   H605    1.085   .     S
C579   C80     1.393   1_565 S
C580   C627    1.411   .     S
C580   C110    1.392   1_565 S
Cu581  O620    1.951   .     S
Cu581  O623    1.937   .     S
Cu581  N607    2.016   .     S
Cu581  O619    1.957   .     S
Cu581  O615    1.955   .     S
Cu582  O622    1.937   .     S
Cu582  O617    1.955   .     S
Cu582  N608    2.016   .     S
Cu582  O621    1.951   .     S
Cu582  O618    1.957   .     S
Cu582  Cu659   2.683   .     S
H585   N609    1.046   .     S
H586   N609    1.044   .     S
H587   N610    1.044   .     S
H588   N610    1.046   .     S
H589   N611    1.044   .     S
H590   N611    1.045   .     S
H591   N612    1.045   .     S
H592   N612    1.046   .     S
H596   N613    1.045   .     S
H597   N613    1.046   .     S
H598   N614    1.045   .     S
H599   N614    1.045   .     S
N611   C641    1.434   .     S
O617   C636    1.290   .     S
O621   C634    1.294   .     S
C625   O696    1.291   .     A
C625   C628    1.445   .     S
C625   O537    1.290   1_655 S
C626   C652    1.488   .     S
C627   C657    1.399   .     A
C627   C636    1.445   .     S
C628   C656    1.398   .     A
C628   C470    1.411   1_655 S
C629   N691    1.429   .     S
C629   C631    1.420   .     A
C629   N686    1.374   .     A
C630   N685    1.374   .     A
C630   N692    1.429   .     S
C630   C632    1.420   .     A
C631   N685    1.363   .     A
C631   H684    1.082   .     S
C632   H662    1.082   .     S
C632   N686    1.363   .     A
C633   O700    1.302   .     A
C633   C635    1.477   .     S
C633   O542    1.296   1_655 S
C634   O701    1.300   .     A
C634   C637    1.473   .     S
C635   C642    1.398   .     A
C635   C640    1.412   .     A
C636   O697    1.291   .     A
C637   C643    1.397   .     A
C637   C641    1.413   .     A
C638   H678    1.083   .     S
C638   C640    1.400   .     A
C638   C646    1.407   .     A
C639   H679    1.084   .     S
C639   C648    1.407   .     A
C639   C641    1.393   .     A
C640   N534    1.438   1_655 S
C642   H672    1.074   .     S
C642   C644    1.407   .     A
C643   C645    1.408   .     A
C643   H661    1.075   .     S
C644   C649    1.428   .     A
C644   C646    1.418   .     A
C645   C650    1.429   .     A
C645   C648    1.420   .     A
C646   C1356   1.400   .     S
C647   H680    1.075   .     S
C647   C650    1.415   .     A
C647   C654    1.393   .     A
C648   C1357   1.400   1_554 S
C649   C653    1.414   .     A
C649   C1352   1.422   .     S
C650   C1351   1.422   1_554 S
C651   O702    1.221   .     D
C651   C658    1.488   .     S
C651   H671    1.084   .     S
C652   H673    1.084   .     S
C652   O694    1.222   .     D
C653   H681    1.076   .     S
C653   C655    1.392   .     A
C654   N687    1.435   .     S
C654   C1348   1.400   1_554 S
C655   N688    1.435   .     S
C655   C1350   1.400   .     S
C656   H682    1.084   .     S
C657   H683    1.085   .     S
C657   C158    1.393   1_565 S
C658   C471    1.411   1_655 S
C658   C188    1.392   1_565 S
Cu659  O698    1.951   .     S
Cu659  O701    1.937   .     S
Cu659  N685    2.016   .     S
Cu659  O697    1.957   .     S
Cu659  O693    1.955   .     S
Cu660  O700    1.937   .     S
Cu660  O695    1.955   .     S
Cu660  N686    2.016   .     S
Cu660  O699    1.951   .     S
Cu660  O696    1.957   .     S
Cu660  Cu503   2.683   1_655 S
H663   N687    1.046   .     S
H664   N687    1.044   .     S
H665   N688    1.044   .     S
H666   N688    1.046   .     S
H667   N689    1.044   .     S
H668   N689    1.045   .     S
H669   N690    1.045   .     S
H670   N690    1.046   .     S
H674   N691    1.045   .     S
H675   N691    1.046   .     S
H676   N692    1.045   .     S
H677   N692    1.045   .     S
N689   C485    1.434   1_655 S
O695   C480    1.290   1_655 S
O699   C478    1.294   1_655 S
C703   O774    1.291   .     A
C703   C706    1.445   .     S
C703   O849    1.290   .     S
C704   C730    1.488   .     S
C704   C862    1.411   1_455 S
C704   C1203   1.393   1_545 S
C705   C735    1.399   .     A
C705   C714    1.445   .     S
C705   C892    1.411   1_455 S
C706   C734    1.398   .     A
C706   C782    1.411   .     S
C707   N769    1.429   .     S
C707   C709    1.420   .     A
C707   N764    1.374   .     A
C708   N763    1.374   .     A
C708   N770    1.429   .     S
C708   C710    1.420   .     A
C709   N763    1.363   .     A
C709   H762    1.082   .     S
C710   H740    1.082   .     S
C710   N764    1.363   .     A
C711   O778    1.302   .     A
C711   C713    1.477   .     S
C711   O854    1.296   .     S
C712   O779    1.300   .     A
C712   C715    1.473   .     S
C712   O933    1.294   1_455 S
C713   C720    1.398   .     A
C713   C718    1.412   .     A
C714   O775    1.291   .     A
C714   O929    1.290   1_455 S
C715   C721    1.397   .     A
C715   C719    1.413   .     A
C716   H756    1.083   .     S
C716   C718    1.400   .     A
C716   C724    1.407   .     A
C717   H757    1.084   .     S
C717   C726    1.407   .     A
C717   C719    1.393   .     A
C718   N846    1.438   .     S
C719   N923    1.434   1_455 S
C720   H750    1.074   .     S
C720   C722    1.407   .     A
C721   C723    1.408   .     A
C721   H739    1.075   .     S
C722   C727    1.428   .     A
C722   C724    1.418   .     A
C723   C728    1.429   .     A
C723   C726    1.420   .     A
C724   C30     1.400   1_556 S
C725   H758    1.075   .     S
C725   C728    1.415   .     A
C725   C732    1.393   .     A
C727   C731    1.414   .     A
C727   C26     1.422   1_556 S
C729   O780    1.221   .     D
C729   C736    1.488   .     S
C729   H749    1.084   .     S
C730   H751    1.084   .     S
C730   O772    1.222   .     D
C731   H759    1.076   .     S
C731   C733    1.392   .     A
C732   N765    1.435   .     S
C733   N766    1.435   .     S
C733   C24     1.400   1_556 S
C734   H760    1.084   .     S
C734   C1204   1.392   1_545 S
C735   H761    1.085   .     S
C735   C938    1.393   .     S
C736   C783    1.411   .     S
C736   C968    1.392   .     S
Cu737  O776    1.951   .     S
Cu737  O779    1.937   .     S
Cu737  N763    2.016   .     S
Cu737  O775    1.957   .     S
Cu737  O771    1.955   .     S
Cu737  Cu894   2.683   1_455 S
Cu738  O778    1.937   .     S
Cu738  O773    1.955   .     S
Cu738  N764    2.016   .     S
Cu738  O777    1.951   .     S
Cu738  O774    1.957   .     S
Cu738  Cu815   2.683   .     S
H741   N765    1.046   .     S
H742   N765    1.044   .     S
H743   N766    1.044   .     S
H744   N766    1.046   .     S
H745   N767    1.044   .     S
H746   N767    1.045   .     S
H747   N768    1.045   .     S
H748   N768    1.046   .     S
H752   N769    1.045   .     S
H753   N769    1.046   .     S
H754   N770    1.045   .     S
H755   N770    1.045   .     S
N767   C797    1.434   .     S
N768   C874    1.438   1_455 S
O771   C859    1.290   1_455 S
O773   C792    1.290   .     S
O776   C867    1.296   1_455 S
O777   C790    1.294   .     S
C781   O852    1.291   .     A
C781   C784    1.445   .     S
C781   O927    1.290   .     S
C782   C808    1.488   .     S
C782   C1281   1.393   1_545 S
C783   C813    1.399   .     A
C783   C792    1.445   .     S
C784   C812    1.398   .     A
C784   C860    1.411   .     S
C785   N847    1.429   .     S
C785   C787    1.420   .     A
C785   N842    1.374   .     A
C786   N841    1.374   .     A
C786   N848    1.429   .     S
C786   C788    1.420   .     A
C787   N841    1.363   .     A
C787   H840    1.082   .     S
C788   H818    1.082   .     S
C788   N842    1.363   .     A
C789   O856    1.302   .     A
C789   C791    1.477   .     S
C789   O932    1.296   .     S
C790   O857    1.300   .     A
C790   C793    1.473   .     S
C791   C798    1.398   .     A
C791   C796    1.412   .     A
C792   O853    1.291   .     A
C793   C799    1.397   .     A
C793   C797    1.413   .     A
C794   H834    1.083   .     S
C794   C796    1.400   .     A
C794   C802    1.407   .     A
C795   H835    1.084   .     S
C795   C804    1.407   .     A
C795   C797    1.393   .     A
C796   N924    1.438   .     S
C798   H828    1.074   .     S
C798   C800    1.407   .     A
C799   C801    1.408   .     A
C799   H817    1.075   .     S
C800   C805    1.428   .     A
C800   C802    1.418   .     A
C801   C806    1.429   .     A
C801   C804    1.420   .     A
C802   C108    1.400   1_556 S
C803   H836    1.075   .     S
C803   C806    1.415   .     A
C803   C810    1.393   .     A
C805   C809    1.414   .     A
C805   C104    1.422   1_556 S
C807   O858    1.221   .     D
C807   C814    1.488   .     S
C807   H827    1.084   .     S
C808   H829    1.084   .     S
C808   O850    1.222   .     D
C809   H837    1.076   .     S
C809   C811    1.392   .     A
C810   N843    1.435   .     S
C811   N844    1.435   .     S
C811   C102    1.400   1_556 S
C812   H838    1.084   .     S
C812   C1282   1.392   1_545 S
C813   H839    1.085   .     S
C813   C1016   1.393   .     S
C814   C861    1.411   .     S
C814   C1046   1.392   .     S
Cu815  O854    1.951   .     S
Cu815  O857    1.937   .     S
Cu815  N841    2.016   .     S
Cu815  O853    1.957   .     S
Cu815  O849    1.955   .     S
Cu816  O856    1.937   .     S
Cu816  O851    1.955   .     S
Cu816  N842    2.016   .     S
Cu816  O855    1.951   .     S
Cu816  O852    1.957   .     S
Cu816  Cu893   2.683   .     S
H819   N843    1.046   .     S
H820   N843    1.044   .     S
H821   N844    1.044   .     S
H822   N844    1.046   .     S
H823   N845    1.044   .     S
H824   N845    1.045   .     S
H825   N846    1.045   .     S
H826   N846    1.046   .     S
H830   N847    1.045   .     S
H831   N847    1.046   .     S
H832   N848    1.045   .     S
H833   N848    1.045   .     S
N845   C875    1.434   .     S
O851   C870    1.290   .     S
O855   C868    1.294   .     S
C859   O930    1.291   .     A
C859   C862    1.445   .     S
C859   O771    1.290   1_655 S
C860   C886    1.488   .     S
C860   C1359   1.393   1_545 S
C861   C891    1.399   .     A
C861   C870    1.445   .     S
C862   C890    1.398   .     A
C862   C704    1.411   1_655 S
C863   N925    1.429   .     S
C863   C865    1.420   .     A
C863   N920    1.374   .     A
C864   N919    1.374   .     A
C864   N926    1.429   .     S
C864   C866    1.420   .     A
C865   N919    1.363   .     A
C865   H918    1.082   .     S
C866   H896    1.082   .     S
C866   N920    1.363   .     A
C867   O934    1.302   .     A
C867   C869    1.477   .     S
C867   O776    1.296   1_655 S
C868   O935    1.300   .     A
C868   C871    1.473   .     S
C869   C876    1.398   .     A
C869   C874    1.412   .     A
C870   O931    1.291   .     A
C871   C877    1.397   .     A
C871   C875    1.413   .     A
C872   H912    1.083   .     S
C872   C874    1.400   .     A
C872   C880    1.407   .     A
C873   H913    1.084   .     S
C873   C882    1.407   .     A
C873   C875    1.393   .     A
C874   N768    1.438   1_655 S
C876   H906    1.074   .     S
C876   C878    1.407   .     A
C877   C879    1.408   .     A
C877   H895    1.075   .     S
C878   C883    1.428   .     A
C878   C880    1.418   .     A
C879   C884    1.429   .     A
C879   C882    1.420   .     A
C880   C186    1.400   1_556 S
C881   H914    1.075   .     S
C881   C884    1.415   .     A
C881   C888    1.393   .     A
C883   C887    1.414   .     A
C883   C182    1.422   1_556 S
C885   O936    1.221   .     D
C885   C892    1.488   .     S
C885   H905    1.084   .     S
C886   H907    1.084   .     S
C886   O928    1.222   .     D
C887   H915    1.076   .     S
C887   C889    1.392   .     A
C888   N921    1.435   .     S
C889   N922    1.435   .     S
C889   C180    1.400   1_556 S
C890   H916    1.084   .     S
C890   C1360   1.392   1_545 S
C891   H917    1.085   .     S
C891   C1094   1.393   .     S
C892   C705    1.411   1_655 S
C892   C1124   1.392   .     S
Cu893  O932    1.951   .     S
Cu893  O935    1.937   .     S
Cu893  N919    2.016   .     S
Cu893  O931    1.957   .     S
Cu893  O927    1.955   .     S
Cu894  O934    1.937   .     S
Cu894  O929    1.955   .     S
Cu894  N920    2.016   .     S
Cu894  O933    1.951   .     S
Cu894  O930    1.957   .     S
Cu894  Cu737   2.683   1_655 S
H897   N921    1.046   .     S
H898   N921    1.044   .     S
H899   N922    1.044   .     S
H900   N922    1.046   .     S
H901   N923    1.044   .     S
H902   N923    1.045   .     S
H903   N924    1.045   .     S
H904   N924    1.046   .     S
H908   N925    1.045   .     S
H909   N925    1.046   .     S
H910   N926    1.045   .     S
H911   N926    1.045   .     S
N923   C719    1.434   1_655 S
O929   C714    1.290   1_655 S
O933   C712    1.294   1_655 S
C937   O1008   1.291   .     A
C937   C940    1.445   .     S
C937   O1083   1.290   .     S
C938   C964    1.488   .     S
C938   C1096   1.411   1_455 S
C939   C969    1.399   .     A
C939   C948    1.445   .     S
C939   C1126   1.411   1_455 S
C940   C968    1.398   .     A
C940   C1016   1.411   .     S
C941   N1003   1.429   .     S
C941   C943    1.420   .     A
C941   N998    1.374   .     A
C942   N997    1.374   .     A
C942   N1004   1.429   .     S
C942   C944    1.420   .     A
C943   N997    1.363   .     A
C943   H996    1.082   .     S
C944   H974    1.082   .     S
C944   N998    1.363   .     A
C945   O1012   1.302   .     A
C945   C947    1.477   .     S
C945   O1088   1.296   .     S
C946   O1013   1.300   .     A
C946   C949    1.473   .     S
C946   O1167   1.294   1_455 S
C947   C954    1.398   .     A
C947   C952    1.412   .     A
C948   O1009   1.291   .     A
C948   O1163   1.290   1_455 S
C949   C955    1.397   .     A
C949   C953    1.413   .     A
C950   H990    1.083   .     S
C950   C952    1.400   .     A
C950   C958    1.407   .     A
C951   H991    1.084   .     S
C951   C960    1.407   .     A
C951   C953    1.393   .     A
C952   N1080   1.438   .     S
C953   N1157   1.434   1_455 S
C954   H984    1.074   .     S
C954   C956    1.407   .     A
C955   C957    1.408   .     A
C955   H973    1.075   .     S
C956   C961    1.428   .     A
C956   C958    1.418   .     A
C957   C962    1.429   .     A
C957   C960    1.420   .     A
C958   C264    1.400   1_556 S
C959   H992    1.075   .     S
C959   C962    1.415   .     A
C959   C966    1.393   .     A
C961   C965    1.414   .     A
C961   C260    1.422   1_556 S
C963   O1014   1.221   .     D
C963   C970    1.488   .     S
C963   H983    1.084   .     S
C964   H985    1.084   .     S
C964   O1006   1.222   .     D
C965   H993    1.076   .     S
C965   C967    1.392   .     A
C966   N999    1.435   .     S
C967   N1000   1.435   .     S
C967   C258    1.400   1_556 S
C968   H994    1.084   .     S
C969   H995    1.085   .     S
C969   C1172   1.393   .     S
C970   C1017   1.411   .     S
C970   C1202   1.392   .     S
Cu971  O1010   1.951   .     S
Cu971  O1013   1.937   .     S
Cu971  N997    2.016   .     S
Cu971  O1009   1.957   .     S
Cu971  O1005   1.955   .     S
Cu971  Cu1128  2.683   1_455 S
Cu972  O1012   1.937   .     S
Cu972  O1007   1.955   .     S
Cu972  N998    2.016   .     S
Cu972  O1011   1.951   .     S
Cu972  O1008   1.957   .     S
Cu972  Cu1049  2.683   .     S
H975   N999    1.046   .     S
H976   N999    1.044   .     S
H977   N1000   1.044   .     S
H978   N1000   1.046   .     S
H979   N1001   1.044   .     S
H980   N1001   1.045   .     S
H981   N1002   1.045   .     S
H982   N1002   1.046   .     S
H986   N1003   1.045   .     S
H987   N1003   1.046   .     S
H988   N1004   1.045   .     S
H989   N1004   1.045   .     S
N1001  C1031   1.434   .     S
N1002  C1108   1.438   1_455 S
O1005  C1093   1.290   1_455 S
O1007  C1026   1.290   .     S
O1010  C1101   1.296   1_455 S
O1011  C1024   1.294   .     S
C1015  O1086   1.291   .     A
C1015  C1018   1.445   .     S
C1015  O1161   1.290   .     S
C1016  C1042   1.488   .     S
C1017  C1047   1.399   .     A
C1017  C1026   1.445   .     S
C1018  C1046   1.398   .     A
C1018  C1094   1.411   .     S
C1019  N1081   1.429   .     S
C1019  C1021   1.420   .     A
C1019  N1076   1.374   .     A
C1020  N1075   1.374   .     A
C1020  N1082   1.429   .     S
C1020  C1022   1.420   .     A
C1021  N1075   1.363   .     A
C1021  H1074   1.082   .     S
C1022  H1052   1.082   .     S
C1022  N1076   1.363   .     A
C1023  O1090   1.302   .     A
C1023  C1025   1.477   .     S
C1023  O1166   1.296   .     S
C1024  O1091   1.300   .     A
C1024  C1027   1.473   .     S
C1025  C1032   1.398   .     A
C1025  C1030   1.412   .     A
C1026  O1087   1.291   .     A
C1027  C1033   1.397   .     A
C1027  C1031   1.413   .     A
C1028  H1068   1.083   .     S
C1028  C1030   1.400   .     A
C1028  C1036   1.407   .     A
C1029  H1069   1.084   .     S
C1029  C1038   1.407   .     A
C1029  C1031   1.393   .     A
C1030  N1158   1.438   .     S
C1032  H1062   1.074   .     S
C1032  C1034   1.407   .     A
C1033  C1035   1.408   .     A
C1033  H1051   1.075   .     S
C1034  C1039   1.428   .     A
C1034  C1036   1.418   .     A
C1035  C1040   1.429   .     A
C1035  C1038   1.420   .     A
C1036  C342    1.400   1_556 S
C1037  H1070   1.075   .     S
C1037  C1040   1.415   .     A
C1037  C1044   1.393   .     A
C1039  C1043   1.414   .     A
C1039  C338    1.422   1_556 S
C1041  O1092   1.221   .     D
C1041  C1048   1.488   .     S
C1041  H1061   1.084   .     S
C1042  H1063   1.084   .     S
C1042  O1084   1.222   .     D
C1043  H1071   1.076   .     S
C1043  C1045   1.392   .     A
C1044  N1077   1.435   .     S
C1045  N1078   1.435   .     S
C1045  C336    1.400   1_556 S
C1046  H1072   1.084   .     S
C1047  H1073   1.085   .     S
C1047  C1250   1.393   .     S
C1048  C1095   1.411   .     S
C1048  C1280   1.392   .     S
Cu1049 O1088   1.951   .     S
Cu1049 O1091   1.937   .     S
Cu1049 N1075   2.016   .     S
Cu1049 O1087   1.957   .     S
Cu1049 O1083   1.955   .     S
Cu1050 O1090   1.937   .     S
Cu1050 O1085   1.955   .     S
Cu1050 N1076   2.016   .     S
Cu1050 O1089   1.951   .     S
Cu1050 O1086   1.957   .     S
Cu1050 Cu1127  2.683   .     S
H1053  N1077   1.046   .     S
H1054  N1077   1.044   .     S
H1055  N1078   1.044   .     S
H1056  N1078   1.046   .     S
H1057  N1079   1.044   .     S
H1058  N1079   1.045   .     S
H1059  N1080   1.045   .     S
H1060  N1080   1.046   .     S
H1064  N1081   1.045   .     S
H1065  N1081   1.046   .     S
H1066  N1082   1.045   .     S
H1067  N1082   1.045   .     S
N1079  C1109   1.434   .     S
O1085  C1104   1.290   .     S
O1089  C1102   1.294   .     S
C1093  O1164   1.291   .     A
C1093  C1096   1.445   .     S
C1093  O1005   1.290   1_655 S
C1094  C1120   1.488   .     S
C1095  C1125   1.399   .     A
C1095  C1104   1.445   .     S
C1096  C1124   1.398   .     A
C1096  C938    1.411   1_655 S
C1097  N1159   1.429   .     S
C1097  C1099   1.420   .     A
C1097  N1154   1.374   .     A
C1098  N1153   1.374   .     A
C1098  N1160   1.429   .     S
C1098  C1100   1.420   .     A
C1099  N1153   1.363   .     A
C1099  H1152   1.082   .     S
C1100  H1130   1.082   .     S
C1100  N1154   1.363   .     A
C1101  O1168   1.302   .     A
C1101  C1103   1.477   .     S
C1101  O1010   1.296   1_655 S
C1102  O1169   1.300   .     A
C1102  C1105   1.473   .     S
C1103  C1110   1.398   .     A
C1103  C1108   1.412   .     A
C1104  O1165   1.291   .     A
C1105  C1111   1.397   .     A
C1105  C1109   1.413   .     A
C1106  H1146   1.083   .     S
C1106  C1108   1.400   .     A
C1106  C1114   1.407   .     A
C1107  H1147   1.084   .     S
C1107  C1116   1.407   .     A
C1107  C1109   1.393   .     A
C1108  N1002   1.438   1_655 S
C1110  H1140   1.074   .     S
C1110  C1112   1.407   .     A
C1111  C1113   1.408   .     A
C1111  H1129   1.075   .     S
C1112  C1117   1.428   .     A
C1112  C1114   1.418   .     A
C1113  C1118   1.429   .     A
C1113  C1116   1.420   .     A
C1114  C420    1.400   1_556 S
C1115  H1148   1.075   .     S
C1115  C1118   1.415   .     A
C1115  C1122   1.393   .     A
C1117  C1121   1.414   .     A
C1117  C416    1.422   1_556 S
C1119  O1170   1.221   .     D
C1119  C1126   1.488   .     S
C1119  H1139   1.084   .     S
C1120  H1141   1.084   .     S
C1120  O1162   1.222   .     D
C1121  H1149   1.076   .     S
C1121  C1123   1.392   .     A
C1122  N1155   1.435   .     S
C1123  N1156   1.435   .     S
C1123  C414    1.400   1_556 S
C1124  H1150   1.084   .     S
C1125  H1151   1.085   .     S
C1125  C1328   1.393   .     S
C1126  C939    1.411   1_655 S
C1126  C1358   1.392   .     S
Cu1127 O1166   1.951   .     S
Cu1127 O1169   1.937   .     S
Cu1127 N1153   2.016   .     S
Cu1127 O1165   1.957   .     S
Cu1127 O1161   1.955   .     S
Cu1128 O1168   1.937   .     S
Cu1128 O1163   1.955   .     S
Cu1128 N1154   2.016   .     S
Cu1128 O1167   1.951   .     S
Cu1128 O1164   1.957   .     S
Cu1128 Cu971   2.683   1_655 S
H1131  N1155   1.046   .     S
H1132  N1155   1.044   .     S
H1133  N1156   1.044   .     S
H1134  N1156   1.046   .     S
H1135  N1157   1.044   .     S
H1136  N1157   1.045   .     S
H1137  N1158   1.045   .     S
H1138  N1158   1.046   .     S
H1142  N1159   1.045   .     S
H1143  N1159   1.046   .     S
H1144  N1160   1.045   .     S
H1145  N1160   1.045   .     S
N1157  C953    1.434   1_655 S
O1163  C948    1.290   1_655 S
O1167  C946    1.294   1_655 S
C1171  O1242   1.291   .     A
C1171  C1174   1.445   .     S
C1171  O1317   1.290   .     S
C1172  C1198   1.488   .     S
C1172  C1330   1.411   1_455 S
C1173  C1203   1.399   .     A
C1173  C1182   1.445   .     S
C1173  C1360   1.411   1_455 S
C1174  C1202   1.398   .     A
C1174  C1250   1.411   .     S
C1175  N1237   1.429   .     S
C1175  C1177   1.420   .     A
C1175  N1232   1.374   .     A
C1176  N1231   1.374   .     A
C1176  N1238   1.429   .     S
C1176  C1178   1.420   .     A
C1177  N1231   1.363   .     A
C1177  H1230   1.082   .     S
C1178  H1208   1.082   .     S
C1178  N1232   1.363   .     A
C1179  O1246   1.302   .     A
C1179  C1181   1.477   .     S
C1179  O1322   1.296   .     S
C1180  O1247   1.300   .     A
C1180  C1183   1.473   .     S
C1180  O1401   1.294   1_455 S
C1181  C1188   1.398   .     A
C1181  C1186   1.412   .     A
C1182  O1243   1.291   .     A
C1182  O1397   1.290   1_455 S
C1183  C1189   1.397   .     A
C1183  C1187   1.413   .     A
C1184  H1224   1.083   .     S
C1184  C1186   1.400   .     A
C1184  C1192   1.407   .     A
C1185  H1225   1.084   .     S
C1185  C1194   1.407   .     A
C1185  C1187   1.393   .     A
C1186  N1314   1.438   .     S
C1187  N1391   1.434   1_455 S
C1188  H1218   1.074   .     S
C1188  C1190   1.407   .     A
C1189  C1191   1.408   .     A
C1189  H1207   1.075   .     S
C1190  C1195   1.428   .     A
C1190  C1192   1.418   .     A
C1191  C1196   1.429   .     A
C1191  C1194   1.420   .     A
C1192  C498    1.400   1_556 S
C1193  H1226   1.075   .     S
C1193  C1196   1.415   .     A
C1193  C1200   1.393   .     A
C1195  C1199   1.414   .     A
C1195  C494    1.422   1_556 S
C1197  O1248   1.221   .     D
C1197  C1204   1.488   .     S
C1197  H1217   1.084   .     S
C1198  H1219   1.084   .     S
C1198  O1240   1.222   .     D
C1199  H1227   1.076   .     S
C1199  C1201   1.392   .     A
C1200  N1233   1.435   .     S
C1201  N1234   1.435   .     S
C1201  C492    1.400   1_556 S
C1202  H1228   1.084   .     S
C1203  H1229   1.085   .     S
C1203  C704    1.393   1_565 S
C1204  C1251   1.411   .     S
C1204  C734    1.392   1_565 S
Cu1205 O1244   1.951   .     S
Cu1205 O1247   1.937   .     S
Cu1205 N1231   2.016   .     S
Cu1205 O1243   1.957   .     S
Cu1205 O1239   1.955   .     S
Cu1205 Cu1362  2.683   1_455 S
Cu1206 O1246   1.937   .     S
Cu1206 O1241   1.955   .     S
Cu1206 N1232   2.016   .     S
Cu1206 O1245   1.951   .     S
Cu1206 O1242   1.957   .     S
Cu1206 Cu1283  2.683   .     S
H1209  N1233   1.046   .     S
H1210  N1233   1.044   .     S
H1211  N1234   1.044   .     S
H1212  N1234   1.046   .     S
H1213  N1235   1.044   .     S
H1214  N1235   1.045   .     S
H1215  N1236   1.045   .     S
H1216  N1236   1.046   .     S
H1220  N1237   1.045   .     S
H1221  N1237   1.046   .     S
H1222  N1238   1.045   .     S
H1223  N1238   1.045   .     S
N1235  C1265   1.434   .     S
N1236  C1342   1.438   1_455 S
O1239  C1327   1.290   1_455 S
O1241  C1260   1.290   .     S
O1244  C1335   1.296   1_455 S
O1245  C1258   1.294   .     S
C1249  O1320   1.291   .     A
C1249  C1252   1.445   .     S
C1249  O1395   1.290   .     S
C1250  C1276   1.488   .     S
C1251  C1281   1.399   .     A
C1251  C1260   1.445   .     S
C1252  C1280   1.398   .     A
C1252  C1328   1.411   .     S
C1253  N1315   1.429   .     S
C1253  C1255   1.420   .     A
C1253  N1310   1.374   .     A
C1254  N1309   1.374   .     A
C1254  N1316   1.429   .     S
C1254  C1256   1.420   .     A
C1255  N1309   1.363   .     A
C1255  H1308   1.082   .     S
C1256  H1286   1.082   .     S
C1256  N1310   1.363   .     A
C1257  O1324   1.302   .     A
C1257  C1259   1.477   .     S
C1257  O1400   1.296   .     S
C1258  O1325   1.300   .     A
C1258  C1261   1.473   .     S
C1259  C1266   1.398   .     A
C1259  C1264   1.412   .     A
C1260  O1321   1.291   .     A
C1261  C1267   1.397   .     A
C1261  C1265   1.413   .     A
C1262  H1302   1.083   .     S
C1262  C1264   1.400   .     A
C1262  C1270   1.407   .     A
C1263  H1303   1.084   .     S
C1263  C1272   1.407   .     A
C1263  C1265   1.393   .     A
C1264  N1392   1.438   .     S
C1266  H1296   1.074   .     S
C1266  C1268   1.407   .     A
C1267  C1269   1.408   .     A
C1267  H1285   1.075   .     S
C1268  C1273   1.428   .     A
C1268  C1270   1.418   .     A
C1269  C1274   1.429   .     A
C1269  C1272   1.420   .     A
C1270  C576    1.400   1_556 S
C1271  H1304   1.075   .     S
C1271  C1274   1.415   .     A
C1271  C1278   1.393   .     A
C1273  C1277   1.414   .     A
C1273  C572    1.422   1_556 S
C1275  O1326   1.221   .     D
C1275  C1282   1.488   .     S
C1275  H1295   1.084   .     S
C1276  H1297   1.084   .     S
C1276  O1318   1.222   .     D
C1277  H1305   1.076   .     S
C1277  C1279   1.392   .     A
C1278  N1311   1.435   .     S
C1279  N1312   1.435   .     S
C1279  C570    1.400   1_556 S
C1280  H1306   1.084   .     S
C1281  H1307   1.085   .     S
C1281  C782    1.393   1_565 S
C1282  C1329   1.411   .     S
C1282  C812    1.392   1_565 S
Cu1283 O1322   1.951   .     S
Cu1283 O1325   1.937   .     S
Cu1283 N1309   2.016   .     S
Cu1283 O1321   1.957   .     S
Cu1283 O1317   1.955   .     S
Cu1284 O1324   1.937   .     S
Cu1284 O1319   1.955   .     S
Cu1284 N1310   2.016   .     S
Cu1284 O1323   1.951   .     S
Cu1284 O1320   1.957   .     S
Cu1284 Cu1361  2.683   .     S
H1287  N1311   1.046   .     S
H1288  N1311   1.044   .     S
H1289  N1312   1.044   .     S
H1290  N1312   1.046   .     S
H1291  N1313   1.044   .     S
H1292  N1313   1.045   .     S
H1293  N1314   1.045   .     S
H1294  N1314   1.046   .     S
H1298  N1315   1.045   .     S
H1299  N1315   1.046   .     S
H1300  N1316   1.045   .     S
H1301  N1316   1.045   .     S
N1313  C1343   1.434   .     S
O1319  C1338   1.290   .     S
O1323  C1336   1.294   .     S
C1327  O1398   1.291   .     A
C1327  C1330   1.445   .     S
C1327  O1239   1.290   1_655 S
C1328  C1354   1.488   .     S
C1329  C1359   1.399   .     A
C1329  C1338   1.445   .     S
C1330  C1358   1.398   .     A
C1330  C1172   1.411   1_655 S
C1331  N1393   1.429   .     S
C1331  C1333   1.420   .     A
C1331  N1388   1.374   .     A
C1332  N1387   1.374   .     A
C1332  N1394   1.429   .     S
C1332  C1334   1.420   .     A
C1333  N1387   1.363   .     A
C1333  H1386   1.082   .     S
C1334  H1364   1.082   .     S
C1334  N1388   1.363   .     A
C1335  O1402   1.302   .     A
C1335  C1337   1.477   .     S
C1335  O1244   1.296   1_655 S
C1336  O1403   1.300   .     A
C1336  C1339   1.473   .     S
C1337  C1344   1.398   .     A
C1337  C1342   1.412   .     A
C1338  O1399   1.291   .     A
C1339  C1345   1.397   .     A
C1339  C1343   1.413   .     A
C1340  H1380   1.083   .     S
C1340  C1342   1.400   .     A
C1340  C1348   1.407   .     A
C1341  H1381   1.084   .     S
C1341  C1350   1.407   .     A
C1341  C1343   1.393   .     A
C1342  N1236   1.438   1_655 S
C1344  H1374   1.074   .     S
C1344  C1346   1.407   .     A
C1345  C1347   1.408   .     A
C1345  H1363   1.075   .     S
C1346  C1351   1.428   .     A
C1346  C1348   1.418   .     A
C1347  C1352   1.429   .     A
C1347  C1350   1.420   .     A
C1348  C654    1.400   1_556 S
C1349  H1382   1.075   .     S
C1349  C1352   1.415   .     A
C1349  C1356   1.393   .     A
C1351  C1355   1.414   .     A
C1351  C650    1.422   1_556 S
C1353  O1404   1.221   .     D
C1353  C1360   1.488   .     S
C1353  H1373   1.084   .     S
C1354  H1375   1.084   .     S
C1354  O1396   1.222   .     D
C1355  H1383   1.076   .     S
C1355  C1357   1.392   .     A
C1356  N1389   1.435   .     S
C1357  N1390   1.435   .     S
C1357  C648    1.400   1_556 S
C1358  H1384   1.084   .     S
C1359  H1385   1.085   .     S
C1359  C860    1.393   1_565 S
C1360  C1173   1.411   1_655 S
C1360  C890    1.392   1_565 S
Cu1361 O1400   1.951   .     S
Cu1361 O1403   1.937   .     S
Cu1361 N1387   2.016   .     S
Cu1361 O1399   1.957   .     S
Cu1361 O1395   1.955   .     S
Cu1362 O1402   1.937   .     S
Cu1362 O1397   1.955   .     S
Cu1362 N1388   2.016   .     S
Cu1362 O1401   1.951   .     S
Cu1362 O1398   1.957   .     S
Cu1362 Cu1205  2.683   1_655 S
H1365  N1389   1.046   .     S
H1366  N1389   1.044   .     S
H1367  N1390   1.044   .     S
H1368  N1390   1.046   .     S
H1369  N1391   1.044   .     S
H1370  N1391   1.045   .     S
H1371  N1392   1.045   .     S
H1372  N1392   1.046   .     S
H1376  N1393   1.045   .     S
H1377  N1393   1.046   .     S
H1378  N1394   1.045   .     S
H1379  N1394   1.045   .     S
N1391  C1187   1.434   1_655 S
O1397  C1182   1.290   1_655 S
O1401  C1180   1.294   1_655 S
