data_str_m2_o1_o17_pcu_sym.31
_audit_creation_date              2020-01-03
_audit_creation_method            'Materials Studio'
_symmetry_space_group_name_H-M    'P1'
_symmetry_Int_Tables_number       1
_symmetry_cell_setting            triclinic
loop_
_symmetry_equiv_pos_as_xyz
  x,y,z
_cell_length_a                    32.5668
_cell_length_b                    28.6634
_cell_length_c                    30.0375
_cell_angle_alpha                 90.4199
_cell_angle_beta                  90.1717
_cell_angle_gamma                 90.4324
loop_
_atom_site_label
_atom_site_type_symbol
_atom_site_fract_x
_atom_site_fract_y
_atom_site_fract_z
_atom_site_U_iso_or_equiv
_atom_site_adp_type
_atom_site_occupancy
C1     C     0.08753   0.16664   0.24942   0.00000  Uiso   1.00
C2     C     0.04286   0.16698   0.24933   0.00000  Uiso   1.00
C3     C     0.14378   0.02423   0.21983   0.00000  Uiso   1.00
C4     C     0.18955   0.30910   0.28017   0.00000  Uiso   1.00
C5     C     0.18976   0.02521   0.28005   0.00000  Uiso   1.00
C6     C     0.14358   0.30812   0.21995   0.00000  Uiso   1.00
C7     C     0.16664   0.16659   0.16454   0.00000  Uiso   1.00
C8     C     0.16669   0.16675   0.33546   0.00000  Uiso   1.00
C9     C     0.20382   0.16009   0.40637   0.00000  Uiso   1.00
C10    C     0.12951   0.17324   0.09363   0.00000  Uiso   1.00
C11    C     0.16690   0.16672   0.38362   0.00000  Uiso   1.00
C12    C     0.24580   0.16669   0.25058   0.00000  Uiso   1.00
C13    C     0.16643   0.16661   0.11638   0.00000  Uiso   1.00
C14    C     0.13006   0.17198   0.40643   0.00000  Uiso   1.00
C15    C     0.20327   0.16135   0.09358   0.00000  Uiso   1.00
C16    C     0.12979   0.17216   0.45286   0.00000  Uiso   1.00
C17    C     0.20354   0.16117   0.04714   0.00000  Uiso   1.00
C18    C     0.16697   0.16655   0.47654   0.00000  Uiso   1.00
C19    C     0.16636   0.16678   0.02346   0.00000  Uiso   1.00
C20    C     0.20461   0.16049   0.45330   0.00000  Uiso   1.00
C21    C     0.12872   0.17284   0.04670   0.00000  Uiso   1.00
C22    C     0.09281   0.17780   0.47577   0.00000  Uiso   1.00
C23    C     0.09183   0.17820   0.02216   0.00000  Uiso   1.00
C24    C     0.24052   0.15553   0.02423   0.00000  Uiso   1.00
C25    C     0.05217   0.18374   0.04298   0.00000  Uiso   1.00
C26    C     0.28116   0.14958   0.45702   0.00000  Uiso   1.00
C27    C     0.04195   0.11437   0.18297   0.00000  Uiso   1.00
C28    C     0.29138   0.21895   0.31703   0.00000  Uiso   1.00
C29    C     0.28913   0.10694   0.18954   0.00000  Uiso   1.00
C30    C     0.04420   0.22637   0.31047   0.00000  Uiso   1.00
C31    C     0.24150   0.15513   0.47785   0.00000  Uiso   1.00
C32    C     0.02097   0.13904   0.21849   0.00000  Uiso   1.00
C33    C     0.31237   0.19429   0.28151   0.00000  Uiso   1.00
C34    C     0.31141   0.13785   0.21983   0.00000  Uiso   1.00
C35    C     0.02192   0.19548   0.28016   0.00000  Uiso   1.00
C36    C     0.29048   0.16635   0.25067   0.00000  Uiso   1.00
Cu37   Cu    0.16667   0.21355   0.25000   0.00000  Uiso   1.00
Cu38   Cu    0.16667   0.11978   0.25000   0.00000  Uiso   1.00
F39    F     0.23835   0.15278   0.38212   0.00000  Uiso   1.00
F40    F     0.09498   0.18054   0.11788   0.00000  Uiso   1.00
F41    F     0.09439   0.17564   0.38319   0.00000  Uiso   1.00
F42    F     0.23894   0.15768   0.11681   0.00000  Uiso   1.00
F43    F     0.12121   0.04672   0.18906   0.00000  Uiso   1.00
F44    F     0.21213   0.28662   0.31094   0.00000  Uiso   1.00
F45    F     0.21337   0.04870   0.31006   0.00000  Uiso   1.00
F46    F     0.11996   0.28463   0.18994   0.00000  Uiso   1.00
H47    H     0.06434   0.18202   0.45745   0.00000  Uiso   1.00
H48    H     0.26899   0.15131   0.04255   0.00000  Uiso   1.00
N49    N     0.16667   0.28402   0.25000   0.00000  Uiso   1.00
N50    N     0.16667   0.04931   0.25000   0.00000  Uiso   1.00
N51    N     0.02036   0.18817   0.05951   0.00000  Uiso   1.00
N52    N     0.31297   0.14516   0.44049   0.00000  Uiso   1.00
N53    N     0.05797   0.09491   0.15406   0.00000  Uiso   1.00
N54    N     0.27536   0.23841   0.34595   0.00000  Uiso   1.00
N55    N     0.27157   0.08192   0.16566   0.00000  Uiso   1.00
N56    N     0.06176   0.25138   0.33436   0.00000  Uiso   1.00
O57    O     0.10655   0.20625   0.25000   0.00000  Uiso   1.00
O58    O     0.22679   0.12709   0.25001   0.00000  Uiso   1.00
O59    O     0.22679   0.20625   0.25001   0.00000  Uiso   1.00
O60    O     0.10655   0.12709   0.25000   0.00000  Uiso   1.00
O61    O     0.16666   0.20627   0.18513   0.00000  Uiso   1.00
O62    O     0.16668   0.12707   0.31487   0.00000  Uiso   1.00
O63    O     0.16668   0.20627   0.31487   0.00000  Uiso   1.00
O64    O     0.16666   0.12707   0.18513   0.00000  Uiso   1.00
C65    C     0.42086   0.16664   0.24942   0.00000  Uiso   1.00
C66    C     0.37619   0.16698   0.24933   0.00000  Uiso   1.00
C67    C     0.47712   0.02423   0.21983   0.00000  Uiso   1.00
C68    C     0.52288   0.30910   0.28017   0.00000  Uiso   1.00
C69    C     0.52309   0.02521   0.28005   0.00000  Uiso   1.00
C70    C     0.47691   0.30812   0.21995   0.00000  Uiso   1.00
C71    C     0.49997   0.16659   0.16454   0.00000  Uiso   1.00
C72    C     0.50002   0.16675   0.33546   0.00000  Uiso   1.00
C73    C     0.53715   0.16009   0.40637   0.00000  Uiso   1.00
C74    C     0.46285   0.17324   0.09363   0.00000  Uiso   1.00
C75    C     0.50024   0.16672   0.38362   0.00000  Uiso   1.00
C76    C     0.57914   0.16669   0.25058   0.00000  Uiso   1.00
C77    C     0.49976   0.16661   0.11638   0.00000  Uiso   1.00
C78    C     0.46339   0.17198   0.40643   0.00000  Uiso   1.00
C79    C     0.53661   0.16135   0.09358   0.00000  Uiso   1.00
C80    C     0.46313   0.17216   0.45286   0.00000  Uiso   1.00
C81    C     0.53687   0.16117   0.04714   0.00000  Uiso   1.00
C82    C     0.50030   0.16655   0.47654   0.00000  Uiso   1.00
C83    C     0.49969   0.16678   0.02346   0.00000  Uiso   1.00
C84    C     0.53794   0.16049   0.45330   0.00000  Uiso   1.00
C85    C     0.46205   0.17284   0.04670   0.00000  Uiso   1.00
C86    C     0.42614   0.17780   0.47577   0.00000  Uiso   1.00
C87    C     0.42516   0.17820   0.02216   0.00000  Uiso   1.00
C88    C     0.57385   0.15553   0.02423   0.00000  Uiso   1.00
C89    C     0.38550   0.18374   0.04298   0.00000  Uiso   1.00
C90    C     0.61450   0.14958   0.45702   0.00000  Uiso   1.00
C91    C     0.37528   0.11437   0.18297   0.00000  Uiso   1.00
C92    C     0.62472   0.21895   0.31703   0.00000  Uiso   1.00
C93    C     0.62247   0.10694   0.18954   0.00000  Uiso   1.00
C94    C     0.37753   0.22637   0.31047   0.00000  Uiso   1.00
C95    C     0.57484   0.15513   0.47785   0.00000  Uiso   1.00
C96    C     0.35430   0.13904   0.21849   0.00000  Uiso   1.00
C97    C     0.64570   0.19429   0.28151   0.00000  Uiso   1.00
C98    C     0.64475   0.13785   0.21983   0.00000  Uiso   1.00
C99    C     0.35525   0.19548   0.28016   0.00000  Uiso   1.00
C100   C     0.62381   0.16635   0.25067   0.00000  Uiso   1.00
Cu101  Cu    0.50000   0.21355   0.25000   0.00000  Uiso   1.00
Cu102  Cu    0.50000   0.11978   0.25000   0.00000  Uiso   1.00
F103   F     0.57169   0.15278   0.38212   0.00000  Uiso   1.00
F104   F     0.42831   0.18054   0.11788   0.00000  Uiso   1.00
F105   F     0.42772   0.17564   0.38319   0.00000  Uiso   1.00
F106   F     0.57228   0.15768   0.11681   0.00000  Uiso   1.00
F107   F     0.45455   0.04672   0.18906   0.00000  Uiso   1.00
F108   F     0.54546   0.28662   0.31094   0.00000  Uiso   1.00
F109   F     0.54670   0.04870   0.31006   0.00000  Uiso   1.00
F110   F     0.45330   0.28463   0.18994   0.00000  Uiso   1.00
H111   H     0.39767   0.18202   0.45745   0.00000  Uiso   1.00
H112   H     0.60233   0.15131   0.04255   0.00000  Uiso   1.00
N113   N     0.50000   0.28402   0.25000   0.00000  Uiso   1.00
N114   N     0.50000   0.04931   0.25000   0.00000  Uiso   1.00
N115   N     0.35369   0.18817   0.05951   0.00000  Uiso   1.00
N116   N     0.64630   0.14516   0.44049   0.00000  Uiso   1.00
N117   N     0.39131   0.09491   0.15406   0.00000  Uiso   1.00
N118   N     0.60869   0.23841   0.34595   0.00000  Uiso   1.00
N119   N     0.60490   0.08192   0.16566   0.00000  Uiso   1.00
N120   N     0.39510   0.25138   0.33436   0.00000  Uiso   1.00
O121   O     0.43988   0.20625   0.25000   0.00000  Uiso   1.00
O122   O     0.56012   0.12709   0.25001   0.00000  Uiso   1.00
O123   O     0.56012   0.20625   0.25001   0.00000  Uiso   1.00
O124   O     0.43988   0.12709   0.25000   0.00000  Uiso   1.00
O125   O     0.49999   0.20627   0.18513   0.00000  Uiso   1.00
O126   O     0.50001   0.12707   0.31487   0.00000  Uiso   1.00
O127   O     0.50001   0.20627   0.31487   0.00000  Uiso   1.00
O128   O     0.49999   0.12707   0.18513   0.00000  Uiso   1.00
C129   C     0.75420   0.16664   0.24942   0.00000  Uiso   1.00
C130   C     0.70952   0.16698   0.24933   0.00000  Uiso   1.00
C131   C     0.81045   0.02423   0.21983   0.00000  Uiso   1.00
C132   C     0.85622   0.30910   0.28017   0.00000  Uiso   1.00
C133   C     0.85642   0.02521   0.28005   0.00000  Uiso   1.00
C134   C     0.81024   0.30812   0.21995   0.00000  Uiso   1.00
C135   C     0.83331   0.16659   0.16454   0.00000  Uiso   1.00
C136   C     0.83336   0.16675   0.33546   0.00000  Uiso   1.00
C137   C     0.87048   0.16009   0.40637   0.00000  Uiso   1.00
C138   C     0.79618   0.17324   0.09363   0.00000  Uiso   1.00
C139   C     0.83357   0.16672   0.38362   0.00000  Uiso   1.00
C140   C     0.91247   0.16669   0.25058   0.00000  Uiso   1.00
C141   C     0.83309   0.16661   0.11638   0.00000  Uiso   1.00
C142   C     0.79672   0.17198   0.40643   0.00000  Uiso   1.00
C143   C     0.86994   0.16135   0.09358   0.00000  Uiso   1.00
C144   C     0.79646   0.17216   0.45286   0.00000  Uiso   1.00
C145   C     0.87020   0.16117   0.04714   0.00000  Uiso   1.00
C146   C     0.83364   0.16655   0.47654   0.00000  Uiso   1.00
C147   C     0.83303   0.16678   0.02346   0.00000  Uiso   1.00
C148   C     0.87128   0.16049   0.45330   0.00000  Uiso   1.00
C149   C     0.79539   0.17284   0.04670   0.00000  Uiso   1.00
C150   C     0.75948   0.17780   0.47577   0.00000  Uiso   1.00
C151   C     0.75849   0.17820   0.02216   0.00000  Uiso   1.00
C152   C     0.90719   0.15553   0.02423   0.00000  Uiso   1.00
C153   C     0.71883   0.18374   0.04298   0.00000  Uiso   1.00
C154   C     0.94783   0.14958   0.45702   0.00000  Uiso   1.00
C155   C     0.70862   0.11437   0.18297   0.00000  Uiso   1.00
C156   C     0.95805   0.21895   0.31703   0.00000  Uiso   1.00
C157   C     0.95580   0.10694   0.18954   0.00000  Uiso   1.00
C158   C     0.71087   0.22637   0.31047   0.00000  Uiso   1.00
C159   C     0.90817   0.15513   0.47785   0.00000  Uiso   1.00
C160   C     0.68763   0.13904   0.21849   0.00000  Uiso   1.00
C161   C     0.97903   0.19429   0.28151   0.00000  Uiso   1.00
C162   C     0.97808   0.13785   0.21983   0.00000  Uiso   1.00
C163   C     0.68858   0.19548   0.28016   0.00000  Uiso   1.00
C164   C     0.95714   0.16635   0.25067   0.00000  Uiso   1.00
Cu165  Cu    0.83333   0.21355   0.25000   0.00000  Uiso   1.00
Cu166  Cu    0.83333   0.11978   0.25000   0.00000  Uiso   1.00
F167   F     0.90502   0.15278   0.38212   0.00000  Uiso   1.00
F168   F     0.76164   0.18054   0.11788   0.00000  Uiso   1.00
F169   F     0.76105   0.17564   0.38319   0.00000  Uiso   1.00
F170   F     0.90561   0.15768   0.11681   0.00000  Uiso   1.00
F171   F     0.78788   0.04672   0.18906   0.00000  Uiso   1.00
F172   F     0.87879   0.28662   0.31094   0.00000  Uiso   1.00
F173   F     0.88004   0.04870   0.31006   0.00000  Uiso   1.00
F174   F     0.78663   0.28463   0.18994   0.00000  Uiso   1.00
H175   H     0.73100   0.18202   0.45745   0.00000  Uiso   1.00
H176   H     0.93566   0.15131   0.04255   0.00000  Uiso   1.00
N177   N     0.83333   0.28402   0.25000   0.00000  Uiso   1.00
N178   N     0.83333   0.04931   0.25000   0.00000  Uiso   1.00
N179   N     0.68702   0.18817   0.05951   0.00000  Uiso   1.00
N180   N     0.97964   0.14516   0.44049   0.00000  Uiso   1.00
N181   N     0.72464   0.09491   0.15406   0.00000  Uiso   1.00
N182   N     0.94202   0.23841   0.34595   0.00000  Uiso   1.00
N183   N     0.93823   0.08192   0.16566   0.00000  Uiso   1.00
N184   N     0.72843   0.25138   0.33436   0.00000  Uiso   1.00
O185   O     0.77321   0.20625   0.25000   0.00000  Uiso   1.00
O186   O     0.89345   0.12709   0.25001   0.00000  Uiso   1.00
O187   O     0.89345   0.20625   0.25001   0.00000  Uiso   1.00
O188   O     0.77321   0.12709   0.25000   0.00000  Uiso   1.00
O189   O     0.83332   0.20627   0.18513   0.00000  Uiso   1.00
O190   O     0.83334   0.12707   0.31487   0.00000  Uiso   1.00
O191   O     0.83334   0.20627   0.31487   0.00000  Uiso   1.00
O192   O     0.83332   0.12707   0.18513   0.00000  Uiso   1.00
C193   C     0.08753   0.49998   0.24942   0.00000  Uiso   1.00
C194   C     0.04286   0.50032   0.24933   0.00000  Uiso   1.00
C195   C     0.14378   0.35756   0.21983   0.00000  Uiso   1.00
C196   C     0.18955   0.64244   0.28017   0.00000  Uiso   1.00
C197   C     0.18976   0.35855   0.28005   0.00000  Uiso   1.00
C198   C     0.14358   0.64145   0.21995   0.00000  Uiso   1.00
C199   C     0.16664   0.49992   0.16454   0.00000  Uiso   1.00
C200   C     0.16669   0.50008   0.33546   0.00000  Uiso   1.00
C201   C     0.20382   0.49343   0.40637   0.00000  Uiso   1.00
C202   C     0.12951   0.50657   0.09363   0.00000  Uiso   1.00
C203   C     0.16690   0.50006   0.38362   0.00000  Uiso   1.00
C204   C     0.24580   0.50002   0.25058   0.00000  Uiso   1.00
C205   C     0.16643   0.49994   0.11638   0.00000  Uiso   1.00
C206   C     0.13006   0.50532   0.40643   0.00000  Uiso   1.00
C207   C     0.20327   0.49468   0.09358   0.00000  Uiso   1.00
C208   C     0.12979   0.50549   0.45286   0.00000  Uiso   1.00
C209   C     0.20354   0.49450   0.04714   0.00000  Uiso   1.00
C210   C     0.16697   0.49988   0.47654   0.00000  Uiso   1.00
C211   C     0.16636   0.50012   0.02346   0.00000  Uiso   1.00
C212   C     0.20461   0.49382   0.45330   0.00000  Uiso   1.00
C213   C     0.12872   0.50617   0.04670   0.00000  Uiso   1.00
C214   C     0.09281   0.51113   0.47577   0.00000  Uiso   1.00
C215   C     0.09183   0.51153   0.02216   0.00000  Uiso   1.00
C216   C     0.24052   0.48886   0.02423   0.00000  Uiso   1.00
C217   C     0.05217   0.51708   0.04298   0.00000  Uiso   1.00
C218   C     0.28116   0.48292   0.45702   0.00000  Uiso   1.00
C219   C     0.04195   0.44770   0.18297   0.00000  Uiso   1.00
C220   C     0.29138   0.55229   0.31703   0.00000  Uiso   1.00
C221   C     0.28913   0.44027   0.18954   0.00000  Uiso   1.00
C222   C     0.04420   0.55971   0.31047   0.00000  Uiso   1.00
C223   C     0.24150   0.48846   0.47785   0.00000  Uiso   1.00
C224   C     0.02097   0.47237   0.21849   0.00000  Uiso   1.00
C225   C     0.31237   0.52763   0.28151   0.00000  Uiso   1.00
C226   C     0.31141   0.47118   0.21983   0.00000  Uiso   1.00
C227   C     0.02192   0.52882   0.28016   0.00000  Uiso   1.00
C228   C     0.29048   0.49968   0.25067   0.00000  Uiso   1.00
Cu229  Cu    0.16667   0.54689   0.25000   0.00000  Uiso   1.00
Cu230  Cu    0.16667   0.45311   0.25000   0.00000  Uiso   1.00
F231   F     0.23835   0.48612   0.38212   0.00000  Uiso   1.00
F232   F     0.09498   0.51387   0.11788   0.00000  Uiso   1.00
F233   F     0.09439   0.50898   0.38319   0.00000  Uiso   1.00
F234   F     0.23894   0.49102   0.11681   0.00000  Uiso   1.00
F235   F     0.12121   0.38005   0.18906   0.00000  Uiso   1.00
F236   F     0.21213   0.61995   0.31094   0.00000  Uiso   1.00
F237   F     0.21337   0.38204   0.31006   0.00000  Uiso   1.00
F238   F     0.11996   0.61796   0.18994   0.00000  Uiso   1.00
H239   H     0.06434   0.51536   0.45745   0.00000  Uiso   1.00
H240   H     0.26899   0.48464   0.04255   0.00000  Uiso   1.00
N241   N     0.16667   0.61736   0.25000   0.00000  Uiso   1.00
N242   N     0.16667   0.38264   0.25000   0.00000  Uiso   1.00
N243   N     0.02036   0.52150   0.05951   0.00000  Uiso   1.00
N244   N     0.31297   0.47850   0.44049   0.00000  Uiso   1.00
N245   N     0.05797   0.42824   0.15406   0.00000  Uiso   1.00
N246   N     0.27536   0.57174   0.34595   0.00000  Uiso   1.00
N247   N     0.27157   0.41526   0.16566   0.00000  Uiso   1.00
N248   N     0.06176   0.58471   0.33436   0.00000  Uiso   1.00
O249   O     0.10655   0.53958   0.25000   0.00000  Uiso   1.00
O250   O     0.22679   0.46042   0.25001   0.00000  Uiso   1.00
O251   O     0.22679   0.53958   0.25001   0.00000  Uiso   1.00
O252   O     0.10655   0.46042   0.25000   0.00000  Uiso   1.00
O253   O     0.16666   0.53960   0.18513   0.00000  Uiso   1.00
O254   O     0.16668   0.46040   0.31487   0.00000  Uiso   1.00
O255   O     0.16668   0.53960   0.31487   0.00000  Uiso   1.00
O256   O     0.16666   0.46040   0.18513   0.00000  Uiso   1.00
C257   C     0.42086   0.49998   0.24942   0.00000  Uiso   1.00
C258   C     0.37619   0.50032   0.24933   0.00000  Uiso   1.00
C259   C     0.47712   0.35756   0.21983   0.00000  Uiso   1.00
C260   C     0.52288   0.64244   0.28017   0.00000  Uiso   1.00
C261   C     0.52309   0.35855   0.28005   0.00000  Uiso   1.00
C262   C     0.47691   0.64145   0.21995   0.00000  Uiso   1.00
C263   C     0.49997   0.49992   0.16454   0.00000  Uiso   1.00
C264   C     0.50002   0.50008   0.33546   0.00000  Uiso   1.00
C265   C     0.53715   0.49343   0.40637   0.00000  Uiso   1.00
C266   C     0.46285   0.50657   0.09363   0.00000  Uiso   1.00
C267   C     0.50024   0.50006   0.38362   0.00000  Uiso   1.00
C268   C     0.57914   0.50002   0.25058   0.00000  Uiso   1.00
C269   C     0.49976   0.49994   0.11638   0.00000  Uiso   1.00
C270   C     0.46339   0.50532   0.40643   0.00000  Uiso   1.00
C271   C     0.53661   0.49468   0.09358   0.00000  Uiso   1.00
C272   C     0.46313   0.50549   0.45286   0.00000  Uiso   1.00
C273   C     0.53687   0.49450   0.04714   0.00000  Uiso   1.00
C274   C     0.50030   0.49988   0.47654   0.00000  Uiso   1.00
C275   C     0.49969   0.50012   0.02346   0.00000  Uiso   1.00
C276   C     0.53794   0.49382   0.45330   0.00000  Uiso   1.00
C277   C     0.46205   0.50617   0.04670   0.00000  Uiso   1.00
C278   C     0.42614   0.51113   0.47577   0.00000  Uiso   1.00
C279   C     0.42516   0.51153   0.02216   0.00000  Uiso   1.00
C280   C     0.57385   0.48886   0.02423   0.00000  Uiso   1.00
C281   C     0.38550   0.51708   0.04298   0.00000  Uiso   1.00
C282   C     0.61450   0.48292   0.45702   0.00000  Uiso   1.00
C283   C     0.37528   0.44770   0.18297   0.00000  Uiso   1.00
C284   C     0.62472   0.55229   0.31703   0.00000  Uiso   1.00
C285   C     0.62247   0.44027   0.18954   0.00000  Uiso   1.00
C286   C     0.37753   0.55971   0.31047   0.00000  Uiso   1.00
C287   C     0.57484   0.48846   0.47785   0.00000  Uiso   1.00
C288   C     0.35430   0.47237   0.21849   0.00000  Uiso   1.00
C289   C     0.64570   0.52763   0.28151   0.00000  Uiso   1.00
C290   C     0.64475   0.47118   0.21983   0.00000  Uiso   1.00
C291   C     0.35525   0.52882   0.28016   0.00000  Uiso   1.00
C292   C     0.62381   0.49968   0.25067   0.00000  Uiso   1.00
Cu293  Cu    0.50000   0.54689   0.25000   0.00000  Uiso   1.00
Cu294  Cu    0.50000   0.45311   0.25000   0.00000  Uiso   1.00
F295   F     0.57169   0.48612   0.38212   0.00000  Uiso   1.00
F296   F     0.42831   0.51387   0.11788   0.00000  Uiso   1.00
F297   F     0.42772   0.50898   0.38319   0.00000  Uiso   1.00
F298   F     0.57228   0.49102   0.11681   0.00000  Uiso   1.00
F299   F     0.45455   0.38005   0.18906   0.00000  Uiso   1.00
F300   F     0.54546   0.61995   0.31094   0.00000  Uiso   1.00
F301   F     0.54670   0.38204   0.31006   0.00000  Uiso   1.00
F302   F     0.45330   0.61796   0.18994   0.00000  Uiso   1.00
H303   H     0.39767   0.51536   0.45745   0.00000  Uiso   1.00
H304   H     0.60233   0.48464   0.04255   0.00000  Uiso   1.00
N305   N     0.50000   0.61736   0.25000   0.00000  Uiso   1.00
N306   N     0.50000   0.38264   0.25000   0.00000  Uiso   1.00
N307   N     0.35369   0.52150   0.05951   0.00000  Uiso   1.00
N308   N     0.64630   0.47850   0.44049   0.00000  Uiso   1.00
N309   N     0.39131   0.42824   0.15406   0.00000  Uiso   1.00
N310   N     0.60869   0.57174   0.34595   0.00000  Uiso   1.00
N311   N     0.60490   0.41526   0.16566   0.00000  Uiso   1.00
N312   N     0.39510   0.58471   0.33436   0.00000  Uiso   1.00
O313   O     0.43988   0.53958   0.25000   0.00000  Uiso   1.00
O314   O     0.56012   0.46042   0.25001   0.00000  Uiso   1.00
O315   O     0.56012   0.53958   0.25001   0.00000  Uiso   1.00
O316   O     0.43988   0.46042   0.25000   0.00000  Uiso   1.00
O317   O     0.49999   0.53960   0.18513   0.00000  Uiso   1.00
O318   O     0.50001   0.46040   0.31487   0.00000  Uiso   1.00
O319   O     0.50001   0.53960   0.31487   0.00000  Uiso   1.00
O320   O     0.49999   0.46040   0.18513   0.00000  Uiso   1.00
C321   C     0.75420   0.49998   0.24942   0.00000  Uiso   1.00
C322   C     0.70952   0.50032   0.24933   0.00000  Uiso   1.00
C323   C     0.81045   0.35756   0.21983   0.00000  Uiso   1.00
C324   C     0.85622   0.64244   0.28017   0.00000  Uiso   1.00
C325   C     0.85642   0.35855   0.28005   0.00000  Uiso   1.00
C326   C     0.81024   0.64145   0.21995   0.00000  Uiso   1.00
C327   C     0.83331   0.49992   0.16454   0.00000  Uiso   1.00
C328   C     0.83336   0.50008   0.33546   0.00000  Uiso   1.00
C329   C     0.87048   0.49343   0.40637   0.00000  Uiso   1.00
C330   C     0.79618   0.50657   0.09363   0.00000  Uiso   1.00
C331   C     0.83357   0.50006   0.38362   0.00000  Uiso   1.00
C332   C     0.91247   0.50002   0.25058   0.00000  Uiso   1.00
C333   C     0.83309   0.49994   0.11638   0.00000  Uiso   1.00
C334   C     0.79672   0.50532   0.40643   0.00000  Uiso   1.00
C335   C     0.86994   0.49468   0.09358   0.00000  Uiso   1.00
C336   C     0.79646   0.50549   0.45286   0.00000  Uiso   1.00
C337   C     0.87020   0.49450   0.04714   0.00000  Uiso   1.00
C338   C     0.83364   0.49988   0.47654   0.00000  Uiso   1.00
C339   C     0.83303   0.50012   0.02346   0.00000  Uiso   1.00
C340   C     0.87128   0.49382   0.45330   0.00000  Uiso   1.00
C341   C     0.79539   0.50617   0.04670   0.00000  Uiso   1.00
C342   C     0.75948   0.51113   0.47577   0.00000  Uiso   1.00
C343   C     0.75849   0.51153   0.02216   0.00000  Uiso   1.00
C344   C     0.90719   0.48886   0.02423   0.00000  Uiso   1.00
C345   C     0.71883   0.51708   0.04298   0.00000  Uiso   1.00
C346   C     0.94783   0.48292   0.45702   0.00000  Uiso   1.00
C347   C     0.70862   0.44770   0.18297   0.00000  Uiso   1.00
C348   C     0.95805   0.55229   0.31703   0.00000  Uiso   1.00
C349   C     0.95580   0.44027   0.18954   0.00000  Uiso   1.00
C350   C     0.71087   0.55971   0.31047   0.00000  Uiso   1.00
C351   C     0.90817   0.48846   0.47785   0.00000  Uiso   1.00
C352   C     0.68763   0.47237   0.21849   0.00000  Uiso   1.00
C353   C     0.97903   0.52763   0.28151   0.00000  Uiso   1.00
C354   C     0.97808   0.47118   0.21983   0.00000  Uiso   1.00
C355   C     0.68858   0.52882   0.28016   0.00000  Uiso   1.00
C356   C     0.95714   0.49968   0.25067   0.00000  Uiso   1.00
Cu357  Cu    0.83333   0.54689   0.25000   0.00000  Uiso   1.00
Cu358  Cu    0.83333   0.45311   0.25000   0.00000  Uiso   1.00
F359   F     0.90502   0.48612   0.38212   0.00000  Uiso   1.00
F360   F     0.76164   0.51387   0.11788   0.00000  Uiso   1.00
F361   F     0.76105   0.50898   0.38319   0.00000  Uiso   1.00
F362   F     0.90561   0.49102   0.11681   0.00000  Uiso   1.00
F363   F     0.78788   0.38005   0.18906   0.00000  Uiso   1.00
F364   F     0.87879   0.61995   0.31094   0.00000  Uiso   1.00
F365   F     0.88004   0.38204   0.31006   0.00000  Uiso   1.00
F366   F     0.78663   0.61796   0.18994   0.00000  Uiso   1.00
H367   H     0.73100   0.51536   0.45745   0.00000  Uiso   1.00
H368   H     0.93566   0.48464   0.04255   0.00000  Uiso   1.00
N369   N     0.83333   0.61736   0.25000   0.00000  Uiso   1.00
N370   N     0.83333   0.38264   0.25000   0.00000  Uiso   1.00
N371   N     0.68702   0.52150   0.05951   0.00000  Uiso   1.00
N372   N     0.97964   0.47850   0.44049   0.00000  Uiso   1.00
N373   N     0.72464   0.42824   0.15406   0.00000  Uiso   1.00
N374   N     0.94202   0.57174   0.34595   0.00000  Uiso   1.00
N375   N     0.93823   0.41526   0.16566   0.00000  Uiso   1.00
N376   N     0.72843   0.58471   0.33436   0.00000  Uiso   1.00
O377   O     0.77321   0.53958   0.25000   0.00000  Uiso   1.00
O378   O     0.89345   0.46042   0.25001   0.00000  Uiso   1.00
O379   O     0.89345   0.53958   0.25001   0.00000  Uiso   1.00
O380   O     0.77321   0.46042   0.25000   0.00000  Uiso   1.00
O381   O     0.83332   0.53960   0.18513   0.00000  Uiso   1.00
O382   O     0.83334   0.46040   0.31487   0.00000  Uiso   1.00
O383   O     0.83334   0.53960   0.31487   0.00000  Uiso   1.00
O384   O     0.83332   0.46040   0.18513   0.00000  Uiso   1.00
C385   C     0.08753   0.83331   0.24942   0.00000  Uiso   1.00
C386   C     0.04286   0.83365   0.24933   0.00000  Uiso   1.00
C387   C     0.14378   0.69090   0.21983   0.00000  Uiso   1.00
C388   C     0.18955   0.97577   0.28017   0.00000  Uiso   1.00
C389   C     0.18976   0.69188   0.28005   0.00000  Uiso   1.00
C390   C     0.14358   0.97479   0.21995   0.00000  Uiso   1.00
C391   C     0.16664   0.83325   0.16454   0.00000  Uiso   1.00
C392   C     0.16669   0.83341   0.33546   0.00000  Uiso   1.00
C393   C     0.20382   0.82676   0.40637   0.00000  Uiso   1.00
C394   C     0.12951   0.83990   0.09363   0.00000  Uiso   1.00
C395   C     0.16690   0.83339   0.38362   0.00000  Uiso   1.00
C396   C     0.24580   0.83336   0.25058   0.00000  Uiso   1.00
C397   C     0.16643   0.83328   0.11638   0.00000  Uiso   1.00
C398   C     0.13006   0.83865   0.40643   0.00000  Uiso   1.00
C399   C     0.20327   0.82801   0.09358   0.00000  Uiso   1.00
C400   C     0.12979   0.83883   0.45286   0.00000  Uiso   1.00
C401   C     0.20354   0.82784   0.04714   0.00000  Uiso   1.00
C402   C     0.16697   0.83321   0.47654   0.00000  Uiso   1.00
C403   C     0.16636   0.83345   0.02346   0.00000  Uiso   1.00
C404   C     0.20461   0.82715   0.45330   0.00000  Uiso   1.00
C405   C     0.12872   0.83951   0.04670   0.00000  Uiso   1.00
C406   C     0.09281   0.84447   0.47577   0.00000  Uiso   1.00
C407   C     0.09183   0.84487   0.02216   0.00000  Uiso   1.00
C408   C     0.24052   0.82219   0.02423   0.00000  Uiso   1.00
C409   C     0.05217   0.85041   0.04298   0.00000  Uiso   1.00
C410   C     0.28116   0.81625   0.45702   0.00000  Uiso   1.00
C411   C     0.04195   0.78103   0.18297   0.00000  Uiso   1.00
C412   C     0.29138   0.88562   0.31703   0.00000  Uiso   1.00
C413   C     0.28913   0.77361   0.18954   0.00000  Uiso   1.00
C414   C     0.04420   0.89304   0.31047   0.00000  Uiso   1.00
C415   C     0.24150   0.82179   0.47785   0.00000  Uiso   1.00
C416   C     0.02097   0.80570   0.21849   0.00000  Uiso   1.00
C417   C     0.31237   0.86096   0.28151   0.00000  Uiso   1.00
C418   C     0.31141   0.80451   0.21983   0.00000  Uiso   1.00
C419   C     0.02192   0.86215   0.28016   0.00000  Uiso   1.00
C420   C     0.29048   0.83302   0.25067   0.00000  Uiso   1.00
Cu421  Cu    0.16667   0.88022   0.25000   0.00000  Uiso   1.00
Cu422  Cu    0.16667   0.78645   0.25000   0.00000  Uiso   1.00
F423   F     0.23835   0.81945   0.38212   0.00000  Uiso   1.00
F424   F     0.09498   0.84721   0.11788   0.00000  Uiso   1.00
F425   F     0.09439   0.84231   0.38319   0.00000  Uiso   1.00
F426   F     0.23894   0.82435   0.11681   0.00000  Uiso   1.00
F427   F     0.12121   0.71338   0.18906   0.00000  Uiso   1.00
F428   F     0.21213   0.95328   0.31094   0.00000  Uiso   1.00
F429   F     0.21337   0.71537   0.31006   0.00000  Uiso   1.00
F430   F     0.11996   0.95130   0.18994   0.00000  Uiso   1.00
H431   H     0.06434   0.84869   0.45745   0.00000  Uiso   1.00
H432   H     0.26899   0.81797   0.04255   0.00000  Uiso   1.00
N433   N     0.16667   0.95069   0.25000   0.00000  Uiso   1.00
N434   N     0.16667   0.71598   0.25000   0.00000  Uiso   1.00
N435   N     0.02036   0.85483   0.05951   0.00000  Uiso   1.00
N436   N     0.31297   0.81183   0.44049   0.00000  Uiso   1.00
N437   N     0.05797   0.76157   0.15406   0.00000  Uiso   1.00
N438   N     0.27536   0.90507   0.34595   0.00000  Uiso   1.00
N439   N     0.27157   0.74859   0.16566   0.00000  Uiso   1.00
N440   N     0.06176   0.91804   0.33436   0.00000  Uiso   1.00
O441   O     0.10655   0.87291   0.25000   0.00000  Uiso   1.00
O442   O     0.22679   0.79375   0.25001   0.00000  Uiso   1.00
O443   O     0.22679   0.87291   0.25001   0.00000  Uiso   1.00
O444   O     0.10655   0.79375   0.25000   0.00000  Uiso   1.00
O445   O     0.16666   0.87293   0.18513   0.00000  Uiso   1.00
O446   O     0.16668   0.79373   0.31487   0.00000  Uiso   1.00
O447   O     0.16668   0.87293   0.31487   0.00000  Uiso   1.00
O448   O     0.16666   0.79373   0.18513   0.00000  Uiso   1.00
C449   C     0.42086   0.83331   0.24942   0.00000  Uiso   1.00
C450   C     0.37619   0.83365   0.24933   0.00000  Uiso   1.00
C451   C     0.47712   0.69090   0.21983   0.00000  Uiso   1.00
C452   C     0.52288   0.97577   0.28017   0.00000  Uiso   1.00
C453   C     0.52309   0.69188   0.28005   0.00000  Uiso   1.00
C454   C     0.47691   0.97479   0.21995   0.00000  Uiso   1.00
C455   C     0.49997   0.83325   0.16454   0.00000  Uiso   1.00
C456   C     0.50002   0.83341   0.33546   0.00000  Uiso   1.00
C457   C     0.53715   0.82676   0.40637   0.00000  Uiso   1.00
C458   C     0.46285   0.83990   0.09363   0.00000  Uiso   1.00
C459   C     0.50024   0.83339   0.38362   0.00000  Uiso   1.00
C460   C     0.57914   0.83336   0.25058   0.00000  Uiso   1.00
C461   C     0.49976   0.83328   0.11638   0.00000  Uiso   1.00
C462   C     0.46339   0.83865   0.40643   0.00000  Uiso   1.00
C463   C     0.53661   0.82801   0.09358   0.00000  Uiso   1.00
C464   C     0.46313   0.83883   0.45286   0.00000  Uiso   1.00
C465   C     0.53687   0.82784   0.04714   0.00000  Uiso   1.00
C466   C     0.50030   0.83321   0.47654   0.00000  Uiso   1.00
C467   C     0.49969   0.83345   0.02346   0.00000  Uiso   1.00
C468   C     0.53794   0.82715   0.45330   0.00000  Uiso   1.00
C469   C     0.46205   0.83951   0.04670   0.00000  Uiso   1.00
C470   C     0.42614   0.84447   0.47577   0.00000  Uiso   1.00
C471   C     0.42516   0.84487   0.02216   0.00000  Uiso   1.00
C472   C     0.57385   0.82219   0.02423   0.00000  Uiso   1.00
C473   C     0.38550   0.85041   0.04298   0.00000  Uiso   1.00
C474   C     0.61450   0.81625   0.45702   0.00000  Uiso   1.00
C475   C     0.37528   0.78103   0.18297   0.00000  Uiso   1.00
C476   C     0.62472   0.88562   0.31703   0.00000  Uiso   1.00
C477   C     0.62247   0.77361   0.18954   0.00000  Uiso   1.00
C478   C     0.37753   0.89304   0.31047   0.00000  Uiso   1.00
C479   C     0.57484   0.82179   0.47785   0.00000  Uiso   1.00
C480   C     0.35430   0.80570   0.21849   0.00000  Uiso   1.00
C481   C     0.64570   0.86096   0.28151   0.00000  Uiso   1.00
C482   C     0.64475   0.80451   0.21983   0.00000  Uiso   1.00
C483   C     0.35525   0.86215   0.28016   0.00000  Uiso   1.00
C484   C     0.62381   0.83302   0.25067   0.00000  Uiso   1.00
Cu485  Cu    0.50000   0.88022   0.25000   0.00000  Uiso   1.00
Cu486  Cu    0.50000   0.78645   0.25000   0.00000  Uiso   1.00
F487   F     0.57169   0.81945   0.38212   0.00000  Uiso   1.00
F488   F     0.42831   0.84721   0.11788   0.00000  Uiso   1.00
F489   F     0.42772   0.84231   0.38319   0.00000  Uiso   1.00
F490   F     0.57228   0.82435   0.11681   0.00000  Uiso   1.00
F491   F     0.45455   0.71338   0.18906   0.00000  Uiso   1.00
F492   F     0.54546   0.95328   0.31094   0.00000  Uiso   1.00
F493   F     0.54670   0.71537   0.31006   0.00000  Uiso   1.00
F494   F     0.45330   0.95130   0.18994   0.00000  Uiso   1.00
H495   H     0.39767   0.84869   0.45745   0.00000  Uiso   1.00
H496   H     0.60233   0.81797   0.04255   0.00000  Uiso   1.00
N497   N     0.50000   0.95069   0.25000   0.00000  Uiso   1.00
N498   N     0.50000   0.71598   0.25000   0.00000  Uiso   1.00
N499   N     0.35369   0.85483   0.05951   0.00000  Uiso   1.00
N500   N     0.64630   0.81183   0.44049   0.00000  Uiso   1.00
N501   N     0.39131   0.76157   0.15406   0.00000  Uiso   1.00
N502   N     0.60869   0.90507   0.34595   0.00000  Uiso   1.00
N503   N     0.60490   0.74859   0.16566   0.00000  Uiso   1.00
N504   N     0.39510   0.91804   0.33436   0.00000  Uiso   1.00
O505   O     0.43988   0.87291   0.25000   0.00000  Uiso   1.00
O506   O     0.56012   0.79375   0.25001   0.00000  Uiso   1.00
O507   O     0.56012   0.87291   0.25001   0.00000  Uiso   1.00
O508   O     0.43988   0.79375   0.25000   0.00000  Uiso   1.00
O509   O     0.49999   0.87293   0.18513   0.00000  Uiso   1.00
O510   O     0.50001   0.79373   0.31487   0.00000  Uiso   1.00
O511   O     0.50001   0.87293   0.31487   0.00000  Uiso   1.00
O512   O     0.49999   0.79373   0.18513   0.00000  Uiso   1.00
C513   C     0.75420   0.83331   0.24942   0.00000  Uiso   1.00
C514   C     0.70952   0.83365   0.24933   0.00000  Uiso   1.00
C515   C     0.81045   0.69090   0.21983   0.00000  Uiso   1.00
C516   C     0.85622   0.97577   0.28017   0.00000  Uiso   1.00
C517   C     0.85642   0.69188   0.28005   0.00000  Uiso   1.00
C518   C     0.81024   0.97479   0.21995   0.00000  Uiso   1.00
C519   C     0.83331   0.83325   0.16454   0.00000  Uiso   1.00
C520   C     0.83336   0.83341   0.33546   0.00000  Uiso   1.00
C521   C     0.87048   0.82676   0.40637   0.00000  Uiso   1.00
C522   C     0.79618   0.83990   0.09363   0.00000  Uiso   1.00
C523   C     0.83357   0.83339   0.38362   0.00000  Uiso   1.00
C524   C     0.91247   0.83336   0.25058   0.00000  Uiso   1.00
C525   C     0.83309   0.83328   0.11638   0.00000  Uiso   1.00
C526   C     0.79672   0.83865   0.40643   0.00000  Uiso   1.00
C527   C     0.86994   0.82801   0.09358   0.00000  Uiso   1.00
C528   C     0.79646   0.83883   0.45286   0.00000  Uiso   1.00
C529   C     0.87020   0.82784   0.04714   0.00000  Uiso   1.00
C530   C     0.83364   0.83321   0.47654   0.00000  Uiso   1.00
C531   C     0.83303   0.83345   0.02346   0.00000  Uiso   1.00
C532   C     0.87128   0.82715   0.45330   0.00000  Uiso   1.00
C533   C     0.79539   0.83951   0.04670   0.00000  Uiso   1.00
C534   C     0.75948   0.84447   0.47577   0.00000  Uiso   1.00
C535   C     0.75849   0.84487   0.02216   0.00000  Uiso   1.00
C536   C     0.90719   0.82219   0.02423   0.00000  Uiso   1.00
C537   C     0.71883   0.85041   0.04298   0.00000  Uiso   1.00
C538   C     0.94783   0.81625   0.45702   0.00000  Uiso   1.00
C539   C     0.70862   0.78103   0.18297   0.00000  Uiso   1.00
C540   C     0.95805   0.88562   0.31703   0.00000  Uiso   1.00
C541   C     0.95580   0.77361   0.18954   0.00000  Uiso   1.00
C542   C     0.71087   0.89304   0.31047   0.00000  Uiso   1.00
C543   C     0.90817   0.82179   0.47785   0.00000  Uiso   1.00
C544   C     0.68763   0.80570   0.21849   0.00000  Uiso   1.00
C545   C     0.97903   0.86096   0.28151   0.00000  Uiso   1.00
C546   C     0.97808   0.80451   0.21983   0.00000  Uiso   1.00
C547   C     0.68858   0.86215   0.28016   0.00000  Uiso   1.00
C548   C     0.95714   0.83302   0.25067   0.00000  Uiso   1.00
Cu549  Cu    0.83333   0.88022   0.25000   0.00000  Uiso   1.00
Cu550  Cu    0.83333   0.78645   0.25000   0.00000  Uiso   1.00
F551   F     0.90502   0.81945   0.38212   0.00000  Uiso   1.00
F552   F     0.76164   0.84721   0.11788   0.00000  Uiso   1.00
F553   F     0.76105   0.84231   0.38319   0.00000  Uiso   1.00
F554   F     0.90561   0.82435   0.11681   0.00000  Uiso   1.00
F555   F     0.78788   0.71338   0.18906   0.00000  Uiso   1.00
F556   F     0.87879   0.95328   0.31094   0.00000  Uiso   1.00
F557   F     0.88004   0.71537   0.31006   0.00000  Uiso   1.00
F558   F     0.78663   0.95130   0.18994   0.00000  Uiso   1.00
H559   H     0.73100   0.84869   0.45745   0.00000  Uiso   1.00
H560   H     0.93566   0.81797   0.04255   0.00000  Uiso   1.00
N561   N     0.83333   0.95069   0.25000   0.00000  Uiso   1.00
N562   N     0.83333   0.71598   0.25000   0.00000  Uiso   1.00
N563   N     0.68702   0.85483   0.05951   0.00000  Uiso   1.00
N564   N     0.97964   0.81183   0.44049   0.00000  Uiso   1.00
N565   N     0.72464   0.76157   0.15406   0.00000  Uiso   1.00
N566   N     0.94202   0.90507   0.34595   0.00000  Uiso   1.00
N567   N     0.93823   0.74859   0.16566   0.00000  Uiso   1.00
N568   N     0.72843   0.91804   0.33436   0.00000  Uiso   1.00
O569   O     0.77321   0.87291   0.25000   0.00000  Uiso   1.00
O570   O     0.89345   0.79375   0.25001   0.00000  Uiso   1.00
O571   O     0.89345   0.87291   0.25001   0.00000  Uiso   1.00
O572   O     0.77321   0.79375   0.25000   0.00000  Uiso   1.00
O573   O     0.83332   0.87293   0.18513   0.00000  Uiso   1.00
O574   O     0.83334   0.79373   0.31487   0.00000  Uiso   1.00
O575   O     0.83334   0.87293   0.31487   0.00000  Uiso   1.00
O576   O     0.83332   0.79373   0.18513   0.00000  Uiso   1.00
C577   C     0.08753   0.16664   0.74942   0.00000  Uiso   1.00
C578   C     0.04286   0.16698   0.74933   0.00000  Uiso   1.00
C579   C     0.14378   0.02423   0.71983   0.00000  Uiso   1.00
C580   C     0.18955   0.30910   0.78017   0.00000  Uiso   1.00
C581   C     0.18976   0.02521   0.78005   0.00000  Uiso   1.00
C582   C     0.14358   0.30812   0.71995   0.00000  Uiso   1.00
C583   C     0.16664   0.16659   0.66454   0.00000  Uiso   1.00
C584   C     0.16669   0.16675   0.83546   0.00000  Uiso   1.00
C585   C     0.20382   0.16009   0.90637   0.00000  Uiso   1.00
C586   C     0.12951   0.17324   0.59363   0.00000  Uiso   1.00
C587   C     0.16690   0.16672   0.88362   0.00000  Uiso   1.00
C588   C     0.24580   0.16669   0.75058   0.00000  Uiso   1.00
C589   C     0.16643   0.16661   0.61638   0.00000  Uiso   1.00
C590   C     0.13006   0.17198   0.90643   0.00000  Uiso   1.00
C591   C     0.20327   0.16135   0.59358   0.00000  Uiso   1.00
C592   C     0.12979   0.17216   0.95286   0.00000  Uiso   1.00
C593   C     0.20354   0.16117   0.54714   0.00000  Uiso   1.00
C594   C     0.16697   0.16655   0.97654   0.00000  Uiso   1.00
C595   C     0.16636   0.16678   0.52346   0.00000  Uiso   1.00
C596   C     0.20461   0.16049   0.95330   0.00000  Uiso   1.00
C597   C     0.12872   0.17284   0.54670   0.00000  Uiso   1.00
C598   C     0.09281   0.17780   0.97577   0.00000  Uiso   1.00
C599   C     0.09183   0.17820   0.52216   0.00000  Uiso   1.00
C600   C     0.24052   0.15553   0.52423   0.00000  Uiso   1.00
C601   C     0.05217   0.18374   0.54298   0.00000  Uiso   1.00
C602   C     0.28116   0.14958   0.95702   0.00000  Uiso   1.00
C603   C     0.04195   0.11437   0.68297   0.00000  Uiso   1.00
C604   C     0.29138   0.21895   0.81703   0.00000  Uiso   1.00
C605   C     0.28913   0.10694   0.68954   0.00000  Uiso   1.00
C606   C     0.04420   0.22637   0.81047   0.00000  Uiso   1.00
C607   C     0.24150   0.15513   0.97785   0.00000  Uiso   1.00
C608   C     0.02097   0.13904   0.71849   0.00000  Uiso   1.00
C609   C     0.31237   0.19429   0.78151   0.00000  Uiso   1.00
C610   C     0.31141   0.13785   0.71983   0.00000  Uiso   1.00
C611   C     0.02192   0.19548   0.78016   0.00000  Uiso   1.00
C612   C     0.29048   0.16635   0.75067   0.00000  Uiso   1.00
Cu613  Cu    0.16667   0.21355   0.75000   0.00000  Uiso   1.00
Cu614  Cu    0.16667   0.11978   0.75000   0.00000  Uiso   1.00
F615   F     0.23835   0.15278   0.88212   0.00000  Uiso   1.00
F616   F     0.09498   0.18054   0.61788   0.00000  Uiso   1.00
F617   F     0.09439   0.17564   0.88319   0.00000  Uiso   1.00
F618   F     0.23894   0.15768   0.61681   0.00000  Uiso   1.00
F619   F     0.12121   0.04672   0.68906   0.00000  Uiso   1.00
F620   F     0.21213   0.28662   0.81094   0.00000  Uiso   1.00
F621   F     0.21337   0.04870   0.81006   0.00000  Uiso   1.00
F622   F     0.11996   0.28463   0.68994   0.00000  Uiso   1.00
H623   H     0.06434   0.18202   0.95745   0.00000  Uiso   1.00
H624   H     0.26899   0.15131   0.54255   0.00000  Uiso   1.00
N625   N     0.16667   0.28402   0.75000   0.00000  Uiso   1.00
N626   N     0.16667   0.04931   0.75000   0.00000  Uiso   1.00
N627   N     0.02036   0.18817   0.55951   0.00000  Uiso   1.00
N628   N     0.31297   0.14516   0.94049   0.00000  Uiso   1.00
N629   N     0.05797   0.09491   0.65406   0.00000  Uiso   1.00
N630   N     0.27536   0.23841   0.84595   0.00000  Uiso   1.00
N631   N     0.27157   0.08192   0.66566   0.00000  Uiso   1.00
N632   N     0.06176   0.25138   0.83436   0.00000  Uiso   1.00
O633   O     0.10655   0.20625   0.75000   0.00000  Uiso   1.00
O634   O     0.22679   0.12709   0.75001   0.00000  Uiso   1.00
O635   O     0.22679   0.20625   0.75001   0.00000  Uiso   1.00
O636   O     0.10655   0.12709   0.75000   0.00000  Uiso   1.00
O637   O     0.16666   0.20627   0.68513   0.00000  Uiso   1.00
O638   O     0.16668   0.12707   0.81487   0.00000  Uiso   1.00
O639   O     0.16668   0.20627   0.81487   0.00000  Uiso   1.00
O640   O     0.16666   0.12707   0.68513   0.00000  Uiso   1.00
C641   C     0.42086   0.16664   0.74942   0.00000  Uiso   1.00
C642   C     0.37619   0.16698   0.74933   0.00000  Uiso   1.00
C643   C     0.47712   0.02423   0.71983   0.00000  Uiso   1.00
C644   C     0.52288   0.30910   0.78017   0.00000  Uiso   1.00
C645   C     0.52309   0.02521   0.78005   0.00000  Uiso   1.00
C646   C     0.47691   0.30812   0.71995   0.00000  Uiso   1.00
C647   C     0.49997   0.16659   0.66454   0.00000  Uiso   1.00
C648   C     0.50002   0.16675   0.83546   0.00000  Uiso   1.00
C649   C     0.53715   0.16009   0.90637   0.00000  Uiso   1.00
C650   C     0.46285   0.17324   0.59363   0.00000  Uiso   1.00
C651   C     0.50024   0.16672   0.88362   0.00000  Uiso   1.00
C652   C     0.57914   0.16669   0.75058   0.00000  Uiso   1.00
C653   C     0.49976   0.16661   0.61638   0.00000  Uiso   1.00
C654   C     0.46339   0.17198   0.90643   0.00000  Uiso   1.00
C655   C     0.53661   0.16135   0.59358   0.00000  Uiso   1.00
C656   C     0.46313   0.17216   0.95286   0.00000  Uiso   1.00
C657   C     0.53687   0.16117   0.54714   0.00000  Uiso   1.00
C658   C     0.50030   0.16655   0.97654   0.00000  Uiso   1.00
C659   C     0.49969   0.16678   0.52346   0.00000  Uiso   1.00
C660   C     0.53794   0.16049   0.95330   0.00000  Uiso   1.00
C661   C     0.46205   0.17284   0.54670   0.00000  Uiso   1.00
C662   C     0.42614   0.17780   0.97577   0.00000  Uiso   1.00
C663   C     0.42516   0.17820   0.52216   0.00000  Uiso   1.00
C664   C     0.57385   0.15553   0.52423   0.00000  Uiso   1.00
C665   C     0.38550   0.18374   0.54298   0.00000  Uiso   1.00
C666   C     0.61450   0.14958   0.95702   0.00000  Uiso   1.00
C667   C     0.37528   0.11437   0.68297   0.00000  Uiso   1.00
C668   C     0.62472   0.21895   0.81703   0.00000  Uiso   1.00
C669   C     0.62247   0.10694   0.68954   0.00000  Uiso   1.00
C670   C     0.37753   0.22637   0.81047   0.00000  Uiso   1.00
C671   C     0.57484   0.15513   0.97785   0.00000  Uiso   1.00
C672   C     0.35430   0.13904   0.71849   0.00000  Uiso   1.00
C673   C     0.64570   0.19429   0.78151   0.00000  Uiso   1.00
C674   C     0.64475   0.13785   0.71983   0.00000  Uiso   1.00
C675   C     0.35525   0.19548   0.78016   0.00000  Uiso   1.00
C676   C     0.62381   0.16635   0.75067   0.00000  Uiso   1.00
Cu677  Cu    0.50000   0.21355   0.75000   0.00000  Uiso   1.00
Cu678  Cu    0.50000   0.11978   0.75000   0.00000  Uiso   1.00
F679   F     0.57169   0.15278   0.88212   0.00000  Uiso   1.00
F680   F     0.42831   0.18054   0.61788   0.00000  Uiso   1.00
F681   F     0.42772   0.17564   0.88319   0.00000  Uiso   1.00
F682   F     0.57228   0.15768   0.61681   0.00000  Uiso   1.00
F683   F     0.45455   0.04672   0.68906   0.00000  Uiso   1.00
F684   F     0.54546   0.28662   0.81094   0.00000  Uiso   1.00
F685   F     0.54670   0.04870   0.81006   0.00000  Uiso   1.00
F686   F     0.45330   0.28463   0.68994   0.00000  Uiso   1.00
H687   H     0.39767   0.18202   0.95745   0.00000  Uiso   1.00
H688   H     0.60233   0.15131   0.54255   0.00000  Uiso   1.00
N689   N     0.50000   0.28402   0.75000   0.00000  Uiso   1.00
N690   N     0.50000   0.04931   0.75000   0.00000  Uiso   1.00
N691   N     0.35369   0.18817   0.55951   0.00000  Uiso   1.00
N692   N     0.64630   0.14516   0.94049   0.00000  Uiso   1.00
N693   N     0.39131   0.09491   0.65406   0.00000  Uiso   1.00
N694   N     0.60869   0.23841   0.84595   0.00000  Uiso   1.00
N695   N     0.60490   0.08192   0.66566   0.00000  Uiso   1.00
N696   N     0.39510   0.25138   0.83436   0.00000  Uiso   1.00
O697   O     0.43988   0.20625   0.75000   0.00000  Uiso   1.00
O698   O     0.56012   0.12709   0.75001   0.00000  Uiso   1.00
O699   O     0.56012   0.20625   0.75001   0.00000  Uiso   1.00
O700   O     0.43988   0.12709   0.75000   0.00000  Uiso   1.00
O701   O     0.49999   0.20627   0.68513   0.00000  Uiso   1.00
O702   O     0.50001   0.12707   0.81487   0.00000  Uiso   1.00
O703   O     0.50001   0.20627   0.81487   0.00000  Uiso   1.00
O704   O     0.49999   0.12707   0.68513   0.00000  Uiso   1.00
C705   C     0.75420   0.16664   0.74942   0.00000  Uiso   1.00
C706   C     0.70952   0.16698   0.74933   0.00000  Uiso   1.00
C707   C     0.81045   0.02423   0.71983   0.00000  Uiso   1.00
C708   C     0.85622   0.30910   0.78017   0.00000  Uiso   1.00
C709   C     0.85642   0.02521   0.78005   0.00000  Uiso   1.00
C710   C     0.81024   0.30812   0.71995   0.00000  Uiso   1.00
C711   C     0.83331   0.16659   0.66454   0.00000  Uiso   1.00
C712   C     0.83336   0.16675   0.83546   0.00000  Uiso   1.00
C713   C     0.87048   0.16009   0.90637   0.00000  Uiso   1.00
C714   C     0.79618   0.17324   0.59363   0.00000  Uiso   1.00
C715   C     0.83357   0.16672   0.88362   0.00000  Uiso   1.00
C716   C     0.91247   0.16669   0.75058   0.00000  Uiso   1.00
C717   C     0.83309   0.16661   0.61638   0.00000  Uiso   1.00
C718   C     0.79672   0.17198   0.90643   0.00000  Uiso   1.00
C719   C     0.86994   0.16135   0.59358   0.00000  Uiso   1.00
C720   C     0.79646   0.17216   0.95286   0.00000  Uiso   1.00
C721   C     0.87020   0.16117   0.54714   0.00000  Uiso   1.00
C722   C     0.83364   0.16655   0.97654   0.00000  Uiso   1.00
C723   C     0.83303   0.16678   0.52346   0.00000  Uiso   1.00
C724   C     0.87128   0.16049   0.95330   0.00000  Uiso   1.00
C725   C     0.79539   0.17284   0.54670   0.00000  Uiso   1.00
C726   C     0.75948   0.17780   0.97577   0.00000  Uiso   1.00
C727   C     0.75849   0.17820   0.52216   0.00000  Uiso   1.00
C728   C     0.90719   0.15553   0.52423   0.00000  Uiso   1.00
C729   C     0.71883   0.18374   0.54298   0.00000  Uiso   1.00
C730   C     0.94783   0.14958   0.95702   0.00000  Uiso   1.00
C731   C     0.70862   0.11437   0.68297   0.00000  Uiso   1.00
C732   C     0.95805   0.21895   0.81703   0.00000  Uiso   1.00
C733   C     0.95580   0.10694   0.68954   0.00000  Uiso   1.00
C734   C     0.71087   0.22637   0.81047   0.00000  Uiso   1.00
C735   C     0.90817   0.15513   0.97785   0.00000  Uiso   1.00
C736   C     0.68763   0.13904   0.71849   0.00000  Uiso   1.00
C737   C     0.97903   0.19429   0.78151   0.00000  Uiso   1.00
C738   C     0.97808   0.13785   0.71983   0.00000  Uiso   1.00
C739   C     0.68858   0.19548   0.78016   0.00000  Uiso   1.00
C740   C     0.95714   0.16635   0.75067   0.00000  Uiso   1.00
Cu741  Cu    0.83333   0.21355   0.75000   0.00000  Uiso   1.00
Cu742  Cu    0.83333   0.11978   0.75000   0.00000  Uiso   1.00
F743   F     0.90502   0.15278   0.88212   0.00000  Uiso   1.00
F744   F     0.76164   0.18054   0.61788   0.00000  Uiso   1.00
F745   F     0.76105   0.17564   0.88319   0.00000  Uiso   1.00
F746   F     0.90561   0.15768   0.61681   0.00000  Uiso   1.00
F747   F     0.78788   0.04672   0.68906   0.00000  Uiso   1.00
F748   F     0.87879   0.28662   0.81094   0.00000  Uiso   1.00
F749   F     0.88004   0.04870   0.81006   0.00000  Uiso   1.00
F750   F     0.78663   0.28463   0.68994   0.00000  Uiso   1.00
H751   H     0.73100   0.18202   0.95745   0.00000  Uiso   1.00
H752   H     0.93566   0.15131   0.54255   0.00000  Uiso   1.00
N753   N     0.83333   0.28402   0.75000   0.00000  Uiso   1.00
N754   N     0.83333   0.04931   0.75000   0.00000  Uiso   1.00
N755   N     0.68702   0.18817   0.55951   0.00000  Uiso   1.00
N756   N     0.97964   0.14516   0.94049   0.00000  Uiso   1.00
N757   N     0.72464   0.09491   0.65406   0.00000  Uiso   1.00
N758   N     0.94202   0.23841   0.84595   0.00000  Uiso   1.00
N759   N     0.93823   0.08192   0.66566   0.00000  Uiso   1.00
N760   N     0.72843   0.25138   0.83436   0.00000  Uiso   1.00
O761   O     0.77321   0.20625   0.75000   0.00000  Uiso   1.00
O762   O     0.89345   0.12709   0.75001   0.00000  Uiso   1.00
O763   O     0.89345   0.20625   0.75001   0.00000  Uiso   1.00
O764   O     0.77321   0.12709   0.75000   0.00000  Uiso   1.00
O765   O     0.83332   0.20627   0.68513   0.00000  Uiso   1.00
O766   O     0.83334   0.12707   0.81487   0.00000  Uiso   1.00
O767   O     0.83334   0.20627   0.81487   0.00000  Uiso   1.00
O768   O     0.83332   0.12707   0.68513   0.00000  Uiso   1.00
C769   C     0.08753   0.49998   0.74942   0.00000  Uiso   1.00
C770   C     0.04286   0.50032   0.74933   0.00000  Uiso   1.00
C771   C     0.14378   0.35756   0.71983   0.00000  Uiso   1.00
C772   C     0.18955   0.64244   0.78017   0.00000  Uiso   1.00
C773   C     0.18976   0.35855   0.78005   0.00000  Uiso   1.00
C774   C     0.14358   0.64145   0.71995   0.00000  Uiso   1.00
C775   C     0.16664   0.49992   0.66454   0.00000  Uiso   1.00
C776   C     0.16669   0.50008   0.83546   0.00000  Uiso   1.00
C777   C     0.20382   0.49343   0.90637   0.00000  Uiso   1.00
C778   C     0.12951   0.50657   0.59363   0.00000  Uiso   1.00
C779   C     0.16690   0.50006   0.88362   0.00000  Uiso   1.00
C780   C     0.24580   0.50002   0.75058   0.00000  Uiso   1.00
C781   C     0.16643   0.49994   0.61638   0.00000  Uiso   1.00
C782   C     0.13006   0.50532   0.90643   0.00000  Uiso   1.00
C783   C     0.20327   0.49468   0.59358   0.00000  Uiso   1.00
C784   C     0.12979   0.50549   0.95286   0.00000  Uiso   1.00
C785   C     0.20354   0.49450   0.54714   0.00000  Uiso   1.00
C786   C     0.16697   0.49988   0.97654   0.00000  Uiso   1.00
C787   C     0.16636   0.50012   0.52346   0.00000  Uiso   1.00
C788   C     0.20461   0.49382   0.95330   0.00000  Uiso   1.00
C789   C     0.12872   0.50617   0.54670   0.00000  Uiso   1.00
C790   C     0.09281   0.51113   0.97577   0.00000  Uiso   1.00
C791   C     0.09183   0.51153   0.52216   0.00000  Uiso   1.00
C792   C     0.24052   0.48886   0.52423   0.00000  Uiso   1.00
C793   C     0.05217   0.51708   0.54298   0.00000  Uiso   1.00
C794   C     0.28116   0.48292   0.95702   0.00000  Uiso   1.00
C795   C     0.04195   0.44770   0.68297   0.00000  Uiso   1.00
C796   C     0.29138   0.55229   0.81703   0.00000  Uiso   1.00
C797   C     0.28913   0.44027   0.68954   0.00000  Uiso   1.00
C798   C     0.04420   0.55971   0.81047   0.00000  Uiso   1.00
C799   C     0.24150   0.48846   0.97785   0.00000  Uiso   1.00
C800   C     0.02097   0.47237   0.71849   0.00000  Uiso   1.00
C801   C     0.31237   0.52763   0.78151   0.00000  Uiso   1.00
C802   C     0.31141   0.47118   0.71983   0.00000  Uiso   1.00
C803   C     0.02192   0.52882   0.78016   0.00000  Uiso   1.00
C804   C     0.29048   0.49968   0.75067   0.00000  Uiso   1.00
Cu805  Cu    0.16667   0.54689   0.75000   0.00000  Uiso   1.00
Cu806  Cu    0.16667   0.45311   0.75000   0.00000  Uiso   1.00
F807   F     0.23835   0.48612   0.88212   0.00000  Uiso   1.00
F808   F     0.09498   0.51387   0.61788   0.00000  Uiso   1.00
F809   F     0.09439   0.50898   0.88319   0.00000  Uiso   1.00
F810   F     0.23894   0.49102   0.61681   0.00000  Uiso   1.00
F811   F     0.12121   0.38005   0.68906   0.00000  Uiso   1.00
F812   F     0.21213   0.61995   0.81094   0.00000  Uiso   1.00
F813   F     0.21337   0.38204   0.81006   0.00000  Uiso   1.00
F814   F     0.11996   0.61796   0.68994   0.00000  Uiso   1.00
H815   H     0.06434   0.51536   0.95745   0.00000  Uiso   1.00
H816   H     0.26899   0.48464   0.54255   0.00000  Uiso   1.00
N817   N     0.16667   0.61736   0.75000   0.00000  Uiso   1.00
N818   N     0.16667   0.38264   0.75000   0.00000  Uiso   1.00
N819   N     0.02036   0.52150   0.55951   0.00000  Uiso   1.00
N820   N     0.31297   0.47850   0.94049   0.00000  Uiso   1.00
N821   N     0.05797   0.42824   0.65406   0.00000  Uiso   1.00
N822   N     0.27536   0.57174   0.84595   0.00000  Uiso   1.00
N823   N     0.27157   0.41526   0.66566   0.00000  Uiso   1.00
N824   N     0.06176   0.58471   0.83436   0.00000  Uiso   1.00
O825   O     0.10655   0.53958   0.75000   0.00000  Uiso   1.00
O826   O     0.22679   0.46042   0.75001   0.00000  Uiso   1.00
O827   O     0.22679   0.53958   0.75001   0.00000  Uiso   1.00
O828   O     0.10655   0.46042   0.75000   0.00000  Uiso   1.00
O829   O     0.16666   0.53960   0.68513   0.00000  Uiso   1.00
O830   O     0.16668   0.46040   0.81487   0.00000  Uiso   1.00
O831   O     0.16668   0.53960   0.81487   0.00000  Uiso   1.00
O832   O     0.16666   0.46040   0.68513   0.00000  Uiso   1.00
C833   C     0.42086   0.49998   0.74942   0.00000  Uiso   1.00
C834   C     0.37619   0.50032   0.74933   0.00000  Uiso   1.00
C835   C     0.47712   0.35756   0.71983   0.00000  Uiso   1.00
C836   C     0.52288   0.64244   0.78017   0.00000  Uiso   1.00
C837   C     0.52309   0.35855   0.78005   0.00000  Uiso   1.00
C838   C     0.47691   0.64145   0.71995   0.00000  Uiso   1.00
C839   C     0.49997   0.49992   0.66454   0.00000  Uiso   1.00
C840   C     0.50002   0.50008   0.83546   0.00000  Uiso   1.00
C841   C     0.53715   0.49343   0.90637   0.00000  Uiso   1.00
C842   C     0.46285   0.50657   0.59363   0.00000  Uiso   1.00
C843   C     0.50024   0.50006   0.88362   0.00000  Uiso   1.00
C844   C     0.57914   0.50002   0.75058   0.00000  Uiso   1.00
C845   C     0.49976   0.49994   0.61638   0.00000  Uiso   1.00
C846   C     0.46339   0.50532   0.90643   0.00000  Uiso   1.00
C847   C     0.53661   0.49468   0.59358   0.00000  Uiso   1.00
C848   C     0.46313   0.50549   0.95286   0.00000  Uiso   1.00
C849   C     0.53687   0.49450   0.54714   0.00000  Uiso   1.00
C850   C     0.50030   0.49988   0.97654   0.00000  Uiso   1.00
C851   C     0.49969   0.50012   0.52346   0.00000  Uiso   1.00
C852   C     0.53794   0.49382   0.95330   0.00000  Uiso   1.00
C853   C     0.46205   0.50617   0.54670   0.00000  Uiso   1.00
C854   C     0.42614   0.51113   0.97577   0.00000  Uiso   1.00
C855   C     0.42516   0.51153   0.52216   0.00000  Uiso   1.00
C856   C     0.57385   0.48886   0.52423   0.00000  Uiso   1.00
C857   C     0.38550   0.51708   0.54298   0.00000  Uiso   1.00
C858   C     0.61450   0.48292   0.95702   0.00000  Uiso   1.00
C859   C     0.37528   0.44770   0.68297   0.00000  Uiso   1.00
C860   C     0.62472   0.55229   0.81703   0.00000  Uiso   1.00
C861   C     0.62247   0.44027   0.68954   0.00000  Uiso   1.00
C862   C     0.37753   0.55971   0.81047   0.00000  Uiso   1.00
C863   C     0.57484   0.48846   0.97785   0.00000  Uiso   1.00
C864   C     0.35430   0.47237   0.71849   0.00000  Uiso   1.00
C865   C     0.64570   0.52763   0.78151   0.00000  Uiso   1.00
C866   C     0.64475   0.47118   0.71983   0.00000  Uiso   1.00
C867   C     0.35525   0.52882   0.78016   0.00000  Uiso   1.00
C868   C     0.62381   0.49968   0.75067   0.00000  Uiso   1.00
Cu869  Cu    0.50000   0.54689   0.75000   0.00000  Uiso   1.00
Cu870  Cu    0.50000   0.45311   0.75000   0.00000  Uiso   1.00
F871   F     0.57169   0.48612   0.88212   0.00000  Uiso   1.00
F872   F     0.42831   0.51387   0.61788   0.00000  Uiso   1.00
F873   F     0.42772   0.50898   0.88319   0.00000  Uiso   1.00
F874   F     0.57228   0.49102   0.61681   0.00000  Uiso   1.00
F875   F     0.45455   0.38005   0.68906   0.00000  Uiso   1.00
F876   F     0.54546   0.61995   0.81094   0.00000  Uiso   1.00
F877   F     0.54670   0.38204   0.81006   0.00000  Uiso   1.00
F878   F     0.45330   0.61796   0.68994   0.00000  Uiso   1.00
H879   H     0.39767   0.51536   0.95745   0.00000  Uiso   1.00
H880   H     0.60233   0.48464   0.54255   0.00000  Uiso   1.00
N881   N     0.50000   0.61736   0.75000   0.00000  Uiso   1.00
N882   N     0.50000   0.38264   0.75000   0.00000  Uiso   1.00
N883   N     0.35369   0.52150   0.55951   0.00000  Uiso   1.00
N884   N     0.64630   0.47850   0.94049   0.00000  Uiso   1.00
N885   N     0.39131   0.42824   0.65406   0.00000  Uiso   1.00
N886   N     0.60869   0.57174   0.84595   0.00000  Uiso   1.00
N887   N     0.60490   0.41526   0.66566   0.00000  Uiso   1.00
N888   N     0.39510   0.58471   0.83436   0.00000  Uiso   1.00
O889   O     0.43988   0.53958   0.75000   0.00000  Uiso   1.00
O890   O     0.56012   0.46042   0.75001   0.00000  Uiso   1.00
O891   O     0.56012   0.53958   0.75001   0.00000  Uiso   1.00
O892   O     0.43988   0.46042   0.75000   0.00000  Uiso   1.00
O893   O     0.49999   0.53960   0.68513   0.00000  Uiso   1.00
O894   O     0.50001   0.46040   0.81487   0.00000  Uiso   1.00
O895   O     0.50001   0.53960   0.81487   0.00000  Uiso   1.00
O896   O     0.49999   0.46040   0.68513   0.00000  Uiso   1.00
C897   C     0.75420   0.49998   0.74942   0.00000  Uiso   1.00
C898   C     0.70952   0.50032   0.74933   0.00000  Uiso   1.00
C899   C     0.81045   0.35756   0.71983   0.00000  Uiso   1.00
C900   C     0.85622   0.64244   0.78017   0.00000  Uiso   1.00
C901   C     0.85642   0.35855   0.78005   0.00000  Uiso   1.00
C902   C     0.81024   0.64145   0.71995   0.00000  Uiso   1.00
C903   C     0.83331   0.49992   0.66454   0.00000  Uiso   1.00
C904   C     0.83336   0.50008   0.83546   0.00000  Uiso   1.00
C905   C     0.87048   0.49343   0.90637   0.00000  Uiso   1.00
C906   C     0.79618   0.50657   0.59363   0.00000  Uiso   1.00
C907   C     0.83357   0.50006   0.88362   0.00000  Uiso   1.00
C908   C     0.91247   0.50002   0.75058   0.00000  Uiso   1.00
C909   C     0.83309   0.49994   0.61638   0.00000  Uiso   1.00
C910   C     0.79672   0.50532   0.90643   0.00000  Uiso   1.00
C911   C     0.86994   0.49468   0.59358   0.00000  Uiso   1.00
C912   C     0.79646   0.50549   0.95286   0.00000  Uiso   1.00
C913   C     0.87020   0.49450   0.54714   0.00000  Uiso   1.00
C914   C     0.83364   0.49988   0.97654   0.00000  Uiso   1.00
C915   C     0.83303   0.50012   0.52346   0.00000  Uiso   1.00
C916   C     0.87128   0.49382   0.95330   0.00000  Uiso   1.00
C917   C     0.79539   0.50617   0.54670   0.00000  Uiso   1.00
C918   C     0.75948   0.51113   0.97577   0.00000  Uiso   1.00
C919   C     0.75849   0.51153   0.52216   0.00000  Uiso   1.00
C920   C     0.90719   0.48886   0.52423   0.00000  Uiso   1.00
C921   C     0.71883   0.51708   0.54298   0.00000  Uiso   1.00
C922   C     0.94783   0.48292   0.95702   0.00000  Uiso   1.00
C923   C     0.70862   0.44770   0.68297   0.00000  Uiso   1.00
C924   C     0.95805   0.55229   0.81703   0.00000  Uiso   1.00
C925   C     0.95580   0.44027   0.68954   0.00000  Uiso   1.00
C926   C     0.71087   0.55971   0.81047   0.00000  Uiso   1.00
C927   C     0.90817   0.48846   0.97785   0.00000  Uiso   1.00
C928   C     0.68763   0.47237   0.71849   0.00000  Uiso   1.00
C929   C     0.97903   0.52763   0.78151   0.00000  Uiso   1.00
C930   C     0.97808   0.47118   0.71983   0.00000  Uiso   1.00
C931   C     0.68858   0.52882   0.78016   0.00000  Uiso   1.00
C932   C     0.95714   0.49968   0.75067   0.00000  Uiso   1.00
Cu933  Cu    0.83333   0.54689   0.75000   0.00000  Uiso   1.00
Cu934  Cu    0.83333   0.45311   0.75000   0.00000  Uiso   1.00
F935   F     0.90502   0.48612   0.88212   0.00000  Uiso   1.00
F936   F     0.76164   0.51387   0.61788   0.00000  Uiso   1.00
F937   F     0.76105   0.50898   0.88319   0.00000  Uiso   1.00
F938   F     0.90561   0.49102   0.61681   0.00000  Uiso   1.00
F939   F     0.78788   0.38005   0.68906   0.00000  Uiso   1.00
F940   F     0.87879   0.61995   0.81094   0.00000  Uiso   1.00
F941   F     0.88004   0.38204   0.81006   0.00000  Uiso   1.00
F942   F     0.78663   0.61796   0.68994   0.00000  Uiso   1.00
H943   H     0.73100   0.51536   0.95745   0.00000  Uiso   1.00
H944   H     0.93566   0.48464   0.54255   0.00000  Uiso   1.00
N945   N     0.83333   0.61736   0.75000   0.00000  Uiso   1.00
N946   N     0.83333   0.38264   0.75000   0.00000  Uiso   1.00
N947   N     0.68702   0.52150   0.55951   0.00000  Uiso   1.00
N948   N     0.97964   0.47850   0.94049   0.00000  Uiso   1.00
N949   N     0.72464   0.42824   0.65406   0.00000  Uiso   1.00
N950   N     0.94202   0.57174   0.84595   0.00000  Uiso   1.00
N951   N     0.93823   0.41526   0.66566   0.00000  Uiso   1.00
N952   N     0.72843   0.58471   0.83436   0.00000  Uiso   1.00
O953   O     0.77321   0.53958   0.75000   0.00000  Uiso   1.00
O954   O     0.89345   0.46042   0.75001   0.00000  Uiso   1.00
O955   O     0.89345   0.53958   0.75001   0.00000  Uiso   1.00
O956   O     0.77321   0.46042   0.75000   0.00000  Uiso   1.00
O957   O     0.83332   0.53960   0.68513   0.00000  Uiso   1.00
O958   O     0.83334   0.46040   0.81487   0.00000  Uiso   1.00
O959   O     0.83334   0.53960   0.81487   0.00000  Uiso   1.00
O960   O     0.83332   0.46040   0.68513   0.00000  Uiso   1.00
C961   C     0.08753   0.83331   0.74942   0.00000  Uiso   1.00
C962   C     0.04286   0.83365   0.74933   0.00000  Uiso   1.00
C963   C     0.14378   0.69090   0.71983   0.00000  Uiso   1.00
C964   C     0.18955   0.97577   0.78017   0.00000  Uiso   1.00
C965   C     0.18976   0.69188   0.78005   0.00000  Uiso   1.00
C966   C     0.14358   0.97479   0.71995   0.00000  Uiso   1.00
C967   C     0.16664   0.83325   0.66454   0.00000  Uiso   1.00
C968   C     0.16669   0.83341   0.83546   0.00000  Uiso   1.00
C969   C     0.20382   0.82676   0.90637   0.00000  Uiso   1.00
C970   C     0.12951   0.83990   0.59363   0.00000  Uiso   1.00
C971   C     0.16690   0.83339   0.88362   0.00000  Uiso   1.00
C972   C     0.24580   0.83336   0.75058   0.00000  Uiso   1.00
C973   C     0.16643   0.83328   0.61638   0.00000  Uiso   1.00
C974   C     0.13006   0.83865   0.90643   0.00000  Uiso   1.00
C975   C     0.20327   0.82801   0.59358   0.00000  Uiso   1.00
C976   C     0.12979   0.83883   0.95286   0.00000  Uiso   1.00
C977   C     0.20354   0.82784   0.54714   0.00000  Uiso   1.00
C978   C     0.16697   0.83321   0.97654   0.00000  Uiso   1.00
C979   C     0.16636   0.83345   0.52346   0.00000  Uiso   1.00
C980   C     0.20461   0.82715   0.95330   0.00000  Uiso   1.00
C981   C     0.12872   0.83951   0.54670   0.00000  Uiso   1.00
C982   C     0.09281   0.84447   0.97577   0.00000  Uiso   1.00
C983   C     0.09183   0.84487   0.52216   0.00000  Uiso   1.00
C984   C     0.24052   0.82219   0.52423   0.00000  Uiso   1.00
C985   C     0.05217   0.85041   0.54298   0.00000  Uiso   1.00
C986   C     0.28116   0.81625   0.95702   0.00000  Uiso   1.00
C987   C     0.04195   0.78103   0.68297   0.00000  Uiso   1.00
C988   C     0.29138   0.88562   0.81703   0.00000  Uiso   1.00
C989   C     0.28913   0.77361   0.68954   0.00000  Uiso   1.00
C990   C     0.04420   0.89304   0.81047   0.00000  Uiso   1.00
C991   C     0.24150   0.82179   0.97785   0.00000  Uiso   1.00
C992   C     0.02097   0.80570   0.71849   0.00000  Uiso   1.00
C993   C     0.31237   0.86096   0.78151   0.00000  Uiso   1.00
C994   C     0.31141   0.80451   0.71983   0.00000  Uiso   1.00
C995   C     0.02192   0.86215   0.78016   0.00000  Uiso   1.00
C996   C     0.29048   0.83302   0.75067   0.00000  Uiso   1.00
Cu997  Cu    0.16667   0.88022   0.75000   0.00000  Uiso   1.00
Cu998  Cu    0.16667   0.78645   0.75000   0.00000  Uiso   1.00
F999   F     0.23835   0.81945   0.88212   0.00000  Uiso   1.00
F1000  F     0.09498   0.84721   0.61788   0.00000  Uiso   1.00
F1001  F     0.09439   0.84231   0.88319   0.00000  Uiso   1.00
F1002  F     0.23894   0.82435   0.61681   0.00000  Uiso   1.00
F1003  F     0.12121   0.71338   0.68906   0.00000  Uiso   1.00
F1004  F     0.21213   0.95328   0.81094   0.00000  Uiso   1.00
F1005  F     0.21337   0.71537   0.81006   0.00000  Uiso   1.00
F1006  F     0.11996   0.95130   0.68994   0.00000  Uiso   1.00
H1007  H     0.06434   0.84869   0.95745   0.00000  Uiso   1.00
H1008  H     0.26899   0.81797   0.54255   0.00000  Uiso   1.00
N1009  N     0.16667   0.95069   0.75000   0.00000  Uiso   1.00
N1010  N     0.16667   0.71598   0.75000   0.00000  Uiso   1.00
N1011  N     0.02036   0.85483   0.55951   0.00000  Uiso   1.00
N1012  N     0.31297   0.81183   0.94049   0.00000  Uiso   1.00
N1013  N     0.05797   0.76157   0.65406   0.00000  Uiso   1.00
N1014  N     0.27536   0.90507   0.84595   0.00000  Uiso   1.00
N1015  N     0.27157   0.74859   0.66566   0.00000  Uiso   1.00
N1016  N     0.06176   0.91804   0.83436   0.00000  Uiso   1.00
O1017  O     0.10655   0.87291   0.75000   0.00000  Uiso   1.00
O1018  O     0.22679   0.79375   0.75001   0.00000  Uiso   1.00
O1019  O     0.22679   0.87291   0.75001   0.00000  Uiso   1.00
O1020  O     0.10655   0.79375   0.75000   0.00000  Uiso   1.00
O1021  O     0.16666   0.87293   0.68513   0.00000  Uiso   1.00
O1022  O     0.16668   0.79373   0.81487   0.00000  Uiso   1.00
O1023  O     0.16668   0.87293   0.81487   0.00000  Uiso   1.00
O1024  O     0.16666   0.79373   0.68513   0.00000  Uiso   1.00
C1025  C     0.42086   0.83331   0.74942   0.00000  Uiso   1.00
C1026  C     0.37619   0.83365   0.74933   0.00000  Uiso   1.00
C1027  C     0.47712   0.69090   0.71983   0.00000  Uiso   1.00
C1028  C     0.52288   0.97577   0.78017   0.00000  Uiso   1.00
C1029  C     0.52309   0.69188   0.78005   0.00000  Uiso   1.00
C1030  C     0.47691   0.97479   0.71995   0.00000  Uiso   1.00
C1031  C     0.49997   0.83325   0.66454   0.00000  Uiso   1.00
C1032  C     0.50002   0.83341   0.83546   0.00000  Uiso   1.00
C1033  C     0.53715   0.82676   0.90637   0.00000  Uiso   1.00
C1034  C     0.46285   0.83990   0.59363   0.00000  Uiso   1.00
C1035  C     0.50024   0.83339   0.88362   0.00000  Uiso   1.00
C1036  C     0.57914   0.83336   0.75058   0.00000  Uiso   1.00
C1037  C     0.49976   0.83328   0.61638   0.00000  Uiso   1.00
C1038  C     0.46339   0.83865   0.90643   0.00000  Uiso   1.00
C1039  C     0.53661   0.82801   0.59358   0.00000  Uiso   1.00
C1040  C     0.46313   0.83883   0.95286   0.00000  Uiso   1.00
C1041  C     0.53687   0.82784   0.54714   0.00000  Uiso   1.00
C1042  C     0.50030   0.83321   0.97654   0.00000  Uiso   1.00
C1043  C     0.49969   0.83345   0.52346   0.00000  Uiso   1.00
C1044  C     0.53794   0.82715   0.95330   0.00000  Uiso   1.00
C1045  C     0.46205   0.83951   0.54670   0.00000  Uiso   1.00
C1046  C     0.42614   0.84447   0.97577   0.00000  Uiso   1.00
C1047  C     0.42516   0.84487   0.52216   0.00000  Uiso   1.00
C1048  C     0.57385   0.82219   0.52423   0.00000  Uiso   1.00
C1049  C     0.38550   0.85041   0.54298   0.00000  Uiso   1.00
C1050  C     0.61450   0.81625   0.95702   0.00000  Uiso   1.00
C1051  C     0.37528   0.78103   0.68297   0.00000  Uiso   1.00
C1052  C     0.62472   0.88562   0.81703   0.00000  Uiso   1.00
C1053  C     0.62247   0.77361   0.68954   0.00000  Uiso   1.00
C1054  C     0.37753   0.89304   0.81047   0.00000  Uiso   1.00
C1055  C     0.57484   0.82179   0.97785   0.00000  Uiso   1.00
C1056  C     0.35430   0.80570   0.71849   0.00000  Uiso   1.00
C1057  C     0.64570   0.86096   0.78151   0.00000  Uiso   1.00
C1058  C     0.64475   0.80451   0.71983   0.00000  Uiso   1.00
C1059  C     0.35525   0.86215   0.78016   0.00000  Uiso   1.00
C1060  C     0.62381   0.83302   0.75067   0.00000  Uiso   1.00
Cu1061 Cu    0.50000   0.88022   0.75000   0.00000  Uiso   1.00
Cu1062 Cu    0.50000   0.78645   0.75000   0.00000  Uiso   1.00
F1063  F     0.57169   0.81945   0.88212   0.00000  Uiso   1.00
F1064  F     0.42831   0.84721   0.61788   0.00000  Uiso   1.00
F1065  F     0.42772   0.84231   0.88319   0.00000  Uiso   1.00
F1066  F     0.57228   0.82435   0.61681   0.00000  Uiso   1.00
F1067  F     0.45455   0.71338   0.68906   0.00000  Uiso   1.00
F1068  F     0.54546   0.95328   0.81094   0.00000  Uiso   1.00
F1069  F     0.54670   0.71537   0.81006   0.00000  Uiso   1.00
F1070  F     0.45330   0.95130   0.68994   0.00000  Uiso   1.00
H1071  H     0.39767   0.84869   0.95745   0.00000  Uiso   1.00
H1072  H     0.60233   0.81797   0.54255   0.00000  Uiso   1.00
N1073  N     0.50000   0.95069   0.75000   0.00000  Uiso   1.00
N1074  N     0.50000   0.71598   0.75000   0.00000  Uiso   1.00
N1075  N     0.35369   0.85483   0.55951   0.00000  Uiso   1.00
N1076  N     0.64630   0.81183   0.94049   0.00000  Uiso   1.00
N1077  N     0.39131   0.76157   0.65406   0.00000  Uiso   1.00
N1078  N     0.60869   0.90507   0.84595   0.00000  Uiso   1.00
N1079  N     0.60490   0.74859   0.66566   0.00000  Uiso   1.00
N1080  N     0.39510   0.91804   0.83436   0.00000  Uiso   1.00
O1081  O     0.43988   0.87291   0.75000   0.00000  Uiso   1.00
O1082  O     0.56012   0.79375   0.75001   0.00000  Uiso   1.00
O1083  O     0.56012   0.87291   0.75001   0.00000  Uiso   1.00
O1084  O     0.43988   0.79375   0.75000   0.00000  Uiso   1.00
O1085  O     0.49999   0.87293   0.68513   0.00000  Uiso   1.00
O1086  O     0.50001   0.79373   0.81487   0.00000  Uiso   1.00
O1087  O     0.50001   0.87293   0.81487   0.00000  Uiso   1.00
O1088  O     0.49999   0.79373   0.68513   0.00000  Uiso   1.00
C1089  C     0.75420   0.83331   0.74942   0.00000  Uiso   1.00
C1090  C     0.70952   0.83365   0.74933   0.00000  Uiso   1.00
C1091  C     0.81045   0.69090   0.71983   0.00000  Uiso   1.00
C1092  C     0.85622   0.97577   0.78017   0.00000  Uiso   1.00
C1093  C     0.85642   0.69188   0.78005   0.00000  Uiso   1.00
C1094  C     0.81024   0.97479   0.71995   0.00000  Uiso   1.00
C1095  C     0.83331   0.83325   0.66454   0.00000  Uiso   1.00
C1096  C     0.83336   0.83341   0.83546   0.00000  Uiso   1.00
C1097  C     0.87048   0.82676   0.90637   0.00000  Uiso   1.00
C1098  C     0.79618   0.83990   0.59363   0.00000  Uiso   1.00
C1099  C     0.83357   0.83339   0.88362   0.00000  Uiso   1.00
C1100  C     0.91247   0.83336   0.75058   0.00000  Uiso   1.00
C1101  C     0.83309   0.83328   0.61638   0.00000  Uiso   1.00
C1102  C     0.79672   0.83865   0.90643   0.00000  Uiso   1.00
C1103  C     0.86994   0.82801   0.59358   0.00000  Uiso   1.00
C1104  C     0.79646   0.83883   0.95286   0.00000  Uiso   1.00
C1105  C     0.87020   0.82784   0.54714   0.00000  Uiso   1.00
C1106  C     0.83364   0.83321   0.97654   0.00000  Uiso   1.00
C1107  C     0.83303   0.83345   0.52346   0.00000  Uiso   1.00
C1108  C     0.87128   0.82715   0.95330   0.00000  Uiso   1.00
C1109  C     0.79539   0.83951   0.54670   0.00000  Uiso   1.00
C1110  C     0.75948   0.84447   0.97577   0.00000  Uiso   1.00
C1111  C     0.75849   0.84487   0.52216   0.00000  Uiso   1.00
C1112  C     0.90719   0.82219   0.52423   0.00000  Uiso   1.00
C1113  C     0.71883   0.85041   0.54298   0.00000  Uiso   1.00
C1114  C     0.94783   0.81625   0.95702   0.00000  Uiso   1.00
C1115  C     0.70862   0.78103   0.68297   0.00000  Uiso   1.00
C1116  C     0.95805   0.88562   0.81703   0.00000  Uiso   1.00
C1117  C     0.95580   0.77361   0.68954   0.00000  Uiso   1.00
C1118  C     0.71087   0.89304   0.81047   0.00000  Uiso   1.00
C1119  C     0.90817   0.82179   0.97785   0.00000  Uiso   1.00
C1120  C     0.68763   0.80570   0.71849   0.00000  Uiso   1.00
C1121  C     0.97903   0.86096   0.78151   0.00000  Uiso   1.00
C1122  C     0.97808   0.80451   0.71983   0.00000  Uiso   1.00
C1123  C     0.68858   0.86215   0.78016   0.00000  Uiso   1.00
C1124  C     0.95714   0.83302   0.75067   0.00000  Uiso   1.00
Cu1125 Cu    0.83333   0.88022   0.75000   0.00000  Uiso   1.00
Cu1126 Cu    0.83333   0.78645   0.75000   0.00000  Uiso   1.00
F1127  F     0.90502   0.81945   0.88212   0.00000  Uiso   1.00
F1128  F     0.76164   0.84721   0.61788   0.00000  Uiso   1.00
F1129  F     0.76105   0.84231   0.88319   0.00000  Uiso   1.00
F1130  F     0.90561   0.82435   0.61681   0.00000  Uiso   1.00
F1131  F     0.78788   0.71338   0.68906   0.00000  Uiso   1.00
F1132  F     0.87879   0.95328   0.81094   0.00000  Uiso   1.00
F1133  F     0.88004   0.71537   0.81006   0.00000  Uiso   1.00
F1134  F     0.78663   0.95130   0.68994   0.00000  Uiso   1.00
H1135  H     0.73100   0.84869   0.95745   0.00000  Uiso   1.00
H1136  H     0.93566   0.81797   0.54255   0.00000  Uiso   1.00
N1137  N     0.83333   0.95069   0.75000   0.00000  Uiso   1.00
N1138  N     0.83333   0.71598   0.75000   0.00000  Uiso   1.00
N1139  N     0.68702   0.85483   0.55951   0.00000  Uiso   1.00
N1140  N     0.97964   0.81183   0.94049   0.00000  Uiso   1.00
N1141  N     0.72464   0.76157   0.65406   0.00000  Uiso   1.00
N1142  N     0.94202   0.90507   0.84595   0.00000  Uiso   1.00
N1143  N     0.93823   0.74859   0.66566   0.00000  Uiso   1.00
N1144  N     0.72843   0.91804   0.83436   0.00000  Uiso   1.00
O1145  O     0.77321   0.87291   0.75000   0.00000  Uiso   1.00
O1146  O     0.89345   0.79375   0.75001   0.00000  Uiso   1.00
O1147  O     0.89345   0.87291   0.75001   0.00000  Uiso   1.00
O1148  O     0.77321   0.79375   0.75000   0.00000  Uiso   1.00
O1149  O     0.83332   0.87293   0.68513   0.00000  Uiso   1.00
O1150  O     0.83334   0.79373   0.81487   0.00000  Uiso   1.00
O1151  O     0.83334   0.87293   0.81487   0.00000  Uiso   1.00
O1152  O     0.83332   0.79373   0.68513   0.00000  Uiso   1.00
loop_
_geom_bond_atom_site_label_1
_geom_bond_atom_site_label_2
_geom_bond_distance
_geom_bond_site_symmetry_2
_ccdc_geom_bond_type
C1     O57     1.289   .     A
C1     C2      1.455   .     S
C1     O60     1.296   .     A
C2     C35     1.411   .     A
C2     C32     1.409   .     A
C3     F43     1.350   .     S
C3     N50     1.368   .     A
C3     C390    1.417   1_545 S
C4     N49     1.368   .     A
C4     F44     1.350   .     S
C4     C197    1.417   .     S
C5     F45     1.355   .     S
C5     N50     1.367   .     A
C5     C388    1.417   1_545 S
C6     F46     1.355   .     S
C6     N49     1.367   .     A
C6     C195    1.417   .     S
C7     C13     1.447   .     S
C7     O64     1.295   .     A
C7     O61     1.291   .     A
C8     C11     1.447   .     S
C8     O63     1.295   .     A
C8     O62     1.291   .     A
C9     C20     1.410   .     A
C9     C11     1.396   .     A
C9     F39     1.359   .     S
C10    C21     1.410   .     A
C10    F40     1.359   .     S
C10    C13     1.396   .     A
C11    C14     1.392   .     A
C12    C36     1.455   .     S
C12    O58     1.289   .     A
C12    O59     1.296   .     A
C13    C15     1.392   .     A
C14    F41     1.358   .     S
C14    C16     1.395   .     A
C15    C17     1.395   .     A
C15    F42     1.358   .     S
C16    C18     1.413   .     A
C16    C22     1.399   .     A
C17    C24     1.399   .     A
C17    C19     1.413   .     A
C18    C20     1.424   .     A
C18    C595    1.409   .     S
C19    C21     1.424   .     A
C19    C594    1.409   1_554 S
C20    C31     1.418   .     A
C21    C23     1.418   .     A
C22    H47     1.085   .     S
C22    C599    1.394   .     S
C23    C25     1.446   .     S
C23    C598    1.394   1_554 S
C24    H48     1.085   .     S
C24    C607    1.394   1_554 S
C25    N51     1.158   .     T
C26    N52     1.158   .     T
C26    C31     1.446   .     S
C27    N53     1.157   .     T
C27    C32     1.451   .     S
C28    C33     1.451   .     S
C28    N54     1.157   .     T
C29    C34     1.454   .     S
C29    N55     1.157   .     T
C30    C35     1.454   .     S
C30    N56     1.157   .     T
C31    C600    1.394   .     S
C32    C162    1.398   1_455 S
C33    C36     1.409   .     A
C33    C99     1.398   .     S
C34    C36     1.411   .     A
C34    C96     1.398   .     S
C35    C161    1.398   1_455 S
Cu37   O61     1.958   .     S
Cu37   O57     1.968   .     S
Cu37   Cu38    2.688   .     S
Cu37   O59     1.971   .     S
Cu37   N49     2.020   .     S
Cu37   O63     1.961   .     S
Cu38   N50     2.020   .     S
Cu38   O60     1.971   .     S
Cu38   O64     1.961   .     S
Cu38   O58     1.968   .     S
Cu38   O62     1.958   .     S
C65    O121    1.289   .     A
C65    C66     1.455   .     S
C65    O124    1.296   .     A
C66    C99     1.411   .     A
C66    C96     1.409   .     A
C67    F107    1.350   .     S
C67    N114    1.368   .     A
C67    C454    1.417   1_545 S
C68    N113    1.368   .     A
C68    F108    1.350   .     S
C68    C261    1.417   .     S
C69    F109    1.355   .     S
C69    N114    1.367   .     A
C69    C452    1.417   1_545 S
C70    F110    1.355   .     S
C70    N113    1.367   .     A
C70    C259    1.417   .     S
C71    C77     1.447   .     S
C71    O128    1.295   .     A
C71    O125    1.291   .     A
C72    C75     1.447   .     S
C72    O127    1.295   .     A
C72    O126    1.291   .     A
C73    C84     1.410   .     A
C73    C75     1.396   .     A
C73    F103    1.359   .     S
C74    C85     1.410   .     A
C74    F104    1.359   .     S
C74    C77     1.396   .     A
C75    C78     1.392   .     A
C76    C100    1.455   .     S
C76    O122    1.289   .     A
C76    O123    1.296   .     A
C77    C79     1.392   .     A
C78    F105    1.358   .     S
C78    C80     1.395   .     A
C79    C81     1.395   .     A
C79    F106    1.358   .     S
C80    C82     1.413   .     A
C80    C86     1.399   .     A
C81    C88     1.399   .     A
C81    C83     1.413   .     A
C82    C84     1.424   .     A
C82    C659    1.409   .     S
C83    C85     1.424   .     A
C83    C658    1.409   1_554 S
C84    C95     1.418   .     A
C85    C87     1.418   .     A
C86    H111    1.085   .     S
C86    C663    1.394   .     S
C87    C89     1.446   .     S
C87    C662    1.394   1_554 S
C88    H112    1.085   .     S
C88    C671    1.394   1_554 S
C89    N115    1.158   .     T
C90    N116    1.158   .     T
C90    C95     1.446   .     S
C91    N117    1.157   .     T
C91    C96     1.451   .     S
C92    C97     1.451   .     S
C92    N118    1.157   .     T
C93    C98     1.454   .     S
C93    N119    1.157   .     T
C94    C99     1.454   .     S
C94    N120    1.157   .     T
C95    C664    1.394   .     S
C97    C100    1.409   .     A
C97    C163    1.398   .     S
C98    C100    1.411   .     A
C98    C160    1.398   .     S
Cu101  O125    1.958   .     S
Cu101  O121    1.968   .     S
Cu101  Cu102   2.688   .     S
Cu101  O123    1.971   .     S
Cu101  N113    2.020   .     S
Cu101  O127    1.961   .     S
Cu102  N114    2.020   .     S
Cu102  O124    1.971   .     S
Cu102  O128    1.961   .     S
Cu102  O122    1.968   .     S
Cu102  O126    1.958   .     S
C129   O185    1.289   .     A
C129   C130    1.455   .     S
C129   O188    1.296   .     A
C130   C163    1.411   .     A
C130   C160    1.409   .     A
C131   F171    1.350   .     S
C131   N178    1.368   .     A
C131   C518    1.417   1_545 S
C132   N177    1.368   .     A
C132   F172    1.350   .     S
C132   C325    1.417   .     S
C133   F173    1.355   .     S
C133   N178    1.367   .     A
C133   C516    1.417   1_545 S
C134   F174    1.355   .     S
C134   N177    1.367   .     A
C134   C323    1.417   .     S
C135   C141    1.447   .     S
C135   O192    1.295   .     A
C135   O189    1.291   .     A
C136   C139    1.447   .     S
C136   O191    1.295   .     A
C136   O190    1.291   .     A
C137   C148    1.410   .     A
C137   C139    1.396   .     A
C137   F167    1.359   .     S
C138   C149    1.410   .     A
C138   F168    1.359   .     S
C138   C141    1.396   .     A
C139   C142    1.392   .     A
C140   C164    1.455   .     S
C140   O186    1.289   .     A
C140   O187    1.296   .     A
C141   C143    1.392   .     A
C142   F169    1.358   .     S
C142   C144    1.395   .     A
C143   C145    1.395   .     A
C143   F170    1.358   .     S
C144   C146    1.413   .     A
C144   C150    1.399   .     A
C145   C152    1.399   .     A
C145   C147    1.413   .     A
C146   C148    1.424   .     A
C146   C723    1.409   .     S
C147   C149    1.424   .     A
C147   C722    1.409   1_554 S
C148   C159    1.418   .     A
C149   C151    1.418   .     A
C150   H175    1.085   .     S
C150   C727    1.394   .     S
C151   C153    1.446   .     S
C151   C726    1.394   1_554 S
C152   H176    1.085   .     S
C152   C735    1.394   1_554 S
C153   N179    1.158   .     T
C154   N180    1.158   .     T
C154   C159    1.446   .     S
C155   N181    1.157   .     T
C155   C160    1.451   .     S
C156   C161    1.451   .     S
C156   N182    1.157   .     T
C157   C162    1.454   .     S
C157   N183    1.157   .     T
C158   C163    1.454   .     S
C158   N184    1.157   .     T
C159   C728    1.394   .     S
C161   C164    1.409   .     A
C161   C35     1.398   1_655 S
C162   C164    1.411   .     A
C162   C32     1.398   1_655 S
Cu165  O189    1.958   .     S
Cu165  O185    1.968   .     S
Cu165  Cu166   2.688   .     S
Cu165  O187    1.971   .     S
Cu165  N177    2.020   .     S
Cu165  O191    1.961   .     S
Cu166  N178    2.020   .     S
Cu166  O188    1.971   .     S
Cu166  O192    1.961   .     S
Cu166  O186    1.968   .     S
Cu166  O190    1.958   .     S
C193   O249    1.289   .     A
C193   C194    1.455   .     S
C193   O252    1.296   .     A
C194   C227    1.411   .     A
C194   C224    1.409   .     A
C195   F235    1.350   .     S
C195   N242    1.368   .     A
C196   N241    1.368   .     A
C196   F236    1.350   .     S
C196   C389    1.417   .     S
C197   F237    1.355   .     S
C197   N242    1.367   .     A
C198   F238    1.355   .     S
C198   N241    1.367   .     A
C198   C387    1.417   .     S
C199   C205    1.447   .     S
C199   O256    1.295   .     A
C199   O253    1.291   .     A
C200   C203    1.447   .     S
C200   O255    1.295   .     A
C200   O254    1.291   .     A
C201   C212    1.410   .     A
C201   C203    1.396   .     A
C201   F231    1.359   .     S
C202   C213    1.410   .     A
C202   F232    1.359   .     S
C202   C205    1.396   .     A
C203   C206    1.392   .     A
C204   C228    1.455   .     S
C204   O250    1.289   .     A
C204   O251    1.296   .     A
C205   C207    1.392   .     A
C206   F233    1.358   .     S
C206   C208    1.395   .     A
C207   C209    1.395   .     A
C207   F234    1.358   .     S
C208   C210    1.413   .     A
C208   C214    1.399   .     A
C209   C216    1.399   .     A
C209   C211    1.413   .     A
C210   C212    1.424   .     A
C210   C787    1.409   .     S
C211   C213    1.424   .     A
C211   C786    1.409   1_554 S
C212   C223    1.418   .     A
C213   C215    1.418   .     A
C214   H239    1.085   .     S
C214   C791    1.394   .     S
C215   C217    1.446   .     S
C215   C790    1.394   1_554 S
C216   H240    1.085   .     S
C216   C799    1.394   1_554 S
C217   N243    1.158   .     T
C218   N244    1.158   .     T
C218   C223    1.446   .     S
C219   N245    1.157   .     T
C219   C224    1.451   .     S
C220   C225    1.451   .     S
C220   N246    1.157   .     T
C221   C226    1.454   .     S
C221   N247    1.157   .     T
C222   C227    1.454   .     S
C222   N248    1.157   .     T
C223   C792    1.394   .     S
C224   C354    1.398   1_455 S
C225   C228    1.409   .     A
C225   C291    1.398   .     S
C226   C228    1.411   .     A
C226   C288    1.398   .     S
C227   C353    1.398   1_455 S
Cu229  O253    1.958   .     S
Cu229  O249    1.968   .     S
Cu229  Cu230   2.688   .     S
Cu229  O251    1.971   .     S
Cu229  N241    2.020   .     S
Cu229  O255    1.961   .     S
Cu230  N242    2.020   .     S
Cu230  O252    1.971   .     S
Cu230  O256    1.961   .     S
Cu230  O250    1.968   .     S
Cu230  O254    1.958   .     S
C257   O313    1.289   .     A
C257   C258    1.455   .     S
C257   O316    1.296   .     A
C258   C291    1.411   .     A
C258   C288    1.409   .     A
C259   F299    1.350   .     S
C259   N306    1.368   .     A
C260   N305    1.368   .     A
C260   F300    1.350   .     S
C260   C453    1.417   .     S
C261   F301    1.355   .     S
C261   N306    1.367   .     A
C262   F302    1.355   .     S
C262   N305    1.367   .     A
C262   C451    1.417   .     S
C263   C269    1.447   .     S
C263   O320    1.295   .     A
C263   O317    1.291   .     A
C264   C267    1.447   .     S
C264   O319    1.295   .     A
C264   O318    1.291   .     A
C265   C276    1.410   .     A
C265   C267    1.396   .     A
C265   F295    1.359   .     S
C266   C277    1.410   .     A
C266   F296    1.359   .     S
C266   C269    1.396   .     A
C267   C270    1.392   .     A
C268   C292    1.455   .     S
C268   O314    1.289   .     A
C268   O315    1.296   .     A
C269   C271    1.392   .     A
C270   F297    1.358   .     S
C270   C272    1.395   .     A
C271   C273    1.395   .     A
C271   F298    1.358   .     S
C272   C274    1.413   .     A
C272   C278    1.399   .     A
C273   C280    1.399   .     A
C273   C275    1.413   .     A
C274   C276    1.424   .     A
C274   C851    1.409   .     S
C275   C277    1.424   .     A
C275   C850    1.409   1_554 S
C276   C287    1.418   .     A
C277   C279    1.418   .     A
C278   H303    1.085   .     S
C278   C855    1.394   .     S
C279   C281    1.446   .     S
C279   C854    1.394   1_554 S
C280   H304    1.085   .     S
C280   C863    1.394   1_554 S
C281   N307    1.158   .     T
C282   N308    1.158   .     T
C282   C287    1.446   .     S
C283   N309    1.157   .     T
C283   C288    1.451   .     S
C284   C289    1.451   .     S
C284   N310    1.157   .     T
C285   C290    1.454   .     S
C285   N311    1.157   .     T
C286   C291    1.454   .     S
C286   N312    1.157   .     T
C287   C856    1.394   .     S
C289   C292    1.409   .     A
C289   C355    1.398   .     S
C290   C292    1.411   .     A
C290   C352    1.398   .     S
Cu293  O317    1.958   .     S
Cu293  O313    1.968   .     S
Cu293  Cu294   2.688   .     S
Cu293  O315    1.971   .     S
Cu293  N305    2.020   .     S
Cu293  O319    1.961   .     S
Cu294  N306    2.020   .     S
Cu294  O316    1.971   .     S
Cu294  O320    1.961   .     S
Cu294  O314    1.968   .     S
Cu294  O318    1.958   .     S
C321   O377    1.289   .     A
C321   C322    1.455   .     S
C321   O380    1.296   .     A
C322   C355    1.411   .     A
C322   C352    1.409   .     A
C323   F363    1.350   .     S
C323   N370    1.368   .     A
C324   N369    1.368   .     A
C324   F364    1.350   .     S
C324   C517    1.417   .     S
C325   F365    1.355   .     S
C325   N370    1.367   .     A
C326   F366    1.355   .     S
C326   N369    1.367   .     A
C326   C515    1.417   .     S
C327   C333    1.447   .     S
C327   O384    1.295   .     A
C327   O381    1.291   .     A
C328   C331    1.447   .     S
C328   O383    1.295   .     A
C328   O382    1.291   .     A
C329   C340    1.410   .     A
C329   C331    1.396   .     A
C329   F359    1.359   .     S
C330   C341    1.410   .     A
C330   F360    1.359   .     S
C330   C333    1.396   .     A
C331   C334    1.392   .     A
C332   C356    1.455   .     S
C332   O378    1.289   .     A
C332   O379    1.296   .     A
C333   C335    1.392   .     A
C334   F361    1.358   .     S
C334   C336    1.395   .     A
C335   C337    1.395   .     A
C335   F362    1.358   .     S
C336   C338    1.413   .     A
C336   C342    1.399   .     A
C337   C344    1.399   .     A
C337   C339    1.413   .     A
C338   C340    1.424   .     A
C338   C915    1.409   .     S
C339   C341    1.424   .     A
C339   C914    1.409   1_554 S
C340   C351    1.418   .     A
C341   C343    1.418   .     A
C342   H367    1.085   .     S
C342   C919    1.394   .     S
C343   C345    1.446   .     S
C343   C918    1.394   1_554 S
C344   H368    1.085   .     S
C344   C927    1.394   1_554 S
C345   N371    1.158   .     T
C346   N372    1.158   .     T
C346   C351    1.446   .     S
C347   N373    1.157   .     T
C347   C352    1.451   .     S
C348   C353    1.451   .     S
C348   N374    1.157   .     T
C349   C354    1.454   .     S
C349   N375    1.157   .     T
C350   C355    1.454   .     S
C350   N376    1.157   .     T
C351   C920    1.394   .     S
C353   C356    1.409   .     A
C353   C227    1.398   1_655 S
C354   C356    1.411   .     A
C354   C224    1.398   1_655 S
Cu357  O381    1.958   .     S
Cu357  O377    1.968   .     S
Cu357  Cu358   2.688   .     S
Cu357  O379    1.971   .     S
Cu357  N369    2.020   .     S
Cu357  O383    1.961   .     S
Cu358  N370    2.020   .     S
Cu358  O380    1.971   .     S
Cu358  O384    1.961   .     S
Cu358  O378    1.968   .     S
Cu358  O382    1.958   .     S
C385   O441    1.289   .     A
C385   C386    1.455   .     S
C385   O444    1.296   .     A
C386   C419    1.411   .     A
C386   C416    1.409   .     A
C387   F427    1.350   .     S
C387   N434    1.368   .     A
C388   N433    1.368   .     A
C388   F428    1.350   .     S
C388   C5      1.417   1_565 S
C389   F429    1.355   .     S
C389   N434    1.367   .     A
C390   F430    1.355   .     S
C390   N433    1.367   .     A
C390   C3      1.417   1_565 S
C391   C397    1.447   .     S
C391   O448    1.295   .     A
C391   O445    1.291   .     A
C392   C395    1.447   .     S
C392   O447    1.295   .     A
C392   O446    1.291   .     A
C393   C404    1.410   .     A
C393   C395    1.396   .     A
C393   F423    1.359   .     S
C394   C405    1.410   .     A
C394   F424    1.359   .     S
C394   C397    1.396   .     A
C395   C398    1.392   .     A
C396   C420    1.455   .     S
C396   O442    1.289   .     A
C396   O443    1.296   .     A
C397   C399    1.392   .     A
C398   F425    1.358   .     S
C398   C400    1.395   .     A
C399   C401    1.395   .     A
C399   F426    1.358   .     S
C400   C402    1.413   .     A
C400   C406    1.399   .     A
C401   C408    1.399   .     A
C401   C403    1.413   .     A
C402   C404    1.424   .     A
C402   C979    1.409   .     S
C403   C405    1.424   .     A
C403   C978    1.409   1_554 S
C404   C415    1.418   .     A
C405   C407    1.418   .     A
C406   H431    1.085   .     S
C406   C983    1.394   .     S
C407   C409    1.446   .     S
C407   C982    1.394   1_554 S
C408   H432    1.085   .     S
C408   C991    1.394   1_554 S
C409   N435    1.158   .     T
C410   N436    1.158   .     T
C410   C415    1.446   .     S
C411   N437    1.157   .     T
C411   C416    1.451   .     S
C412   C417    1.451   .     S
C412   N438    1.157   .     T
C413   C418    1.454   .     S
C413   N439    1.157   .     T
C414   C419    1.454   .     S
C414   N440    1.157   .     T
C415   C984    1.394   .     S
C416   C546    1.398   1_455 S
C417   C420    1.409   .     A
C417   C483    1.398   .     S
C418   C420    1.411   .     A
C418   C480    1.398   .     S
C419   C545    1.398   1_455 S
Cu421  O445    1.958   .     S
Cu421  O441    1.968   .     S
Cu421  Cu422   2.688   .     S
Cu421  O443    1.971   .     S
Cu421  N433    2.020   .     S
Cu421  O447    1.961   .     S
Cu422  N434    2.020   .     S
Cu422  O444    1.971   .     S
Cu422  O448    1.961   .     S
Cu422  O442    1.968   .     S
Cu422  O446    1.958   .     S
C449   O505    1.289   .     A
C449   C450    1.455   .     S
C449   O508    1.296   .     A
C450   C483    1.411   .     A
C450   C480    1.409   .     A
C451   F491    1.350   .     S
C451   N498    1.368   .     A
C452   N497    1.368   .     A
C452   F492    1.350   .     S
C452   C69     1.417   1_565 S
C453   F493    1.355   .     S
C453   N498    1.367   .     A
C454   F494    1.355   .     S
C454   N497    1.367   .     A
C454   C67     1.417   1_565 S
C455   C461    1.447   .     S
C455   O512    1.295   .     A
C455   O509    1.291   .     A
C456   C459    1.447   .     S
C456   O511    1.295   .     A
C456   O510    1.291   .     A
C457   C468    1.410   .     A
C457   C459    1.396   .     A
C457   F487    1.359   .     S
C458   C469    1.410   .     A
C458   F488    1.359   .     S
C458   C461    1.396   .     A
C459   C462    1.392   .     A
C460   C484    1.455   .     S
C460   O506    1.289   .     A
C460   O507    1.296   .     A
C461   C463    1.392   .     A
C462   F489    1.358   .     S
C462   C464    1.395   .     A
C463   C465    1.395   .     A
C463   F490    1.358   .     S
C464   C466    1.413   .     A
C464   C470    1.399   .     A
C465   C472    1.399   .     A
C465   C467    1.413   .     A
C466   C468    1.424   .     A
C466   C1043   1.409   .     S
C467   C469    1.424   .     A
C467   C1042   1.409   1_554 S
C468   C479    1.418   .     A
C469   C471    1.418   .     A
C470   H495    1.085   .     S
C470   C1047   1.394   .     S
C471   C473    1.446   .     S
C471   C1046   1.394   1_554 S
C472   H496    1.085   .     S
C472   C1055   1.394   1_554 S
C473   N499    1.158   .     T
C474   N500    1.158   .     T
C474   C479    1.446   .     S
C475   N501    1.157   .     T
C475   C480    1.451   .     S
C476   C481    1.451   .     S
C476   N502    1.157   .     T
C477   C482    1.454   .     S
C477   N503    1.157   .     T
C478   C483    1.454   .     S
C478   N504    1.157   .     T
C479   C1048   1.394   .     S
C481   C484    1.409   .     A
C481   C547    1.398   .     S
C482   C484    1.411   .     A
C482   C544    1.398   .     S
Cu485  O509    1.958   .     S
Cu485  O505    1.968   .     S
Cu485  Cu486   2.688   .     S
Cu485  O507    1.971   .     S
Cu485  N497    2.020   .     S
Cu485  O511    1.961   .     S
Cu486  N498    2.020   .     S
Cu486  O508    1.971   .     S
Cu486  O512    1.961   .     S
Cu486  O506    1.968   .     S
Cu486  O510    1.958   .     S
C513   O569    1.289   .     A
C513   C514    1.455   .     S
C513   O572    1.296   .     A
C514   C547    1.411   .     A
C514   C544    1.409   .     A
C515   F555    1.350   .     S
C515   N562    1.368   .     A
C516   N561    1.368   .     A
C516   F556    1.350   .     S
C516   C133    1.417   1_565 S
C517   F557    1.355   .     S
C517   N562    1.367   .     A
C518   F558    1.355   .     S
C518   N561    1.367   .     A
C518   C131    1.417   1_565 S
C519   C525    1.447   .     S
C519   O576    1.295   .     A
C519   O573    1.291   .     A
C520   C523    1.447   .     S
C520   O575    1.295   .     A
C520   O574    1.291   .     A
C521   C532    1.410   .     A
C521   C523    1.396   .     A
C521   F551    1.359   .     S
C522   C533    1.410   .     A
C522   F552    1.359   .     S
C522   C525    1.396   .     A
C523   C526    1.392   .     A
C524   C548    1.455   .     S
C524   O570    1.289   .     A
C524   O571    1.296   .     A
C525   C527    1.392   .     A
C526   F553    1.358   .     S
C526   C528    1.395   .     A
C527   C529    1.395   .     A
C527   F554    1.358   .     S
C528   C530    1.413   .     A
C528   C534    1.399   .     A
C529   C536    1.399   .     A
C529   C531    1.413   .     A
C530   C532    1.424   .     A
C530   C1107   1.409   .     S
C531   C533    1.424   .     A
C531   C1106   1.409   1_554 S
C532   C543    1.418   .     A
C533   C535    1.418   .     A
C534   H559    1.085   .     S
C534   C1111   1.394   .     S
C535   C537    1.446   .     S
C535   C1110   1.394   1_554 S
C536   H560    1.085   .     S
C536   C1119   1.394   1_554 S
C537   N563    1.158   .     T
C538   N564    1.158   .     T
C538   C543    1.446   .     S
C539   N565    1.157   .     T
C539   C544    1.451   .     S
C540   C545    1.451   .     S
C540   N566    1.157   .     T
C541   C546    1.454   .     S
C541   N567    1.157   .     T
C542   C547    1.454   .     S
C542   N568    1.157   .     T
C543   C1112   1.394   .     S
C545   C548    1.409   .     A
C545   C419    1.398   1_655 S
C546   C548    1.411   .     A
C546   C416    1.398   1_655 S
Cu549  O573    1.958   .     S
Cu549  O569    1.968   .     S
Cu549  Cu550   2.688   .     S
Cu549  O571    1.971   .     S
Cu549  N561    2.020   .     S
Cu549  O575    1.961   .     S
Cu550  N562    2.020   .     S
Cu550  O572    1.971   .     S
Cu550  O576    1.961   .     S
Cu550  O570    1.968   .     S
Cu550  O574    1.958   .     S
C577   O633    1.289   .     A
C577   C578    1.455   .     S
C577   O636    1.296   .     A
C578   C611    1.411   .     A
C578   C608    1.409   .     A
C579   F619    1.350   .     S
C579   N626    1.368   .     A
C579   C966    1.417   1_545 S
C580   N625    1.368   .     A
C580   F620    1.350   .     S
C580   C773    1.417   .     S
C581   F621    1.355   .     S
C581   N626    1.367   .     A
C581   C964    1.417   1_545 S
C582   F622    1.355   .     S
C582   N625    1.367   .     A
C582   C771    1.417   .     S
C583   C589    1.447   .     S
C583   O640    1.295   .     A
C583   O637    1.291   .     A
C584   C587    1.447   .     S
C584   O639    1.295   .     A
C584   O638    1.291   .     A
C585   C596    1.410   .     A
C585   C587    1.396   .     A
C585   F615    1.359   .     S
C586   C597    1.410   .     A
C586   F616    1.359   .     S
C586   C589    1.396   .     A
C587   C590    1.392   .     A
C588   C612    1.455   .     S
C588   O634    1.289   .     A
C588   O635    1.296   .     A
C589   C591    1.392   .     A
C590   F617    1.358   .     S
C590   C592    1.395   .     A
C591   C593    1.395   .     A
C591   F618    1.358   .     S
C592   C594    1.413   .     A
C592   C598    1.399   .     A
C593   C600    1.399   .     A
C593   C595    1.413   .     A
C594   C596    1.424   .     A
C594   C19     1.409   1_556 S
C595   C597    1.424   .     A
C596   C607    1.418   .     A
C597   C599    1.418   .     A
C598   H623    1.085   .     S
C598   C23     1.394   1_556 S
C599   C601    1.446   .     S
C600   H624    1.085   .     S
C601   N627    1.158   .     T
C602   N628    1.158   .     T
C602   C607    1.446   .     S
C603   N629    1.157   .     T
C603   C608    1.451   .     S
C604   C609    1.451   .     S
C604   N630    1.157   .     T
C605   C610    1.454   .     S
C605   N631    1.157   .     T
C606   C611    1.454   .     S
C606   N632    1.157   .     T
C607   C24     1.394   1_556 S
C608   C738    1.398   1_455 S
C609   C612    1.409   .     A
C609   C675    1.398   .     S
C610   C612    1.411   .     A
C610   C672    1.398   .     S
C611   C737    1.398   1_455 S
Cu613  O637    1.958   .     S
Cu613  O633    1.968   .     S
Cu613  Cu614   2.688   .     S
Cu613  O635    1.971   .     S
Cu613  N625    2.020   .     S
Cu613  O639    1.961   .     S
Cu614  N626    2.020   .     S
Cu614  O636    1.971   .     S
Cu614  O640    1.961   .     S
Cu614  O634    1.968   .     S
Cu614  O638    1.958   .     S
C641   O697    1.289   .     A
C641   C642    1.455   .     S
C641   O700    1.296   .     A
C642   C675    1.411   .     A
C642   C672    1.409   .     A
C643   F683    1.350   .     S
C643   N690    1.368   .     A
C643   C1030   1.417   1_545 S
C644   N689    1.368   .     A
C644   F684    1.350   .     S
C644   C837    1.417   .     S
C645   F685    1.355   .     S
C645   N690    1.367   .     A
C645   C1028   1.417   1_545 S
C646   F686    1.355   .     S
C646   N689    1.367   .     A
C646   C835    1.417   .     S
C647   C653    1.447   .     S
C647   O704    1.295   .     A
C647   O701    1.291   .     A
C648   C651    1.447   .     S
C648   O703    1.295   .     A
C648   O702    1.291   .     A
C649   C660    1.410   .     A
C649   C651    1.396   .     A
C649   F679    1.359   .     S
C650   C661    1.410   .     A
C650   F680    1.359   .     S
C650   C653    1.396   .     A
C651   C654    1.392   .     A
C652   C676    1.455   .     S
C652   O698    1.289   .     A
C652   O699    1.296   .     A
C653   C655    1.392   .     A
C654   F681    1.358   .     S
C654   C656    1.395   .     A
C655   C657    1.395   .     A
C655   F682    1.358   .     S
C656   C658    1.413   .     A
C656   C662    1.399   .     A
C657   C664    1.399   .     A
C657   C659    1.413   .     A
C658   C660    1.424   .     A
C658   C83     1.409   1_556 S
C659   C661    1.424   .     A
C660   C671    1.418   .     A
C661   C663    1.418   .     A
C662   H687    1.085   .     S
C662   C87     1.394   1_556 S
C663   C665    1.446   .     S
C664   H688    1.085   .     S
C665   N691    1.158   .     T
C666   N692    1.158   .     T
C666   C671    1.446   .     S
C667   N693    1.157   .     T
C667   C672    1.451   .     S
C668   C673    1.451   .     S
C668   N694    1.157   .     T
C669   C674    1.454   .     S
C669   N695    1.157   .     T
C670   C675    1.454   .     S
C670   N696    1.157   .     T
C671   C88     1.394   1_556 S
C673   C676    1.409   .     A
C673   C739    1.398   .     S
C674   C676    1.411   .     A
C674   C736    1.398   .     S
Cu677  O701    1.958   .     S
Cu677  O697    1.968   .     S
Cu677  Cu678   2.688   .     S
Cu677  O699    1.971   .     S
Cu677  N689    2.020   .     S
Cu677  O703    1.961   .     S
Cu678  N690    2.020   .     S
Cu678  O700    1.971   .     S
Cu678  O704    1.961   .     S
Cu678  O698    1.968   .     S
Cu678  O702    1.958   .     S
C705   O761    1.289   .     A
C705   C706    1.455   .     S
C705   O764    1.296   .     A
C706   C739    1.411   .     A
C706   C736    1.409   .     A
C707   F747    1.350   .     S
C707   N754    1.368   .     A
C707   C1094   1.417   1_545 S
C708   N753    1.368   .     A
C708   F748    1.350   .     S
C708   C901    1.417   .     S
C709   F749    1.355   .     S
C709   N754    1.367   .     A
C709   C1092   1.417   1_545 S
C710   F750    1.355   .     S
C710   N753    1.367   .     A
C710   C899    1.417   .     S
C711   C717    1.447   .     S
C711   O768    1.295   .     A
C711   O765    1.291   .     A
C712   C715    1.447   .     S
C712   O767    1.295   .     A
C712   O766    1.291   .     A
C713   C724    1.410   .     A
C713   C715    1.396   .     A
C713   F743    1.359   .     S
C714   C725    1.410   .     A
C714   F744    1.359   .     S
C714   C717    1.396   .     A
C715   C718    1.392   .     A
C716   C740    1.455   .     S
C716   O762    1.289   .     A
C716   O763    1.296   .     A
C717   C719    1.392   .     A
C718   F745    1.358   .     S
C718   C720    1.395   .     A
C719   C721    1.395   .     A
C719   F746    1.358   .     S
C720   C722    1.413   .     A
C720   C726    1.399   .     A
C721   C728    1.399   .     A
C721   C723    1.413   .     A
C722   C724    1.424   .     A
C722   C147    1.409   1_556 S
C723   C725    1.424   .     A
C724   C735    1.418   .     A
C725   C727    1.418   .     A
C726   H751    1.085   .     S
C726   C151    1.394   1_556 S
C727   C729    1.446   .     S
C728   H752    1.085   .     S
C729   N755    1.158   .     T
C730   N756    1.158   .     T
C730   C735    1.446   .     S
C731   N757    1.157   .     T
C731   C736    1.451   .     S
C732   C737    1.451   .     S
C732   N758    1.157   .     T
C733   C738    1.454   .     S
C733   N759    1.157   .     T
C734   C739    1.454   .     S
C734   N760    1.157   .     T
C735   C152    1.394   1_556 S
C737   C740    1.409   .     A
C737   C611    1.398   1_655 S
C738   C740    1.411   .     A
C738   C608    1.398   1_655 S
Cu741  O765    1.958   .     S
Cu741  O761    1.968   .     S
Cu741  Cu742   2.688   .     S
Cu741  O763    1.971   .     S
Cu741  N753    2.020   .     S
Cu741  O767    1.961   .     S
Cu742  N754    2.020   .     S
Cu742  O764    1.971   .     S
Cu742  O768    1.961   .     S
Cu742  O762    1.968   .     S
Cu742  O766    1.958   .     S
C769   O825    1.289   .     A
C769   C770    1.455   .     S
C769   O828    1.296   .     A
C770   C803    1.411   .     A
C770   C800    1.409   .     A
C771   F811    1.350   .     S
C771   N818    1.368   .     A
C772   N817    1.368   .     A
C772   F812    1.350   .     S
C772   C965    1.417   .     S
C773   F813    1.355   .     S
C773   N818    1.367   .     A
C774   F814    1.355   .     S
C774   N817    1.367   .     A
C774   C963    1.417   .     S
C775   C781    1.447   .     S
C775   O832    1.295   .     A
C775   O829    1.291   .     A
C776   C779    1.447   .     S
C776   O831    1.295   .     A
C776   O830    1.291   .     A
C777   C788    1.410   .     A
C777   C779    1.396   .     A
C777   F807    1.359   .     S
C778   C789    1.410   .     A
C778   F808    1.359   .     S
C778   C781    1.396   .     A
C779   C782    1.392   .     A
C780   C804    1.455   .     S
C780   O826    1.289   .     A
C780   O827    1.296   .     A
C781   C783    1.392   .     A
C782   F809    1.358   .     S
C782   C784    1.395   .     A
C783   C785    1.395   .     A
C783   F810    1.358   .     S
C784   C786    1.413   .     A
C784   C790    1.399   .     A
C785   C792    1.399   .     A
C785   C787    1.413   .     A
C786   C788    1.424   .     A
C786   C211    1.409   1_556 S
C787   C789    1.424   .     A
C788   C799    1.418   .     A
C789   C791    1.418   .     A
C790   H815    1.085   .     S
C790   C215    1.394   1_556 S
C791   C793    1.446   .     S
C792   H816    1.085   .     S
C793   N819    1.158   .     T
C794   N820    1.158   .     T
C794   C799    1.446   .     S
C795   N821    1.157   .     T
C795   C800    1.451   .     S
C796   C801    1.451   .     S
C796   N822    1.157   .     T
C797   C802    1.454   .     S
C797   N823    1.157   .     T
C798   C803    1.454   .     S
C798   N824    1.157   .     T
C799   C216    1.394   1_556 S
C800   C930    1.398   1_455 S
C801   C804    1.409   .     A
C801   C867    1.398   .     S
C802   C804    1.411   .     A
C802   C864    1.398   .     S
C803   C929    1.398   1_455 S
Cu805  O829    1.958   .     S
Cu805  O825    1.968   .     S
Cu805  Cu806   2.688   .     S
Cu805  O827    1.971   .     S
Cu805  N817    2.020   .     S
Cu805  O831    1.961   .     S
Cu806  N818    2.020   .     S
Cu806  O828    1.971   .     S
Cu806  O832    1.961   .     S
Cu806  O826    1.968   .     S
Cu806  O830    1.958   .     S
C833   O889    1.289   .     A
C833   C834    1.455   .     S
C833   O892    1.296   .     A
C834   C867    1.411   .     A
C834   C864    1.409   .     A
C835   F875    1.350   .     S
C835   N882    1.368   .     A
C836   N881    1.368   .     A
C836   F876    1.350   .     S
C836   C1029   1.417   .     S
C837   F877    1.355   .     S
C837   N882    1.367   .     A
C838   F878    1.355   .     S
C838   N881    1.367   .     A
C838   C1027   1.417   .     S
C839   C845    1.447   .     S
C839   O896    1.295   .     A
C839   O893    1.291   .     A
C840   C843    1.447   .     S
C840   O895    1.295   .     A
C840   O894    1.291   .     A
C841   C852    1.410   .     A
C841   C843    1.396   .     A
C841   F871    1.359   .     S
C842   C853    1.410   .     A
C842   F872    1.359   .     S
C842   C845    1.396   .     A
C843   C846    1.392   .     A
C844   C868    1.455   .     S
C844   O890    1.289   .     A
C844   O891    1.296   .     A
C845   C847    1.392   .     A
C846   F873    1.358   .     S
C846   C848    1.395   .     A
C847   C849    1.395   .     A
C847   F874    1.358   .     S
C848   C850    1.413   .     A
C848   C854    1.399   .     A
C849   C856    1.399   .     A
C849   C851    1.413   .     A
C850   C852    1.424   .     A
C850   C275    1.409   1_556 S
C851   C853    1.424   .     A
C852   C863    1.418   .     A
C853   C855    1.418   .     A
C854   H879    1.085   .     S
C854   C279    1.394   1_556 S
C855   C857    1.446   .     S
C856   H880    1.085   .     S
C857   N883    1.158   .     T
C858   N884    1.158   .     T
C858   C863    1.446   .     S
C859   N885    1.157   .     T
C859   C864    1.451   .     S
C860   C865    1.451   .     S
C860   N886    1.157   .     T
C861   C866    1.454   .     S
C861   N887    1.157   .     T
C862   C867    1.454   .     S
C862   N888    1.157   .     T
C863   C280    1.394   1_556 S
C865   C868    1.409   .     A
C865   C931    1.398   .     S
C866   C868    1.411   .     A
C866   C928    1.398   .     S
Cu869  O893    1.958   .     S
Cu869  O889    1.968   .     S
Cu869  Cu870   2.688   .     S
Cu869  O891    1.971   .     S
Cu869  N881    2.020   .     S
Cu869  O895    1.961   .     S
Cu870  N882    2.020   .     S
Cu870  O892    1.971   .     S
Cu870  O896    1.961   .     S
Cu870  O890    1.968   .     S
Cu870  O894    1.958   .     S
C897   O953    1.289   .     A
C897   C898    1.455   .     S
C897   O956    1.296   .     A
C898   C931    1.411   .     A
C898   C928    1.409   .     A
C899   F939    1.350   .     S
C899   N946    1.368   .     A
C900   N945    1.368   .     A
C900   F940    1.350   .     S
C900   C1093   1.417   .     S
C901   F941    1.355   .     S
C901   N946    1.367   .     A
C902   F942    1.355   .     S
C902   N945    1.367   .     A
C902   C1091   1.417   .     S
C903   C909    1.447   .     S
C903   O960    1.295   .     A
C903   O957    1.291   .     A
C904   C907    1.447   .     S
C904   O959    1.295   .     A
C904   O958    1.291   .     A
C905   C916    1.410   .     A
C905   C907    1.396   .     A
C905   F935    1.359   .     S
C906   C917    1.410   .     A
C906   F936    1.359   .     S
C906   C909    1.396   .     A
C907   C910    1.392   .     A
C908   C932    1.455   .     S
C908   O954    1.289   .     A
C908   O955    1.296   .     A
C909   C911    1.392   .     A
C910   F937    1.358   .     S
C910   C912    1.395   .     A
C911   C913    1.395   .     A
C911   F938    1.358   .     S
C912   C914    1.413   .     A
C912   C918    1.399   .     A
C913   C920    1.399   .     A
C913   C915    1.413   .     A
C914   C916    1.424   .     A
C914   C339    1.409   1_556 S
C915   C917    1.424   .     A
C916   C927    1.418   .     A
C917   C919    1.418   .     A
C918   H943    1.085   .     S
C918   C343    1.394   1_556 S
C919   C921    1.446   .     S
C920   H944    1.085   .     S
C921   N947    1.158   .     T
C922   N948    1.158   .     T
C922   C927    1.446   .     S
C923   N949    1.157   .     T
C923   C928    1.451   .     S
C924   C929    1.451   .     S
C924   N950    1.157   .     T
C925   C930    1.454   .     S
C925   N951    1.157   .     T
C926   C931    1.454   .     S
C926   N952    1.157   .     T
C927   C344    1.394   1_556 S
C929   C932    1.409   .     A
C929   C803    1.398   1_655 S
C930   C932    1.411   .     A
C930   C800    1.398   1_655 S
Cu933  O957    1.958   .     S
Cu933  O953    1.968   .     S
Cu933  Cu934   2.688   .     S
Cu933  O955    1.971   .     S
Cu933  N945    2.020   .     S
Cu933  O959    1.961   .     S
Cu934  N946    2.020   .     S
Cu934  O956    1.971   .     S
Cu934  O960    1.961   .     S
Cu934  O954    1.968   .     S
Cu934  O958    1.958   .     S
C961   O1017   1.289   .     A
C961   C962    1.455   .     S
C961   O1020   1.296   .     A
C962   C995    1.411   .     A
C962   C992    1.409   .     A
C963   F1003   1.350   .     S
C963   N1010   1.368   .     A
C964   N1009   1.368   .     A
C964   F1004   1.350   .     S
C964   C581    1.417   1_565 S
C965   F1005   1.355   .     S
C965   N1010   1.367   .     A
C966   F1006   1.355   .     S
C966   N1009   1.367   .     A
C966   C579    1.417   1_565 S
C967   C973    1.447   .     S
C967   O1024   1.295   .     A
C967   O1021   1.291   .     A
C968   C971    1.447   .     S
C968   O1023   1.295   .     A
C968   O1022   1.291   .     A
C969   C980    1.410   .     A
C969   C971    1.396   .     A
C969   F999    1.359   .     S
C970   C981    1.410   .     A
C970   F1000   1.359   .     S
C970   C973    1.396   .     A
C971   C974    1.392   .     A
C972   C996    1.455   .     S
C972   O1018   1.289   .     A
C972   O1019   1.296   .     A
C973   C975    1.392   .     A
C974   F1001   1.358   .     S
C974   C976    1.395   .     A
C975   C977    1.395   .     A
C975   F1002   1.358   .     S
C976   C978    1.413   .     A
C976   C982    1.399   .     A
C977   C984    1.399   .     A
C977   C979    1.413   .     A
C978   C980    1.424   .     A
C978   C403    1.409   1_556 S
C979   C981    1.424   .     A
C980   C991    1.418   .     A
C981   C983    1.418   .     A
C982   H1007   1.085   .     S
C982   C407    1.394   1_556 S
C983   C985    1.446   .     S
C984   H1008   1.085   .     S
C985   N1011   1.158   .     T
C986   N1012   1.158   .     T
C986   C991    1.446   .     S
C987   N1013   1.157   .     T
C987   C992    1.451   .     S
C988   C993    1.451   .     S
C988   N1014   1.157   .     T
C989   C994    1.454   .     S
C989   N1015   1.157   .     T
C990   C995    1.454   .     S
C990   N1016   1.157   .     T
C991   C408    1.394   1_556 S
C992   C1122   1.398   1_455 S
C993   C996    1.409   .     A
C993   C1059   1.398   .     S
C994   C996    1.411   .     A
C994   C1056   1.398   .     S
C995   C1121   1.398   1_455 S
Cu997  O1021   1.958   .     S
Cu997  O1017   1.968   .     S
Cu997  Cu998   2.688   .     S
Cu997  O1019   1.971   .     S
Cu997  N1009   2.020   .     S
Cu997  O1023   1.961   .     S
Cu998  N1010   2.020   .     S
Cu998  O1020   1.971   .     S
Cu998  O1024   1.961   .     S
Cu998  O1018   1.968   .     S
Cu998  O1022   1.958   .     S
C1025  O1081   1.289   .     A
C1025  C1026   1.455   .     S
C1025  O1084   1.296   .     A
C1026  C1059   1.411   .     A
C1026  C1056   1.409   .     A
C1027  F1067   1.350   .     S
C1027  N1074   1.368   .     A
C1028  N1073   1.368   .     A
C1028  F1068   1.350   .     S
C1028  C645    1.417   1_565 S
C1029  F1069   1.355   .     S
C1029  N1074   1.367   .     A
C1030  F1070   1.355   .     S
C1030  N1073   1.367   .     A
C1030  C643    1.417   1_565 S
C1031  C1037   1.447   .     S
C1031  O1088   1.295   .     A
C1031  O1085   1.291   .     A
C1032  C1035   1.447   .     S
C1032  O1087   1.295   .     A
C1032  O1086   1.291   .     A
C1033  C1044   1.410   .     A
C1033  C1035   1.396   .     A
C1033  F1063   1.359   .     S
C1034  C1045   1.410   .     A
C1034  F1064   1.359   .     S
C1034  C1037   1.396   .     A
C1035  C1038   1.392   .     A
C1036  C1060   1.455   .     S
C1036  O1082   1.289   .     A
C1036  O1083   1.296   .     A
C1037  C1039   1.392   .     A
C1038  F1065   1.358   .     S
C1038  C1040   1.395   .     A
C1039  C1041   1.395   .     A
C1039  F1066   1.358   .     S
C1040  C1042   1.413   .     A
C1040  C1046   1.399   .     A
C1041  C1048   1.399   .     A
C1041  C1043   1.413   .     A
C1042  C1044   1.424   .     A
C1042  C467    1.409   1_556 S
C1043  C1045   1.424   .     A
C1044  C1055   1.418   .     A
C1045  C1047   1.418   .     A
C1046  H1071   1.085   .     S
C1046  C471    1.394   1_556 S
C1047  C1049   1.446   .     S
C1048  H1072   1.085   .     S
C1049  N1075   1.158   .     T
C1050  N1076   1.158   .     T
C1050  C1055   1.446   .     S
C1051  N1077   1.157   .     T
C1051  C1056   1.451   .     S
C1052  C1057   1.451   .     S
C1052  N1078   1.157   .     T
C1053  C1058   1.454   .     S
C1053  N1079   1.157   .     T
C1054  C1059   1.454   .     S
C1054  N1080   1.157   .     T
C1055  C472    1.394   1_556 S
C1057  C1060   1.409   .     A
C1057  C1123   1.398   .     S
C1058  C1060   1.411   .     A
C1058  C1120   1.398   .     S
Cu1061 O1085   1.958   .     S
Cu1061 O1081   1.968   .     S
Cu1061 Cu1062  2.688   .     S
Cu1061 O1083   1.971   .     S
Cu1061 N1073   2.020   .     S
Cu1061 O1087   1.961   .     S
Cu1062 N1074   2.020   .     S
Cu1062 O1084   1.971   .     S
Cu1062 O1088   1.961   .     S
Cu1062 O1082   1.968   .     S
Cu1062 O1086   1.958   .     S
C1089  O1145   1.289   .     A
C1089  C1090   1.455   .     S
C1089  O1148   1.296   .     A
C1090  C1123   1.411   .     A
C1090  C1120   1.409   .     A
C1091  F1131   1.350   .     S
C1091  N1138   1.368   .     A
C1092  N1137   1.368   .     A
C1092  F1132   1.350   .     S
C1092  C709    1.417   1_565 S
C1093  F1133   1.355   .     S
C1093  N1138   1.367   .     A
C1094  F1134   1.355   .     S
C1094  N1137   1.367   .     A
C1094  C707    1.417   1_565 S
C1095  C1101   1.447   .     S
C1095  O1152   1.295   .     A
C1095  O1149   1.291   .     A
C1096  C1099   1.447   .     S
C1096  O1151   1.295   .     A
C1096  O1150   1.291   .     A
C1097  C1108   1.410   .     A
C1097  C1099   1.396   .     A
C1097  F1127   1.359   .     S
C1098  C1109   1.410   .     A
C1098  F1128   1.359   .     S
C1098  C1101   1.396   .     A
C1099  C1102   1.392   .     A
C1100  C1124   1.455   .     S
C1100  O1146   1.289   .     A
C1100  O1147   1.296   .     A
C1101  C1103   1.392   .     A
C1102  F1129   1.358   .     S
C1102  C1104   1.395   .     A
C1103  C1105   1.395   .     A
C1103  F1130   1.358   .     S
C1104  C1106   1.413   .     A
C1104  C1110   1.399   .     A
C1105  C1112   1.399   .     A
C1105  C1107   1.413   .     A
C1106  C1108   1.424   .     A
C1106  C531    1.409   1_556 S
C1107  C1109   1.424   .     A
C1108  C1119   1.418   .     A
C1109  C1111   1.418   .     A
C1110  H1135   1.085   .     S
C1110  C535    1.394   1_556 S
C1111  C1113   1.446   .     S
C1112  H1136   1.085   .     S
C1113  N1139   1.158   .     T
C1114  N1140   1.158   .     T
C1114  C1119   1.446   .     S
C1115  N1141   1.157   .     T
C1115  C1120   1.451   .     S
C1116  C1121   1.451   .     S
C1116  N1142   1.157   .     T
C1117  C1122   1.454   .     S
C1117  N1143   1.157   .     T
C1118  C1123   1.454   .     S
C1118  N1144   1.157   .     T
C1119  C536    1.394   1_556 S
C1121  C1124   1.409   .     A
C1121  C995    1.398   1_655 S
C1122  C1124   1.411   .     A
C1122  C992    1.398   1_655 S
Cu1125 O1149   1.958   .     S
Cu1125 O1145   1.968   .     S
Cu1125 Cu1126  2.688   .     S
Cu1125 O1147   1.971   .     S
Cu1125 N1137   2.020   .     S
Cu1125 O1151   1.961   .     S
Cu1126 N1138   2.020   .     S
Cu1126 O1148   1.971   .     S
Cu1126 O1152   1.961   .     S
Cu1126 O1146   1.968   .     S
Cu1126 O1150   1.958   .     S
