data_str_m3_o10_o16_pcu_sym.140
_audit_creation_date              2020-01-03
_audit_creation_method            'Materials Studio'
_symmetry_space_group_name_H-M    'P1'
_symmetry_Int_Tables_number       1
_symmetry_cell_setting            triclinic
loop_
_symmetry_equiv_pos_as_xyz
  x,y,z
_cell_length_a                    23.4912
_cell_length_b                    25.6826
_cell_length_c                    25.0523
_cell_angle_alpha                 92.1649
_cell_angle_beta                  103.3185
_cell_angle_gamma                 93.8149
loop_
_atom_site_label
_atom_site_type_symbol
_atom_site_fract_x
_atom_site_fract_y
_atom_site_fract_z
_atom_site_U_iso_or_equiv
_atom_site_adp_type
_atom_site_occupancy
C1     C     0.01479   0.26483   0.24875   0.00000  Uiso   1.00
C2     C     0.06255   0.18630   0.41133   0.00000  Uiso   1.00
C3     C     0.02259   0.31938   0.24830   0.00000  Uiso   1.00
C4     C     0.03722   0.16994   0.35443   0.00000  Uiso   1.00
C5     C     0.31081   0.01395   0.25192   0.00000  Uiso   1.00
C6     C     0.31858   0.06851   0.25133   0.00000  Uiso   1.00
C7     C     0.29840   0.16980   0.14652   0.00000  Uiso   1.00
C8     C     0.29787   0.15336   0.00087   0.00000  Uiso   1.00
C9     C     0.28314   0.18008   0.08885   0.00000  Uiso   1.00
C10    C     0.04009   0.23006   0.43213   0.00000  Uiso   1.00
C11    C     0.07501   0.26186   0.47474   0.00000  Uiso   1.00
C12    C     0.15102   0.20128   0.48371   0.00000  Uiso   1.00
C13    C     0.13021   0.24771   0.00051   0.00000  Uiso   1.00
C14    C     0.07025   0.22989   0.10418   0.00000  Uiso   1.00
C15    C     0.03130   0.27666   0.09325   0.00000  Uiso   1.00
C16    C     0.06739   0.32894   0.10947   0.00000  Uiso   1.00
C17    C     0.11896   0.17163   0.43693   0.00000  Uiso   1.00
C18    C     0.20613   0.18648   0.00941   0.00000  Uiso   1.00
C19    C     0.23748   0.15600   0.47978   0.00000  Uiso   1.00
C20    C     0.20691   0.12746   0.43232   0.00000  Uiso   1.00
C21    C     0.14649   0.13100   0.41481   0.00000  Uiso   1.00
C22    C     0.22783   0.19519   0.06563   0.00000  Uiso   1.00
C23    C     0.32253   0.17302   0.05469   0.00000  Uiso   1.00
H24    H     0.26817   0.33028   0.25520   0.00000  Uiso   1.00
H25    H     0.12273   0.10378   0.38199   0.00000  Uiso   1.00
H26    H     0.06527   0.00307   0.24520   0.00000  Uiso   1.00
H27    H     0.11351   0.24186   0.09696   0.00000  Uiso   1.00
H28    H     0.08201   0.22389   0.14861   0.00000  Uiso   1.00
H29    H     0.00761   0.27631   0.04952   0.00000  Uiso   1.00
H30    H     0.33145   0.27424   0.11841   0.00000  Uiso   1.00
H31    H     0.09137   0.33009   0.15327   0.00000  Uiso   1.00
H32    H     0.03781   0.02797   0.10368   0.00000  Uiso   1.00
H33    H     0.09951   0.00167   0.08357   0.00000  Uiso   1.00
H34    H     0.15639   0.12580   0.20856   0.00000  Uiso   1.00
H35    H     0.17692   0.20753   0.29143   0.00000  Uiso   1.00
H36    H     0.22865   0.10021   0.41122   0.00000  Uiso   1.00
H37    H     0.32506   0.13666   0.47621   0.00000  Uiso   1.00
H38    H     0.20012   0.20862   0.09148   0.00000  Uiso   1.00
H39    H     0.33157   0.24325   0.41134   0.00000  Uiso   1.00
H40    H     0.15767   0.27417   0.03220   0.00000  Uiso   1.00
H41    H     0.06011   0.29861   0.48637   0.00000  Uiso   1.00
N42    N     0.14493   0.15223   0.23542   0.00000  Uiso   1.00
N43    N     0.18840   0.18110   0.26457   0.00000  Uiso   1.00
O44    O     0.29769   0.24629   0.25357   0.00000  Uiso   1.00
O45    O     0.05742   0.23704   0.24423   0.00000  Uiso   1.00
O46    O     0.31490   0.17358   0.33380   0.00000  Uiso   1.00
O47    O     0.07463   0.16433   0.32446   0.00000  Uiso   1.00
O48    O     0.27592   0.09629   0.25576   0.00000  Uiso   1.00
O49    O     0.03565   0.08704   0.24643   0.00000  Uiso   1.00
O50    O     0.25870   0.16901   0.17554   0.00000  Uiso   1.00
O51    O     0.01843   0.15976   0.16620   0.00000  Uiso   1.00
O52    O     0.04997   0.18154   0.07251   0.00000  Uiso   1.00
Zn53   Zn    0.27119   0.17284   0.25623   0.00000  Uiso   1.00
Zn54   Zn    0.06214   0.16049   0.24377   0.00000  Uiso   1.00
C55    C     0.34813   0.26483   0.24875   0.00000  Uiso   1.00
C56    C     0.39588   0.18630   0.41133   0.00000  Uiso   1.00
C57    C     0.35592   0.31938   0.24830   0.00000  Uiso   1.00
C58    C     0.37055   0.16994   0.35443   0.00000  Uiso   1.00
C59    C     0.64415   0.01395   0.25192   0.00000  Uiso   1.00
C60    C     0.65191   0.06851   0.25133   0.00000  Uiso   1.00
C61    C     0.63173   0.16980   0.14652   0.00000  Uiso   1.00
C62    C     0.63120   0.15336   0.00087   0.00000  Uiso   1.00
C63    C     0.61647   0.18008   0.08885   0.00000  Uiso   1.00
C64    C     0.37342   0.23006   0.43213   0.00000  Uiso   1.00
C65    C     0.40834   0.26186   0.47474   0.00000  Uiso   1.00
C66    C     0.48435   0.20128   0.48371   0.00000  Uiso   1.00
C67    C     0.46355   0.24771   0.00051   0.00000  Uiso   1.00
C68    C     0.40359   0.22989   0.10418   0.00000  Uiso   1.00
C69    C     0.36463   0.27666   0.09325   0.00000  Uiso   1.00
C70    C     0.40072   0.32894   0.10947   0.00000  Uiso   1.00
C71    C     0.45230   0.17163   0.43693   0.00000  Uiso   1.00
C72    C     0.53947   0.18648   0.00941   0.00000  Uiso   1.00
C73    C     0.57082   0.15600   0.47978   0.00000  Uiso   1.00
C74    C     0.54025   0.12746   0.43232   0.00000  Uiso   1.00
C75    C     0.47982   0.13100   0.41481   0.00000  Uiso   1.00
C76    C     0.56116   0.19519   0.06563   0.00000  Uiso   1.00
C77    C     0.65586   0.17302   0.05469   0.00000  Uiso   1.00
H78    H     0.60151   0.33028   0.25520   0.00000  Uiso   1.00
H79    H     0.45606   0.10378   0.38199   0.00000  Uiso   1.00
H80    H     0.39860   0.00307   0.24520   0.00000  Uiso   1.00
H81    H     0.44685   0.24186   0.09696   0.00000  Uiso   1.00
H82    H     0.41534   0.22389   0.14861   0.00000  Uiso   1.00
H83    H     0.34094   0.27631   0.04952   0.00000  Uiso   1.00
H84    H     0.66479   0.27424   0.11841   0.00000  Uiso   1.00
H85    H     0.42471   0.33009   0.15327   0.00000  Uiso   1.00
H86    H     0.37115   0.02797   0.10368   0.00000  Uiso   1.00
H87    H     0.43284   0.00167   0.08357   0.00000  Uiso   1.00
H88    H     0.48973   0.12580   0.20856   0.00000  Uiso   1.00
H89    H     0.51025   0.20753   0.29143   0.00000  Uiso   1.00
H90    H     0.56199   0.10021   0.41122   0.00000  Uiso   1.00
H91    H     0.65840   0.13666   0.47621   0.00000  Uiso   1.00
H92    H     0.53346   0.20862   0.09148   0.00000  Uiso   1.00
H93    H     0.66490   0.24325   0.41134   0.00000  Uiso   1.00
H94    H     0.49100   0.27417   0.03220   0.00000  Uiso   1.00
H95    H     0.39344   0.29861   0.48637   0.00000  Uiso   1.00
N96    N     0.47827   0.15223   0.23542   0.00000  Uiso   1.00
N97    N     0.52173   0.18110   0.26457   0.00000  Uiso   1.00
O98    O     0.63102   0.24629   0.25357   0.00000  Uiso   1.00
O99    O     0.39075   0.23704   0.24423   0.00000  Uiso   1.00
O100   O     0.64823   0.17358   0.33380   0.00000  Uiso   1.00
O101   O     0.40796   0.16433   0.32446   0.00000  Uiso   1.00
O102   O     0.60925   0.09629   0.25576   0.00000  Uiso   1.00
O103   O     0.36898   0.08704   0.24643   0.00000  Uiso   1.00
O104   O     0.59204   0.16901   0.17554   0.00000  Uiso   1.00
O105   O     0.35177   0.15976   0.16620   0.00000  Uiso   1.00
O106   O     0.38331   0.18154   0.07251   0.00000  Uiso   1.00
Zn107  Zn    0.60453   0.17284   0.25623   0.00000  Uiso   1.00
Zn108  Zn    0.39547   0.16049   0.24377   0.00000  Uiso   1.00
C109   C     0.68146   0.26483   0.24875   0.00000  Uiso   1.00
C110   C     0.72921   0.18630   0.41133   0.00000  Uiso   1.00
C111   C     0.68926   0.31938   0.24830   0.00000  Uiso   1.00
C112   C     0.70389   0.16994   0.35443   0.00000  Uiso   1.00
C113   C     0.97748   0.01395   0.25192   0.00000  Uiso   1.00
C114   C     0.98524   0.06851   0.25133   0.00000  Uiso   1.00
C115   C     0.96506   0.16980   0.14652   0.00000  Uiso   1.00
C116   C     0.96454   0.15336   0.00087   0.00000  Uiso   1.00
C117   C     0.94980   0.18008   0.08885   0.00000  Uiso   1.00
C118   C     0.70676   0.23006   0.43213   0.00000  Uiso   1.00
C119   C     0.74168   0.26186   0.47474   0.00000  Uiso   1.00
C120   C     0.81768   0.20128   0.48371   0.00000  Uiso   1.00
C121   C     0.79688   0.24771   0.00051   0.00000  Uiso   1.00
C122   C     0.73692   0.22989   0.10418   0.00000  Uiso   1.00
C123   C     0.69797   0.27666   0.09325   0.00000  Uiso   1.00
C124   C     0.73405   0.32894   0.10947   0.00000  Uiso   1.00
C125   C     0.78563   0.17163   0.43693   0.00000  Uiso   1.00
C126   C     0.87280   0.18648   0.00941   0.00000  Uiso   1.00
C127   C     0.90415   0.15600   0.47978   0.00000  Uiso   1.00
C128   C     0.87358   0.12746   0.43232   0.00000  Uiso   1.00
C129   C     0.81316   0.13100   0.41481   0.00000  Uiso   1.00
C130   C     0.89449   0.19519   0.06563   0.00000  Uiso   1.00
C131   C     0.98920   0.17302   0.05469   0.00000  Uiso   1.00
H132   H     0.93484   0.33028   0.25520   0.00000  Uiso   1.00
H133   H     0.78940   0.10378   0.38199   0.00000  Uiso   1.00
H134   H     0.73193   0.00307   0.24520   0.00000  Uiso   1.00
H135   H     0.78018   0.24186   0.09696   0.00000  Uiso   1.00
H136   H     0.74868   0.22389   0.14861   0.00000  Uiso   1.00
H137   H     0.67427   0.27631   0.04952   0.00000  Uiso   1.00
H138   H     0.99812   0.27424   0.11841   0.00000  Uiso   1.00
H139   H     0.75804   0.33009   0.15327   0.00000  Uiso   1.00
H140   H     0.70448   0.02797   0.10368   0.00000  Uiso   1.00
H141   H     0.76618   0.00167   0.08357   0.00000  Uiso   1.00
H142   H     0.82306   0.12580   0.20856   0.00000  Uiso   1.00
H143   H     0.84358   0.20753   0.29143   0.00000  Uiso   1.00
H144   H     0.89532   0.10021   0.41122   0.00000  Uiso   1.00
H145   H     0.99173   0.13666   0.47621   0.00000  Uiso   1.00
H146   H     0.86679   0.20862   0.09148   0.00000  Uiso   1.00
H147   H     0.99823   0.24325   0.41134   0.00000  Uiso   1.00
H148   H     0.82434   0.27417   0.03220   0.00000  Uiso   1.00
H149   H     0.72678   0.29861   0.48637   0.00000  Uiso   1.00
N150   N     0.81160   0.15223   0.23542   0.00000  Uiso   1.00
N151   N     0.85507   0.18110   0.26457   0.00000  Uiso   1.00
O152   O     0.96435   0.24629   0.25357   0.00000  Uiso   1.00
O153   O     0.72408   0.23704   0.24423   0.00000  Uiso   1.00
O154   O     0.98157   0.17358   0.33380   0.00000  Uiso   1.00
O155   O     0.74130   0.16433   0.32446   0.00000  Uiso   1.00
O156   O     0.94258   0.09629   0.25576   0.00000  Uiso   1.00
O157   O     0.70231   0.08704   0.24643   0.00000  Uiso   1.00
O158   O     0.92537   0.16901   0.17554   0.00000  Uiso   1.00
O159   O     0.68510   0.15976   0.16620   0.00000  Uiso   1.00
O160   O     0.71664   0.18154   0.07251   0.00000  Uiso   1.00
Zn161  Zn    0.93786   0.17284   0.25623   0.00000  Uiso   1.00
Zn162  Zn    0.72881   0.16049   0.24377   0.00000  Uiso   1.00
C163   C     0.01479   0.59816   0.24875   0.00000  Uiso   1.00
C164   C     0.06255   0.51963   0.41133   0.00000  Uiso   1.00
C165   C     0.02259   0.65271   0.24830   0.00000  Uiso   1.00
C166   C     0.03722   0.50328   0.35443   0.00000  Uiso   1.00
C167   C     0.31081   0.34729   0.25192   0.00000  Uiso   1.00
C168   C     0.31858   0.40184   0.25133   0.00000  Uiso   1.00
C169   C     0.29840   0.50313   0.14652   0.00000  Uiso   1.00
C170   C     0.29787   0.48669   0.00087   0.00000  Uiso   1.00
C171   C     0.28314   0.51342   0.08885   0.00000  Uiso   1.00
C172   C     0.04009   0.56340   0.43213   0.00000  Uiso   1.00
C173   C     0.07501   0.59519   0.47474   0.00000  Uiso   1.00
C174   C     0.15102   0.53461   0.48371   0.00000  Uiso   1.00
C175   C     0.13021   0.58104   0.00051   0.00000  Uiso   1.00
C176   C     0.07025   0.56322   0.10418   0.00000  Uiso   1.00
C177   C     0.03130   0.61000   0.09325   0.00000  Uiso   1.00
C178   C     0.06739   0.66227   0.10947   0.00000  Uiso   1.00
C179   C     0.11896   0.50497   0.43693   0.00000  Uiso   1.00
C180   C     0.20613   0.51982   0.00941   0.00000  Uiso   1.00
C181   C     0.23748   0.48933   0.47978   0.00000  Uiso   1.00
C182   C     0.20691   0.46080   0.43232   0.00000  Uiso   1.00
C183   C     0.14649   0.46434   0.41481   0.00000  Uiso   1.00
C184   C     0.22783   0.52853   0.06563   0.00000  Uiso   1.00
C185   C     0.32253   0.50636   0.05469   0.00000  Uiso   1.00
H186   H     0.26817   0.66361   0.25520   0.00000  Uiso   1.00
H187   H     0.12273   0.43712   0.38199   0.00000  Uiso   1.00
H188   H     0.06527   0.33640   0.24520   0.00000  Uiso   1.00
H189   H     0.11351   0.57520   0.09696   0.00000  Uiso   1.00
H190   H     0.08201   0.55722   0.14861   0.00000  Uiso   1.00
H191   H     0.00761   0.60964   0.04952   0.00000  Uiso   1.00
H192   H     0.33145   0.60758   0.11841   0.00000  Uiso   1.00
H193   H     0.09137   0.66342   0.15327   0.00000  Uiso   1.00
H194   H     0.03781   0.36130   0.10368   0.00000  Uiso   1.00
H195   H     0.09951   0.33501   0.08357   0.00000  Uiso   1.00
H196   H     0.15639   0.45913   0.20856   0.00000  Uiso   1.00
H197   H     0.17692   0.54086   0.29143   0.00000  Uiso   1.00
H198   H     0.22865   0.43354   0.41122   0.00000  Uiso   1.00
H199   H     0.32506   0.47000   0.47621   0.00000  Uiso   1.00
H200   H     0.20012   0.54195   0.09148   0.00000  Uiso   1.00
H201   H     0.33157   0.57658   0.41134   0.00000  Uiso   1.00
H202   H     0.15767   0.60751   0.03220   0.00000  Uiso   1.00
H203   H     0.06011   0.63195   0.48637   0.00000  Uiso   1.00
N204   N     0.14493   0.48556   0.23542   0.00000  Uiso   1.00
N205   N     0.18840   0.51444   0.26457   0.00000  Uiso   1.00
O206   O     0.29769   0.57963   0.25357   0.00000  Uiso   1.00
O207   O     0.05742   0.57038   0.24423   0.00000  Uiso   1.00
O208   O     0.31490   0.50691   0.33380   0.00000  Uiso   1.00
O209   O     0.07463   0.49766   0.32446   0.00000  Uiso   1.00
O210   O     0.27592   0.42962   0.25576   0.00000  Uiso   1.00
O211   O     0.03565   0.42037   0.24643   0.00000  Uiso   1.00
O212   O     0.25870   0.50234   0.17554   0.00000  Uiso   1.00
O213   O     0.01843   0.49309   0.16620   0.00000  Uiso   1.00
O214   O     0.04997   0.51487   0.07251   0.00000  Uiso   1.00
Zn215  Zn    0.27119   0.50618   0.25623   0.00000  Uiso   1.00
Zn216  Zn    0.06214   0.49382   0.24377   0.00000  Uiso   1.00
C217   C     0.34813   0.59816   0.24875   0.00000  Uiso   1.00
C218   C     0.39588   0.51963   0.41133   0.00000  Uiso   1.00
C219   C     0.35592   0.65271   0.24830   0.00000  Uiso   1.00
C220   C     0.37055   0.50328   0.35443   0.00000  Uiso   1.00
C221   C     0.64415   0.34729   0.25192   0.00000  Uiso   1.00
C222   C     0.65191   0.40184   0.25133   0.00000  Uiso   1.00
C223   C     0.63173   0.50313   0.14652   0.00000  Uiso   1.00
C224   C     0.63120   0.48669   0.00087   0.00000  Uiso   1.00
C225   C     0.61647   0.51342   0.08885   0.00000  Uiso   1.00
C226   C     0.37342   0.56340   0.43213   0.00000  Uiso   1.00
C227   C     0.40834   0.59519   0.47474   0.00000  Uiso   1.00
C228   C     0.48435   0.53461   0.48371   0.00000  Uiso   1.00
C229   C     0.46355   0.58104   0.00051   0.00000  Uiso   1.00
C230   C     0.40359   0.56322   0.10418   0.00000  Uiso   1.00
C231   C     0.36463   0.61000   0.09325   0.00000  Uiso   1.00
C232   C     0.40072   0.66227   0.10947   0.00000  Uiso   1.00
C233   C     0.45230   0.50497   0.43693   0.00000  Uiso   1.00
C234   C     0.53947   0.51982   0.00941   0.00000  Uiso   1.00
C235   C     0.57082   0.48933   0.47978   0.00000  Uiso   1.00
C236   C     0.54025   0.46080   0.43232   0.00000  Uiso   1.00
C237   C     0.47982   0.46434   0.41481   0.00000  Uiso   1.00
C238   C     0.56116   0.52853   0.06563   0.00000  Uiso   1.00
C239   C     0.65586   0.50636   0.05469   0.00000  Uiso   1.00
H240   H     0.60151   0.66361   0.25520   0.00000  Uiso   1.00
H241   H     0.45606   0.43712   0.38199   0.00000  Uiso   1.00
H242   H     0.39860   0.33640   0.24520   0.00000  Uiso   1.00
H243   H     0.44685   0.57520   0.09696   0.00000  Uiso   1.00
H244   H     0.41534   0.55722   0.14861   0.00000  Uiso   1.00
H245   H     0.34094   0.60964   0.04952   0.00000  Uiso   1.00
H246   H     0.66479   0.60758   0.11841   0.00000  Uiso   1.00
H247   H     0.42471   0.66342   0.15327   0.00000  Uiso   1.00
H248   H     0.37115   0.36130   0.10368   0.00000  Uiso   1.00
H249   H     0.43284   0.33501   0.08357   0.00000  Uiso   1.00
H250   H     0.48973   0.45913   0.20856   0.00000  Uiso   1.00
H251   H     0.51025   0.54086   0.29143   0.00000  Uiso   1.00
H252   H     0.56199   0.43354   0.41122   0.00000  Uiso   1.00
H253   H     0.65840   0.47000   0.47621   0.00000  Uiso   1.00
H254   H     0.53346   0.54195   0.09148   0.00000  Uiso   1.00
H255   H     0.66490   0.57658   0.41134   0.00000  Uiso   1.00
H256   H     0.49100   0.60751   0.03220   0.00000  Uiso   1.00
H257   H     0.39344   0.63195   0.48637   0.00000  Uiso   1.00
N258   N     0.47827   0.48556   0.23542   0.00000  Uiso   1.00
N259   N     0.52173   0.51444   0.26457   0.00000  Uiso   1.00
O260   O     0.63102   0.57963   0.25357   0.00000  Uiso   1.00
O261   O     0.39075   0.57038   0.24423   0.00000  Uiso   1.00
O262   O     0.64823   0.50691   0.33380   0.00000  Uiso   1.00
O263   O     0.40796   0.49766   0.32446   0.00000  Uiso   1.00
O264   O     0.60925   0.42962   0.25576   0.00000  Uiso   1.00
O265   O     0.36898   0.42037   0.24643   0.00000  Uiso   1.00
O266   O     0.59204   0.50234   0.17554   0.00000  Uiso   1.00
O267   O     0.35177   0.49309   0.16620   0.00000  Uiso   1.00
O268   O     0.38331   0.51487   0.07251   0.00000  Uiso   1.00
Zn269  Zn    0.60453   0.50618   0.25623   0.00000  Uiso   1.00
Zn270  Zn    0.39547   0.49382   0.24377   0.00000  Uiso   1.00
C271   C     0.68146   0.59816   0.24875   0.00000  Uiso   1.00
C272   C     0.72921   0.51963   0.41133   0.00000  Uiso   1.00
C273   C     0.68926   0.65271   0.24830   0.00000  Uiso   1.00
C274   C     0.70389   0.50328   0.35443   0.00000  Uiso   1.00
C275   C     0.97748   0.34729   0.25192   0.00000  Uiso   1.00
C276   C     0.98524   0.40184   0.25133   0.00000  Uiso   1.00
C277   C     0.96506   0.50313   0.14652   0.00000  Uiso   1.00
C278   C     0.96454   0.48669   0.00087   0.00000  Uiso   1.00
C279   C     0.94980   0.51342   0.08885   0.00000  Uiso   1.00
C280   C     0.70676   0.56340   0.43213   0.00000  Uiso   1.00
C281   C     0.74168   0.59519   0.47474   0.00000  Uiso   1.00
C282   C     0.81768   0.53461   0.48371   0.00000  Uiso   1.00
C283   C     0.79688   0.58104   0.00051   0.00000  Uiso   1.00
C284   C     0.73692   0.56322   0.10418   0.00000  Uiso   1.00
C285   C     0.69797   0.61000   0.09325   0.00000  Uiso   1.00
C286   C     0.73405   0.66227   0.10947   0.00000  Uiso   1.00
C287   C     0.78563   0.50497   0.43693   0.00000  Uiso   1.00
C288   C     0.87280   0.51982   0.00941   0.00000  Uiso   1.00
C289   C     0.90415   0.48933   0.47978   0.00000  Uiso   1.00
C290   C     0.87358   0.46080   0.43232   0.00000  Uiso   1.00
C291   C     0.81316   0.46434   0.41481   0.00000  Uiso   1.00
C292   C     0.89449   0.52853   0.06563   0.00000  Uiso   1.00
C293   C     0.98920   0.50636   0.05469   0.00000  Uiso   1.00
H294   H     0.93484   0.66361   0.25520   0.00000  Uiso   1.00
H295   H     0.78940   0.43712   0.38199   0.00000  Uiso   1.00
H296   H     0.73193   0.33640   0.24520   0.00000  Uiso   1.00
H297   H     0.78018   0.57520   0.09696   0.00000  Uiso   1.00
H298   H     0.74868   0.55722   0.14861   0.00000  Uiso   1.00
H299   H     0.67427   0.60964   0.04952   0.00000  Uiso   1.00
H300   H     0.99812   0.60758   0.11841   0.00000  Uiso   1.00
H301   H     0.75804   0.66342   0.15327   0.00000  Uiso   1.00
H302   H     0.70448   0.36130   0.10368   0.00000  Uiso   1.00
H303   H     0.76618   0.33501   0.08357   0.00000  Uiso   1.00
H304   H     0.82306   0.45913   0.20856   0.00000  Uiso   1.00
H305   H     0.84358   0.54086   0.29143   0.00000  Uiso   1.00
H306   H     0.89532   0.43354   0.41122   0.00000  Uiso   1.00
H307   H     0.99173   0.47000   0.47621   0.00000  Uiso   1.00
H308   H     0.86679   0.54195   0.09148   0.00000  Uiso   1.00
H309   H     0.99823   0.57658   0.41134   0.00000  Uiso   1.00
H310   H     0.82434   0.60751   0.03220   0.00000  Uiso   1.00
H311   H     0.72678   0.63195   0.48637   0.00000  Uiso   1.00
N312   N     0.81160   0.48556   0.23542   0.00000  Uiso   1.00
N313   N     0.85507   0.51444   0.26457   0.00000  Uiso   1.00
O314   O     0.96435   0.57963   0.25357   0.00000  Uiso   1.00
O315   O     0.72408   0.57038   0.24423   0.00000  Uiso   1.00
O316   O     0.98157   0.50691   0.33380   0.00000  Uiso   1.00
O317   O     0.74130   0.49766   0.32446   0.00000  Uiso   1.00
O318   O     0.94258   0.42962   0.25576   0.00000  Uiso   1.00
O319   O     0.70231   0.42037   0.24643   0.00000  Uiso   1.00
O320   O     0.92537   0.50234   0.17554   0.00000  Uiso   1.00
O321   O     0.68510   0.49309   0.16620   0.00000  Uiso   1.00
O322   O     0.71664   0.51487   0.07251   0.00000  Uiso   1.00
Zn323  Zn    0.93786   0.50618   0.25623   0.00000  Uiso   1.00
Zn324  Zn    0.72881   0.49382   0.24377   0.00000  Uiso   1.00
C325   C     0.01479   0.93150   0.24875   0.00000  Uiso   1.00
C326   C     0.06255   0.85296   0.41133   0.00000  Uiso   1.00
C327   C     0.02259   0.98605   0.24830   0.00000  Uiso   1.00
C328   C     0.03722   0.83661   0.35443   0.00000  Uiso   1.00
C329   C     0.31081   0.68062   0.25192   0.00000  Uiso   1.00
C330   C     0.31858   0.73518   0.25133   0.00000  Uiso   1.00
C331   C     0.29840   0.83646   0.14652   0.00000  Uiso   1.00
C332   C     0.29787   0.82003   0.00087   0.00000  Uiso   1.00
C333   C     0.28314   0.84675   0.08885   0.00000  Uiso   1.00
C334   C     0.04009   0.89673   0.43213   0.00000  Uiso   1.00
C335   C     0.07501   0.92853   0.47474   0.00000  Uiso   1.00
C336   C     0.15102   0.86795   0.48371   0.00000  Uiso   1.00
C337   C     0.13021   0.91437   0.00051   0.00000  Uiso   1.00
C338   C     0.07025   0.89655   0.10418   0.00000  Uiso   1.00
C339   C     0.03130   0.94333   0.09325   0.00000  Uiso   1.00
C340   C     0.06739   0.99561   0.10947   0.00000  Uiso   1.00
C341   C     0.11896   0.83830   0.43693   0.00000  Uiso   1.00
C342   C     0.20613   0.85315   0.00941   0.00000  Uiso   1.00
C343   C     0.23748   0.82267   0.47978   0.00000  Uiso   1.00
C344   C     0.20691   0.79413   0.43232   0.00000  Uiso   1.00
C345   C     0.14649   0.79767   0.41481   0.00000  Uiso   1.00
C346   C     0.22783   0.86186   0.06563   0.00000  Uiso   1.00
C347   C     0.32253   0.83969   0.05469   0.00000  Uiso   1.00
H348   H     0.26817   0.99694   0.25520   0.00000  Uiso   1.00
H349   H     0.12273   0.77045   0.38199   0.00000  Uiso   1.00
H350   H     0.06527   0.66974   0.24520   0.00000  Uiso   1.00
H351   H     0.11351   0.90853   0.09696   0.00000  Uiso   1.00
H352   H     0.08201   0.89055   0.14861   0.00000  Uiso   1.00
H353   H     0.00761   0.94297   0.04952   0.00000  Uiso   1.00
H354   H     0.33145   0.94091   0.11841   0.00000  Uiso   1.00
H355   H     0.09137   0.99676   0.15327   0.00000  Uiso   1.00
H356   H     0.03781   0.69463   0.10368   0.00000  Uiso   1.00
H357   H     0.09951   0.66834   0.08357   0.00000  Uiso   1.00
H358   H     0.15639   0.79247   0.20856   0.00000  Uiso   1.00
H359   H     0.17692   0.87419   0.29143   0.00000  Uiso   1.00
H360   H     0.22865   0.76688   0.41122   0.00000  Uiso   1.00
H361   H     0.32506   0.80333   0.47621   0.00000  Uiso   1.00
H362   H     0.20012   0.87528   0.09148   0.00000  Uiso   1.00
H363   H     0.33157   0.90991   0.41134   0.00000  Uiso   1.00
H364   H     0.15767   0.94084   0.03220   0.00000  Uiso   1.00
H365   H     0.06011   0.96528   0.48637   0.00000  Uiso   1.00
N366   N     0.14493   0.81890   0.23542   0.00000  Uiso   1.00
N367   N     0.18840   0.84777   0.26457   0.00000  Uiso   1.00
O368   O     0.29769   0.91296   0.25357   0.00000  Uiso   1.00
O369   O     0.05742   0.90371   0.24423   0.00000  Uiso   1.00
O370   O     0.31490   0.84024   0.33380   0.00000  Uiso   1.00
O371   O     0.07463   0.83099   0.32446   0.00000  Uiso   1.00
O372   O     0.27592   0.76296   0.25576   0.00000  Uiso   1.00
O373   O     0.03565   0.75371   0.24643   0.00000  Uiso   1.00
O374   O     0.25870   0.83567   0.17554   0.00000  Uiso   1.00
O375   O     0.01843   0.82642   0.16620   0.00000  Uiso   1.00
O376   O     0.04997   0.84821   0.07251   0.00000  Uiso   1.00
Zn377  Zn    0.27119   0.83951   0.25623   0.00000  Uiso   1.00
Zn378  Zn    0.06214   0.82716   0.24377   0.00000  Uiso   1.00
C379   C     0.34813   0.93150   0.24875   0.00000  Uiso   1.00
C380   C     0.39588   0.85296   0.41133   0.00000  Uiso   1.00
C381   C     0.35592   0.98605   0.24830   0.00000  Uiso   1.00
C382   C     0.37055   0.83661   0.35443   0.00000  Uiso   1.00
C383   C     0.64415   0.68062   0.25192   0.00000  Uiso   1.00
C384   C     0.65191   0.73518   0.25133   0.00000  Uiso   1.00
C385   C     0.63173   0.83646   0.14652   0.00000  Uiso   1.00
C386   C     0.63120   0.82003   0.00087   0.00000  Uiso   1.00
C387   C     0.61647   0.84675   0.08885   0.00000  Uiso   1.00
C388   C     0.37342   0.89673   0.43213   0.00000  Uiso   1.00
C389   C     0.40834   0.92853   0.47474   0.00000  Uiso   1.00
C390   C     0.48435   0.86795   0.48371   0.00000  Uiso   1.00
C391   C     0.46355   0.91437   0.00051   0.00000  Uiso   1.00
C392   C     0.40359   0.89655   0.10418   0.00000  Uiso   1.00
C393   C     0.36463   0.94333   0.09325   0.00000  Uiso   1.00
C394   C     0.40072   0.99561   0.10947   0.00000  Uiso   1.00
C395   C     0.45230   0.83830   0.43693   0.00000  Uiso   1.00
C396   C     0.53947   0.85315   0.00941   0.00000  Uiso   1.00
C397   C     0.57082   0.82267   0.47978   0.00000  Uiso   1.00
C398   C     0.54025   0.79413   0.43232   0.00000  Uiso   1.00
C399   C     0.47982   0.79767   0.41481   0.00000  Uiso   1.00
C400   C     0.56116   0.86186   0.06563   0.00000  Uiso   1.00
C401   C     0.65586   0.83969   0.05469   0.00000  Uiso   1.00
H402   H     0.60151   0.99694   0.25520   0.00000  Uiso   1.00
H403   H     0.45606   0.77045   0.38199   0.00000  Uiso   1.00
H404   H     0.39860   0.66974   0.24520   0.00000  Uiso   1.00
H405   H     0.44685   0.90853   0.09696   0.00000  Uiso   1.00
H406   H     0.41534   0.89055   0.14861   0.00000  Uiso   1.00
H407   H     0.34094   0.94297   0.04952   0.00000  Uiso   1.00
H408   H     0.66479   0.94091   0.11841   0.00000  Uiso   1.00
H409   H     0.42471   0.99676   0.15327   0.00000  Uiso   1.00
H410   H     0.37115   0.69463   0.10368   0.00000  Uiso   1.00
H411   H     0.43284   0.66834   0.08357   0.00000  Uiso   1.00
H412   H     0.48973   0.79247   0.20856   0.00000  Uiso   1.00
H413   H     0.51025   0.87419   0.29143   0.00000  Uiso   1.00
H414   H     0.56199   0.76688   0.41122   0.00000  Uiso   1.00
H415   H     0.65840   0.80333   0.47621   0.00000  Uiso   1.00
H416   H     0.53346   0.87528   0.09148   0.00000  Uiso   1.00
H417   H     0.66490   0.90991   0.41134   0.00000  Uiso   1.00
H418   H     0.49100   0.94084   0.03220   0.00000  Uiso   1.00
H419   H     0.39344   0.96528   0.48637   0.00000  Uiso   1.00
N420   N     0.47827   0.81890   0.23542   0.00000  Uiso   1.00
N421   N     0.52173   0.84777   0.26457   0.00000  Uiso   1.00
O422   O     0.63102   0.91296   0.25357   0.00000  Uiso   1.00
O423   O     0.39075   0.90371   0.24423   0.00000  Uiso   1.00
O424   O     0.64823   0.84024   0.33380   0.00000  Uiso   1.00
O425   O     0.40796   0.83099   0.32446   0.00000  Uiso   1.00
O426   O     0.60925   0.76296   0.25576   0.00000  Uiso   1.00
O427   O     0.36898   0.75371   0.24643   0.00000  Uiso   1.00
O428   O     0.59204   0.83567   0.17554   0.00000  Uiso   1.00
O429   O     0.35177   0.82642   0.16620   0.00000  Uiso   1.00
O430   O     0.38331   0.84821   0.07251   0.00000  Uiso   1.00
Zn431  Zn    0.60453   0.83951   0.25623   0.00000  Uiso   1.00
Zn432  Zn    0.39547   0.82716   0.24377   0.00000  Uiso   1.00
C433   C     0.68146   0.93150   0.24875   0.00000  Uiso   1.00
C434   C     0.72921   0.85296   0.41133   0.00000  Uiso   1.00
C435   C     0.68926   0.98605   0.24830   0.00000  Uiso   1.00
C436   C     0.70389   0.83661   0.35443   0.00000  Uiso   1.00
C437   C     0.97748   0.68062   0.25192   0.00000  Uiso   1.00
C438   C     0.98524   0.73518   0.25133   0.00000  Uiso   1.00
C439   C     0.96506   0.83646   0.14652   0.00000  Uiso   1.00
C440   C     0.96454   0.82003   0.00087   0.00000  Uiso   1.00
C441   C     0.94980   0.84675   0.08885   0.00000  Uiso   1.00
C442   C     0.70676   0.89673   0.43213   0.00000  Uiso   1.00
C443   C     0.74168   0.92853   0.47474   0.00000  Uiso   1.00
C444   C     0.81768   0.86795   0.48371   0.00000  Uiso   1.00
C445   C     0.79688   0.91437   0.00051   0.00000  Uiso   1.00
C446   C     0.73692   0.89655   0.10418   0.00000  Uiso   1.00
C447   C     0.69797   0.94333   0.09325   0.00000  Uiso   1.00
C448   C     0.73405   0.99561   0.10947   0.00000  Uiso   1.00
C449   C     0.78563   0.83830   0.43693   0.00000  Uiso   1.00
C450   C     0.87280   0.85315   0.00941   0.00000  Uiso   1.00
C451   C     0.90415   0.82267   0.47978   0.00000  Uiso   1.00
C452   C     0.87358   0.79413   0.43232   0.00000  Uiso   1.00
C453   C     0.81316   0.79767   0.41481   0.00000  Uiso   1.00
C454   C     0.89449   0.86186   0.06563   0.00000  Uiso   1.00
C455   C     0.98920   0.83969   0.05469   0.00000  Uiso   1.00
H456   H     0.93484   0.99694   0.25520   0.00000  Uiso   1.00
H457   H     0.78940   0.77045   0.38199   0.00000  Uiso   1.00
H458   H     0.73193   0.66974   0.24520   0.00000  Uiso   1.00
H459   H     0.78018   0.90853   0.09696   0.00000  Uiso   1.00
H460   H     0.74868   0.89055   0.14861   0.00000  Uiso   1.00
H461   H     0.67427   0.94297   0.04952   0.00000  Uiso   1.00
H462   H     0.99812   0.94091   0.11841   0.00000  Uiso   1.00
H463   H     0.75804   0.99676   0.15327   0.00000  Uiso   1.00
H464   H     0.70448   0.69463   0.10368   0.00000  Uiso   1.00
H465   H     0.76618   0.66834   0.08357   0.00000  Uiso   1.00
H466   H     0.82306   0.79247   0.20856   0.00000  Uiso   1.00
H467   H     0.84358   0.87419   0.29143   0.00000  Uiso   1.00
H468   H     0.89532   0.76688   0.41122   0.00000  Uiso   1.00
H469   H     0.99173   0.80333   0.47621   0.00000  Uiso   1.00
H470   H     0.86679   0.87528   0.09148   0.00000  Uiso   1.00
H471   H     0.99823   0.90991   0.41134   0.00000  Uiso   1.00
H472   H     0.82434   0.94084   0.03220   0.00000  Uiso   1.00
H473   H     0.72678   0.96528   0.48637   0.00000  Uiso   1.00
N474   N     0.81160   0.81890   0.23542   0.00000  Uiso   1.00
N475   N     0.85507   0.84777   0.26457   0.00000  Uiso   1.00
O476   O     0.96435   0.91296   0.25357   0.00000  Uiso   1.00
O477   O     0.72408   0.90371   0.24423   0.00000  Uiso   1.00
O478   O     0.98157   0.84024   0.33380   0.00000  Uiso   1.00
O479   O     0.74130   0.83099   0.32446   0.00000  Uiso   1.00
O480   O     0.94258   0.76296   0.25576   0.00000  Uiso   1.00
O481   O     0.70231   0.75371   0.24643   0.00000  Uiso   1.00
O482   O     0.92537   0.83567   0.17554   0.00000  Uiso   1.00
O483   O     0.68510   0.82642   0.16620   0.00000  Uiso   1.00
O484   O     0.71664   0.84821   0.07251   0.00000  Uiso   1.00
Zn485  Zn    0.93786   0.83951   0.25623   0.00000  Uiso   1.00
Zn486  Zn    0.72881   0.82716   0.24377   0.00000  Uiso   1.00
C487   C     0.01479   0.26483   0.74875   0.00000  Uiso   1.00
C488   C     0.06255   0.18630   0.91133   0.00000  Uiso   1.00
C489   C     0.02259   0.31938   0.74830   0.00000  Uiso   1.00
C490   C     0.03722   0.16994   0.85443   0.00000  Uiso   1.00
C491   C     0.31081   0.01395   0.75192   0.00000  Uiso   1.00
C492   C     0.31858   0.06851   0.75133   0.00000  Uiso   1.00
C493   C     0.29840   0.16980   0.64652   0.00000  Uiso   1.00
C494   C     0.29787   0.15336   0.50087   0.00000  Uiso   1.00
C495   C     0.28314   0.18008   0.58885   0.00000  Uiso   1.00
C496   C     0.04009   0.23006   0.93213   0.00000  Uiso   1.00
C497   C     0.07501   0.26186   0.97474   0.00000  Uiso   1.00
C498   C     0.15102   0.20128   0.98371   0.00000  Uiso   1.00
C499   C     0.13021   0.24771   0.50051   0.00000  Uiso   1.00
C500   C     0.07025   0.22989   0.60418   0.00000  Uiso   1.00
C501   C     0.03130   0.27666   0.59325   0.00000  Uiso   1.00
C502   C     0.06739   0.32894   0.60947   0.00000  Uiso   1.00
C503   C     0.11896   0.17163   0.93693   0.00000  Uiso   1.00
C504   C     0.20613   0.18648   0.50941   0.00000  Uiso   1.00
C505   C     0.23748   0.15600   0.97978   0.00000  Uiso   1.00
C506   C     0.20691   0.12746   0.93232   0.00000  Uiso   1.00
C507   C     0.14649   0.13100   0.91481   0.00000  Uiso   1.00
C508   C     0.22783   0.19519   0.56563   0.00000  Uiso   1.00
C509   C     0.32253   0.17302   0.55469   0.00000  Uiso   1.00
H510   H     0.26817   0.33028   0.75520   0.00000  Uiso   1.00
H511   H     0.12273   0.10378   0.88199   0.00000  Uiso   1.00
H512   H     0.06527   0.00307   0.74520   0.00000  Uiso   1.00
H513   H     0.11351   0.24186   0.59696   0.00000  Uiso   1.00
H514   H     0.08201   0.22389   0.64861   0.00000  Uiso   1.00
H515   H     0.00761   0.27631   0.54952   0.00000  Uiso   1.00
H516   H     0.33145   0.27424   0.61841   0.00000  Uiso   1.00
H517   H     0.09137   0.33009   0.65327   0.00000  Uiso   1.00
H518   H     0.03781   0.02797   0.60368   0.00000  Uiso   1.00
H519   H     0.09951   0.00167   0.58357   0.00000  Uiso   1.00
H520   H     0.15639   0.12580   0.70856   0.00000  Uiso   1.00
H521   H     0.17692   0.20753   0.79143   0.00000  Uiso   1.00
H522   H     0.22865   0.10021   0.91122   0.00000  Uiso   1.00
H523   H     0.32506   0.13666   0.97621   0.00000  Uiso   1.00
H524   H     0.20012   0.20862   0.59148   0.00000  Uiso   1.00
H525   H     0.33157   0.24325   0.91134   0.00000  Uiso   1.00
H526   H     0.15767   0.27417   0.53220   0.00000  Uiso   1.00
H527   H     0.06011   0.29861   0.98637   0.00000  Uiso   1.00
N528   N     0.14493   0.15223   0.73542   0.00000  Uiso   1.00
N529   N     0.18840   0.18110   0.76457   0.00000  Uiso   1.00
O530   O     0.29769   0.24629   0.75357   0.00000  Uiso   1.00
O531   O     0.05742   0.23704   0.74423   0.00000  Uiso   1.00
O532   O     0.31490   0.17358   0.83380   0.00000  Uiso   1.00
O533   O     0.07463   0.16433   0.82446   0.00000  Uiso   1.00
O534   O     0.27592   0.09629   0.75576   0.00000  Uiso   1.00
O535   O     0.03565   0.08704   0.74643   0.00000  Uiso   1.00
O536   O     0.25870   0.16901   0.67554   0.00000  Uiso   1.00
O537   O     0.01843   0.15976   0.66620   0.00000  Uiso   1.00
O538   O     0.04997   0.18154   0.57251   0.00000  Uiso   1.00
Zn539  Zn    0.27119   0.17284   0.75623   0.00000  Uiso   1.00
Zn540  Zn    0.06214   0.16049   0.74377   0.00000  Uiso   1.00
C541   C     0.34813   0.26483   0.74875   0.00000  Uiso   1.00
C542   C     0.39588   0.18630   0.91133   0.00000  Uiso   1.00
C543   C     0.35592   0.31938   0.74830   0.00000  Uiso   1.00
C544   C     0.37055   0.16994   0.85443   0.00000  Uiso   1.00
C545   C     0.64415   0.01395   0.75192   0.00000  Uiso   1.00
C546   C     0.65191   0.06851   0.75133   0.00000  Uiso   1.00
C547   C     0.63173   0.16980   0.64652   0.00000  Uiso   1.00
C548   C     0.63120   0.15336   0.50087   0.00000  Uiso   1.00
C549   C     0.61647   0.18008   0.58885   0.00000  Uiso   1.00
C550   C     0.37342   0.23006   0.93213   0.00000  Uiso   1.00
C551   C     0.40834   0.26186   0.97474   0.00000  Uiso   1.00
C552   C     0.48435   0.20128   0.98371   0.00000  Uiso   1.00
C553   C     0.46355   0.24771   0.50051   0.00000  Uiso   1.00
C554   C     0.40359   0.22989   0.60418   0.00000  Uiso   1.00
C555   C     0.36463   0.27666   0.59325   0.00000  Uiso   1.00
C556   C     0.40072   0.32894   0.60947   0.00000  Uiso   1.00
C557   C     0.45230   0.17163   0.93693   0.00000  Uiso   1.00
C558   C     0.53947   0.18648   0.50941   0.00000  Uiso   1.00
C559   C     0.57082   0.15600   0.97978   0.00000  Uiso   1.00
C560   C     0.54025   0.12746   0.93232   0.00000  Uiso   1.00
C561   C     0.47982   0.13100   0.91481   0.00000  Uiso   1.00
C562   C     0.56116   0.19519   0.56563   0.00000  Uiso   1.00
C563   C     0.65586   0.17302   0.55469   0.00000  Uiso   1.00
H564   H     0.60151   0.33028   0.75520   0.00000  Uiso   1.00
H565   H     0.45606   0.10378   0.88199   0.00000  Uiso   1.00
H566   H     0.39860   0.00307   0.74520   0.00000  Uiso   1.00
H567   H     0.44685   0.24186   0.59696   0.00000  Uiso   1.00
H568   H     0.41534   0.22389   0.64861   0.00000  Uiso   1.00
H569   H     0.34094   0.27631   0.54952   0.00000  Uiso   1.00
H570   H     0.66479   0.27424   0.61841   0.00000  Uiso   1.00
H571   H     0.42471   0.33009   0.65327   0.00000  Uiso   1.00
H572   H     0.37115   0.02797   0.60368   0.00000  Uiso   1.00
H573   H     0.43284   0.00167   0.58357   0.00000  Uiso   1.00
H574   H     0.48973   0.12580   0.70856   0.00000  Uiso   1.00
H575   H     0.51025   0.20753   0.79143   0.00000  Uiso   1.00
H576   H     0.56199   0.10021   0.91122   0.00000  Uiso   1.00
H577   H     0.65840   0.13666   0.97621   0.00000  Uiso   1.00
H578   H     0.53346   0.20862   0.59148   0.00000  Uiso   1.00
H579   H     0.66490   0.24325   0.91134   0.00000  Uiso   1.00
H580   H     0.49100   0.27417   0.53220   0.00000  Uiso   1.00
H581   H     0.39344   0.29861   0.98637   0.00000  Uiso   1.00
N582   N     0.47827   0.15223   0.73542   0.00000  Uiso   1.00
N583   N     0.52173   0.18110   0.76457   0.00000  Uiso   1.00
O584   O     0.63102   0.24629   0.75357   0.00000  Uiso   1.00
O585   O     0.39075   0.23704   0.74423   0.00000  Uiso   1.00
O586   O     0.64823   0.17358   0.83380   0.00000  Uiso   1.00
O587   O     0.40796   0.16433   0.82446   0.00000  Uiso   1.00
O588   O     0.60925   0.09629   0.75576   0.00000  Uiso   1.00
O589   O     0.36898   0.08704   0.74643   0.00000  Uiso   1.00
O590   O     0.59204   0.16901   0.67554   0.00000  Uiso   1.00
O591   O     0.35177   0.15976   0.66620   0.00000  Uiso   1.00
O592   O     0.38331   0.18154   0.57251   0.00000  Uiso   1.00
Zn593  Zn    0.60453   0.17284   0.75623   0.00000  Uiso   1.00
Zn594  Zn    0.39547   0.16049   0.74377   0.00000  Uiso   1.00
C595   C     0.68146   0.26483   0.74875   0.00000  Uiso   1.00
C596   C     0.72921   0.18630   0.91133   0.00000  Uiso   1.00
C597   C     0.68926   0.31938   0.74830   0.00000  Uiso   1.00
C598   C     0.70389   0.16994   0.85443   0.00000  Uiso   1.00
C599   C     0.97748   0.01395   0.75192   0.00000  Uiso   1.00
C600   C     0.98524   0.06851   0.75133   0.00000  Uiso   1.00
C601   C     0.96506   0.16980   0.64652   0.00000  Uiso   1.00
C602   C     0.96454   0.15336   0.50087   0.00000  Uiso   1.00
C603   C     0.94980   0.18008   0.58885   0.00000  Uiso   1.00
C604   C     0.70676   0.23006   0.93213   0.00000  Uiso   1.00
C605   C     0.74168   0.26186   0.97474   0.00000  Uiso   1.00
C606   C     0.81768   0.20128   0.98371   0.00000  Uiso   1.00
C607   C     0.79688   0.24771   0.50051   0.00000  Uiso   1.00
C608   C     0.73692   0.22989   0.60418   0.00000  Uiso   1.00
C609   C     0.69797   0.27666   0.59325   0.00000  Uiso   1.00
C610   C     0.73405   0.32894   0.60947   0.00000  Uiso   1.00
C611   C     0.78563   0.17163   0.93693   0.00000  Uiso   1.00
C612   C     0.87280   0.18648   0.50941   0.00000  Uiso   1.00
C613   C     0.90415   0.15600   0.97978   0.00000  Uiso   1.00
C614   C     0.87358   0.12746   0.93232   0.00000  Uiso   1.00
C615   C     0.81316   0.13100   0.91481   0.00000  Uiso   1.00
C616   C     0.89449   0.19519   0.56563   0.00000  Uiso   1.00
C617   C     0.98920   0.17302   0.55469   0.00000  Uiso   1.00
H618   H     0.93484   0.33028   0.75520   0.00000  Uiso   1.00
H619   H     0.78940   0.10378   0.88199   0.00000  Uiso   1.00
H620   H     0.73193   0.00307   0.74520   0.00000  Uiso   1.00
H621   H     0.78018   0.24186   0.59696   0.00000  Uiso   1.00
H622   H     0.74868   0.22389   0.64861   0.00000  Uiso   1.00
H623   H     0.67427   0.27631   0.54952   0.00000  Uiso   1.00
H624   H     0.99812   0.27424   0.61841   0.00000  Uiso   1.00
H625   H     0.75804   0.33009   0.65327   0.00000  Uiso   1.00
H626   H     0.70448   0.02797   0.60368   0.00000  Uiso   1.00
H627   H     0.76618   0.00167   0.58357   0.00000  Uiso   1.00
H628   H     0.82306   0.12580   0.70856   0.00000  Uiso   1.00
H629   H     0.84358   0.20753   0.79143   0.00000  Uiso   1.00
H630   H     0.89532   0.10021   0.91122   0.00000  Uiso   1.00
H631   H     0.99173   0.13666   0.97621   0.00000  Uiso   1.00
H632   H     0.86679   0.20862   0.59148   0.00000  Uiso   1.00
H633   H     0.99823   0.24325   0.91134   0.00000  Uiso   1.00
H634   H     0.82434   0.27417   0.53220   0.00000  Uiso   1.00
H635   H     0.72678   0.29861   0.98637   0.00000  Uiso   1.00
N636   N     0.81160   0.15223   0.73542   0.00000  Uiso   1.00
N637   N     0.85507   0.18110   0.76457   0.00000  Uiso   1.00
O638   O     0.96435   0.24629   0.75357   0.00000  Uiso   1.00
O639   O     0.72408   0.23704   0.74423   0.00000  Uiso   1.00
O640   O     0.98157   0.17358   0.83380   0.00000  Uiso   1.00
O641   O     0.74130   0.16433   0.82446   0.00000  Uiso   1.00
O642   O     0.94258   0.09629   0.75576   0.00000  Uiso   1.00
O643   O     0.70231   0.08704   0.74643   0.00000  Uiso   1.00
O644   O     0.92537   0.16901   0.67554   0.00000  Uiso   1.00
O645   O     0.68510   0.15976   0.66620   0.00000  Uiso   1.00
O646   O     0.71664   0.18154   0.57251   0.00000  Uiso   1.00
Zn647  Zn    0.93786   0.17284   0.75623   0.00000  Uiso   1.00
Zn648  Zn    0.72881   0.16049   0.74377   0.00000  Uiso   1.00
C649   C     0.01479   0.59816   0.74875   0.00000  Uiso   1.00
C650   C     0.06255   0.51963   0.91133   0.00000  Uiso   1.00
C651   C     0.02259   0.65271   0.74830   0.00000  Uiso   1.00
C652   C     0.03722   0.50328   0.85443   0.00000  Uiso   1.00
C653   C     0.31081   0.34729   0.75192   0.00000  Uiso   1.00
C654   C     0.31858   0.40184   0.75133   0.00000  Uiso   1.00
C655   C     0.29840   0.50313   0.64652   0.00000  Uiso   1.00
C656   C     0.29787   0.48669   0.50087   0.00000  Uiso   1.00
C657   C     0.28314   0.51342   0.58885   0.00000  Uiso   1.00
C658   C     0.04009   0.56340   0.93213   0.00000  Uiso   1.00
C659   C     0.07501   0.59519   0.97474   0.00000  Uiso   1.00
C660   C     0.15102   0.53461   0.98371   0.00000  Uiso   1.00
C661   C     0.13021   0.58104   0.50051   0.00000  Uiso   1.00
C662   C     0.07025   0.56322   0.60418   0.00000  Uiso   1.00
C663   C     0.03130   0.61000   0.59325   0.00000  Uiso   1.00
C664   C     0.06739   0.66227   0.60947   0.00000  Uiso   1.00
C665   C     0.11896   0.50497   0.93693   0.00000  Uiso   1.00
C666   C     0.20613   0.51982   0.50941   0.00000  Uiso   1.00
C667   C     0.23748   0.48933   0.97978   0.00000  Uiso   1.00
C668   C     0.20691   0.46080   0.93232   0.00000  Uiso   1.00
C669   C     0.14649   0.46434   0.91481   0.00000  Uiso   1.00
C670   C     0.22783   0.52853   0.56563   0.00000  Uiso   1.00
C671   C     0.32253   0.50636   0.55469   0.00000  Uiso   1.00
H672   H     0.26817   0.66361   0.75520   0.00000  Uiso   1.00
H673   H     0.12273   0.43712   0.88199   0.00000  Uiso   1.00
H674   H     0.06527   0.33640   0.74520   0.00000  Uiso   1.00
H675   H     0.11351   0.57520   0.59696   0.00000  Uiso   1.00
H676   H     0.08201   0.55722   0.64861   0.00000  Uiso   1.00
H677   H     0.00761   0.60964   0.54952   0.00000  Uiso   1.00
H678   H     0.33145   0.60758   0.61841   0.00000  Uiso   1.00
H679   H     0.09137   0.66342   0.65327   0.00000  Uiso   1.00
H680   H     0.03781   0.36130   0.60368   0.00000  Uiso   1.00
H681   H     0.09951   0.33501   0.58357   0.00000  Uiso   1.00
H682   H     0.15639   0.45913   0.70856   0.00000  Uiso   1.00
H683   H     0.17692   0.54086   0.79143   0.00000  Uiso   1.00
H684   H     0.22865   0.43354   0.91122   0.00000  Uiso   1.00
H685   H     0.32506   0.47000   0.97621   0.00000  Uiso   1.00
H686   H     0.20012   0.54195   0.59148   0.00000  Uiso   1.00
H687   H     0.33157   0.57658   0.91134   0.00000  Uiso   1.00
H688   H     0.15767   0.60751   0.53220   0.00000  Uiso   1.00
H689   H     0.06011   0.63195   0.98637   0.00000  Uiso   1.00
N690   N     0.14493   0.48556   0.73542   0.00000  Uiso   1.00
N691   N     0.18840   0.51444   0.76457   0.00000  Uiso   1.00
O692   O     0.29769   0.57963   0.75357   0.00000  Uiso   1.00
O693   O     0.05742   0.57038   0.74423   0.00000  Uiso   1.00
O694   O     0.31490   0.50691   0.83380   0.00000  Uiso   1.00
O695   O     0.07463   0.49766   0.82446   0.00000  Uiso   1.00
O696   O     0.27592   0.42962   0.75576   0.00000  Uiso   1.00
O697   O     0.03565   0.42037   0.74643   0.00000  Uiso   1.00
O698   O     0.25870   0.50234   0.67554   0.00000  Uiso   1.00
O699   O     0.01843   0.49309   0.66620   0.00000  Uiso   1.00
O700   O     0.04997   0.51487   0.57251   0.00000  Uiso   1.00
Zn701  Zn    0.27119   0.50618   0.75623   0.00000  Uiso   1.00
Zn702  Zn    0.06214   0.49382   0.74377   0.00000  Uiso   1.00
C703   C     0.34813   0.59816   0.74875   0.00000  Uiso   1.00
C704   C     0.39588   0.51963   0.91133   0.00000  Uiso   1.00
C705   C     0.35592   0.65271   0.74830   0.00000  Uiso   1.00
C706   C     0.37055   0.50328   0.85443   0.00000  Uiso   1.00
C707   C     0.64415   0.34729   0.75192   0.00000  Uiso   1.00
C708   C     0.65191   0.40184   0.75133   0.00000  Uiso   1.00
C709   C     0.63173   0.50313   0.64652   0.00000  Uiso   1.00
C710   C     0.63120   0.48669   0.50087   0.00000  Uiso   1.00
C711   C     0.61647   0.51342   0.58885   0.00000  Uiso   1.00
C712   C     0.37342   0.56340   0.93213   0.00000  Uiso   1.00
C713   C     0.40834   0.59519   0.97474   0.00000  Uiso   1.00
C714   C     0.48435   0.53461   0.98371   0.00000  Uiso   1.00
C715   C     0.46355   0.58104   0.50051   0.00000  Uiso   1.00
C716   C     0.40359   0.56322   0.60418   0.00000  Uiso   1.00
C717   C     0.36463   0.61000   0.59325   0.00000  Uiso   1.00
C718   C     0.40072   0.66227   0.60947   0.00000  Uiso   1.00
C719   C     0.45230   0.50497   0.93693   0.00000  Uiso   1.00
C720   C     0.53947   0.51982   0.50941   0.00000  Uiso   1.00
C721   C     0.57082   0.48933   0.97978   0.00000  Uiso   1.00
C722   C     0.54025   0.46080   0.93232   0.00000  Uiso   1.00
C723   C     0.47982   0.46434   0.91481   0.00000  Uiso   1.00
C724   C     0.56116   0.52853   0.56563   0.00000  Uiso   1.00
C725   C     0.65586   0.50636   0.55469   0.00000  Uiso   1.00
H726   H     0.60151   0.66361   0.75520   0.00000  Uiso   1.00
H727   H     0.45606   0.43712   0.88199   0.00000  Uiso   1.00
H728   H     0.39860   0.33640   0.74520   0.00000  Uiso   1.00
H729   H     0.44685   0.57520   0.59696   0.00000  Uiso   1.00
H730   H     0.41534   0.55722   0.64861   0.00000  Uiso   1.00
H731   H     0.34094   0.60964   0.54952   0.00000  Uiso   1.00
H732   H     0.66479   0.60758   0.61841   0.00000  Uiso   1.00
H733   H     0.42471   0.66342   0.65327   0.00000  Uiso   1.00
H734   H     0.37115   0.36130   0.60368   0.00000  Uiso   1.00
H735   H     0.43284   0.33501   0.58357   0.00000  Uiso   1.00
H736   H     0.48973   0.45913   0.70856   0.00000  Uiso   1.00
H737   H     0.51025   0.54086   0.79143   0.00000  Uiso   1.00
H738   H     0.56199   0.43354   0.91122   0.00000  Uiso   1.00
H739   H     0.65840   0.47000   0.97621   0.00000  Uiso   1.00
H740   H     0.53346   0.54195   0.59148   0.00000  Uiso   1.00
H741   H     0.66490   0.57658   0.91134   0.00000  Uiso   1.00
H742   H     0.49100   0.60751   0.53220   0.00000  Uiso   1.00
H743   H     0.39344   0.63195   0.98637   0.00000  Uiso   1.00
N744   N     0.47827   0.48556   0.73542   0.00000  Uiso   1.00
N745   N     0.52173   0.51444   0.76457   0.00000  Uiso   1.00
O746   O     0.63102   0.57963   0.75357   0.00000  Uiso   1.00
O747   O     0.39075   0.57038   0.74423   0.00000  Uiso   1.00
O748   O     0.64823   0.50691   0.83380   0.00000  Uiso   1.00
O749   O     0.40796   0.49766   0.82446   0.00000  Uiso   1.00
O750   O     0.60925   0.42962   0.75576   0.00000  Uiso   1.00
O751   O     0.36898   0.42037   0.74643   0.00000  Uiso   1.00
O752   O     0.59204   0.50234   0.67554   0.00000  Uiso   1.00
O753   O     0.35177   0.49309   0.66620   0.00000  Uiso   1.00
O754   O     0.38331   0.51487   0.57251   0.00000  Uiso   1.00
Zn755  Zn    0.60453   0.50618   0.75623   0.00000  Uiso   1.00
Zn756  Zn    0.39547   0.49382   0.74377   0.00000  Uiso   1.00
C757   C     0.68146   0.59816   0.74875   0.00000  Uiso   1.00
C758   C     0.72921   0.51963   0.91133   0.00000  Uiso   1.00
C759   C     0.68926   0.65271   0.74830   0.00000  Uiso   1.00
C760   C     0.70389   0.50328   0.85443   0.00000  Uiso   1.00
C761   C     0.97748   0.34729   0.75192   0.00000  Uiso   1.00
C762   C     0.98524   0.40184   0.75133   0.00000  Uiso   1.00
C763   C     0.96506   0.50313   0.64652   0.00000  Uiso   1.00
C764   C     0.96454   0.48669   0.50087   0.00000  Uiso   1.00
C765   C     0.94980   0.51342   0.58885   0.00000  Uiso   1.00
C766   C     0.70676   0.56340   0.93213   0.00000  Uiso   1.00
C767   C     0.74168   0.59519   0.97474   0.00000  Uiso   1.00
C768   C     0.81768   0.53461   0.98371   0.00000  Uiso   1.00
C769   C     0.79688   0.58104   0.50051   0.00000  Uiso   1.00
C770   C     0.73692   0.56322   0.60418   0.00000  Uiso   1.00
C771   C     0.69797   0.61000   0.59325   0.00000  Uiso   1.00
C772   C     0.73405   0.66227   0.60947   0.00000  Uiso   1.00
C773   C     0.78563   0.50497   0.93693   0.00000  Uiso   1.00
C774   C     0.87280   0.51982   0.50941   0.00000  Uiso   1.00
C775   C     0.90415   0.48933   0.97978   0.00000  Uiso   1.00
C776   C     0.87358   0.46080   0.93232   0.00000  Uiso   1.00
C777   C     0.81316   0.46434   0.91481   0.00000  Uiso   1.00
C778   C     0.89449   0.52853   0.56563   0.00000  Uiso   1.00
C779   C     0.98920   0.50636   0.55469   0.00000  Uiso   1.00
H780   H     0.93484   0.66361   0.75520   0.00000  Uiso   1.00
H781   H     0.78940   0.43712   0.88199   0.00000  Uiso   1.00
H782   H     0.73193   0.33640   0.74520   0.00000  Uiso   1.00
H783   H     0.78018   0.57520   0.59696   0.00000  Uiso   1.00
H784   H     0.74868   0.55722   0.64861   0.00000  Uiso   1.00
H785   H     0.67427   0.60964   0.54952   0.00000  Uiso   1.00
H786   H     0.99812   0.60758   0.61841   0.00000  Uiso   1.00
H787   H     0.75804   0.66342   0.65327   0.00000  Uiso   1.00
H788   H     0.70448   0.36130   0.60368   0.00000  Uiso   1.00
H789   H     0.76618   0.33501   0.58357   0.00000  Uiso   1.00
H790   H     0.82306   0.45913   0.70856   0.00000  Uiso   1.00
H791   H     0.84358   0.54086   0.79143   0.00000  Uiso   1.00
H792   H     0.89532   0.43354   0.91122   0.00000  Uiso   1.00
H793   H     0.99173   0.47000   0.97621   0.00000  Uiso   1.00
H794   H     0.86679   0.54195   0.59148   0.00000  Uiso   1.00
H795   H     0.99823   0.57658   0.91134   0.00000  Uiso   1.00
H796   H     0.82434   0.60751   0.53220   0.00000  Uiso   1.00
H797   H     0.72678   0.63195   0.98637   0.00000  Uiso   1.00
N798   N     0.81160   0.48556   0.73542   0.00000  Uiso   1.00
N799   N     0.85507   0.51444   0.76457   0.00000  Uiso   1.00
O800   O     0.96435   0.57963   0.75357   0.00000  Uiso   1.00
O801   O     0.72408   0.57038   0.74423   0.00000  Uiso   1.00
O802   O     0.98157   0.50691   0.83380   0.00000  Uiso   1.00
O803   O     0.74130   0.49766   0.82446   0.00000  Uiso   1.00
O804   O     0.94258   0.42962   0.75576   0.00000  Uiso   1.00
O805   O     0.70231   0.42037   0.74643   0.00000  Uiso   1.00
O806   O     0.92537   0.50234   0.67554   0.00000  Uiso   1.00
O807   O     0.68510   0.49309   0.66620   0.00000  Uiso   1.00
O808   O     0.71664   0.51487   0.57251   0.00000  Uiso   1.00
Zn809  Zn    0.93786   0.50618   0.75623   0.00000  Uiso   1.00
Zn810  Zn    0.72881   0.49382   0.74377   0.00000  Uiso   1.00
C811   C     0.01479   0.93150   0.74875   0.00000  Uiso   1.00
C812   C     0.06255   0.85296   0.91133   0.00000  Uiso   1.00
C813   C     0.02259   0.98605   0.74830   0.00000  Uiso   1.00
C814   C     0.03722   0.83661   0.85443   0.00000  Uiso   1.00
C815   C     0.31081   0.68062   0.75192   0.00000  Uiso   1.00
C816   C     0.31858   0.73518   0.75133   0.00000  Uiso   1.00
C817   C     0.29840   0.83646   0.64652   0.00000  Uiso   1.00
C818   C     0.29787   0.82003   0.50087   0.00000  Uiso   1.00
C819   C     0.28314   0.84675   0.58885   0.00000  Uiso   1.00
C820   C     0.04009   0.89673   0.93213   0.00000  Uiso   1.00
C821   C     0.07501   0.92853   0.97474   0.00000  Uiso   1.00
C822   C     0.15102   0.86795   0.98371   0.00000  Uiso   1.00
C823   C     0.13021   0.91437   0.50051   0.00000  Uiso   1.00
C824   C     0.07025   0.89655   0.60418   0.00000  Uiso   1.00
C825   C     0.03130   0.94333   0.59325   0.00000  Uiso   1.00
C826   C     0.06739   0.99561   0.60947   0.00000  Uiso   1.00
C827   C     0.11896   0.83830   0.93693   0.00000  Uiso   1.00
C828   C     0.20613   0.85315   0.50941   0.00000  Uiso   1.00
C829   C     0.23748   0.82267   0.97978   0.00000  Uiso   1.00
C830   C     0.20691   0.79413   0.93232   0.00000  Uiso   1.00
C831   C     0.14649   0.79767   0.91481   0.00000  Uiso   1.00
C832   C     0.22783   0.86186   0.56563   0.00000  Uiso   1.00
C833   C     0.32253   0.83969   0.55469   0.00000  Uiso   1.00
H834   H     0.26817   0.99694   0.75520   0.00000  Uiso   1.00
H835   H     0.12273   0.77045   0.88199   0.00000  Uiso   1.00
H836   H     0.06527   0.66974   0.74520   0.00000  Uiso   1.00
H837   H     0.11351   0.90853   0.59696   0.00000  Uiso   1.00
H838   H     0.08201   0.89055   0.64861   0.00000  Uiso   1.00
H839   H     0.00761   0.94297   0.54952   0.00000  Uiso   1.00
H840   H     0.33145   0.94091   0.61841   0.00000  Uiso   1.00
H841   H     0.09137   0.99676   0.65327   0.00000  Uiso   1.00
H842   H     0.03781   0.69463   0.60368   0.00000  Uiso   1.00
H843   H     0.09951   0.66834   0.58357   0.00000  Uiso   1.00
H844   H     0.15639   0.79247   0.70856   0.00000  Uiso   1.00
H845   H     0.17692   0.87419   0.79143   0.00000  Uiso   1.00
H846   H     0.22865   0.76688   0.91122   0.00000  Uiso   1.00
H847   H     0.32506   0.80333   0.97621   0.00000  Uiso   1.00
H848   H     0.20012   0.87528   0.59148   0.00000  Uiso   1.00
H849   H     0.33157   0.90991   0.91134   0.00000  Uiso   1.00
H850   H     0.15767   0.94084   0.53220   0.00000  Uiso   1.00
H851   H     0.06011   0.96528   0.98637   0.00000  Uiso   1.00
N852   N     0.14493   0.81890   0.73542   0.00000  Uiso   1.00
N853   N     0.18840   0.84777   0.76457   0.00000  Uiso   1.00
O854   O     0.29769   0.91296   0.75357   0.00000  Uiso   1.00
O855   O     0.05742   0.90371   0.74423   0.00000  Uiso   1.00
O856   O     0.31490   0.84024   0.83380   0.00000  Uiso   1.00
O857   O     0.07463   0.83099   0.82446   0.00000  Uiso   1.00
O858   O     0.27592   0.76296   0.75576   0.00000  Uiso   1.00
O859   O     0.03565   0.75371   0.74643   0.00000  Uiso   1.00
O860   O     0.25870   0.83567   0.67554   0.00000  Uiso   1.00
O861   O     0.01843   0.82642   0.66620   0.00000  Uiso   1.00
O862   O     0.04997   0.84821   0.57251   0.00000  Uiso   1.00
Zn863  Zn    0.27119   0.83951   0.75623   0.00000  Uiso   1.00
Zn864  Zn    0.06214   0.82716   0.74377   0.00000  Uiso   1.00
C865   C     0.34813   0.93150   0.74875   0.00000  Uiso   1.00
C866   C     0.39588   0.85296   0.91133   0.00000  Uiso   1.00
C867   C     0.35592   0.98605   0.74830   0.00000  Uiso   1.00
C868   C     0.37055   0.83661   0.85443   0.00000  Uiso   1.00
C869   C     0.64415   0.68062   0.75192   0.00000  Uiso   1.00
C870   C     0.65191   0.73518   0.75133   0.00000  Uiso   1.00
C871   C     0.63173   0.83646   0.64652   0.00000  Uiso   1.00
C872   C     0.63120   0.82003   0.50087   0.00000  Uiso   1.00
C873   C     0.61647   0.84675   0.58885   0.00000  Uiso   1.00
C874   C     0.37342   0.89673   0.93213   0.00000  Uiso   1.00
C875   C     0.40834   0.92853   0.97474   0.00000  Uiso   1.00
C876   C     0.48435   0.86795   0.98371   0.00000  Uiso   1.00
C877   C     0.46355   0.91437   0.50051   0.00000  Uiso   1.00
C878   C     0.40359   0.89655   0.60418   0.00000  Uiso   1.00
C879   C     0.36463   0.94333   0.59325   0.00000  Uiso   1.00
C880   C     0.40072   0.99561   0.60947   0.00000  Uiso   1.00
C881   C     0.45230   0.83830   0.93693   0.00000  Uiso   1.00
C882   C     0.53947   0.85315   0.50941   0.00000  Uiso   1.00
C883   C     0.57082   0.82267   0.97978   0.00000  Uiso   1.00
C884   C     0.54025   0.79413   0.93232   0.00000  Uiso   1.00
C885   C     0.47982   0.79767   0.91481   0.00000  Uiso   1.00
C886   C     0.56116   0.86186   0.56563   0.00000  Uiso   1.00
C887   C     0.65586   0.83969   0.55469   0.00000  Uiso   1.00
H888   H     0.60151   0.99694   0.75520   0.00000  Uiso   1.00
H889   H     0.45606   0.77045   0.88199   0.00000  Uiso   1.00
H890   H     0.39860   0.66974   0.74520   0.00000  Uiso   1.00
H891   H     0.44685   0.90853   0.59696   0.00000  Uiso   1.00
H892   H     0.41534   0.89055   0.64861   0.00000  Uiso   1.00
H893   H     0.34094   0.94297   0.54952   0.00000  Uiso   1.00
H894   H     0.66479   0.94091   0.61841   0.00000  Uiso   1.00
H895   H     0.42471   0.99676   0.65327   0.00000  Uiso   1.00
H896   H     0.37115   0.69463   0.60368   0.00000  Uiso   1.00
H897   H     0.43284   0.66834   0.58357   0.00000  Uiso   1.00
H898   H     0.48973   0.79247   0.70856   0.00000  Uiso   1.00
H899   H     0.51025   0.87419   0.79143   0.00000  Uiso   1.00
H900   H     0.56199   0.76688   0.91122   0.00000  Uiso   1.00
H901   H     0.65840   0.80333   0.97621   0.00000  Uiso   1.00
H902   H     0.53346   0.87528   0.59148   0.00000  Uiso   1.00
H903   H     0.66490   0.90991   0.91134   0.00000  Uiso   1.00
H904   H     0.49100   0.94084   0.53220   0.00000  Uiso   1.00
H905   H     0.39344   0.96528   0.98637   0.00000  Uiso   1.00
N906   N     0.47827   0.81890   0.73542   0.00000  Uiso   1.00
N907   N     0.52173   0.84777   0.76457   0.00000  Uiso   1.00
O908   O     0.63102   0.91296   0.75357   0.00000  Uiso   1.00
O909   O     0.39075   0.90371   0.74423   0.00000  Uiso   1.00
O910   O     0.64823   0.84024   0.83380   0.00000  Uiso   1.00
O911   O     0.40796   0.83099   0.82446   0.00000  Uiso   1.00
O912   O     0.60925   0.76296   0.75576   0.00000  Uiso   1.00
O913   O     0.36898   0.75371   0.74643   0.00000  Uiso   1.00
O914   O     0.59204   0.83567   0.67554   0.00000  Uiso   1.00
O915   O     0.35177   0.82642   0.66620   0.00000  Uiso   1.00
O916   O     0.38331   0.84821   0.57251   0.00000  Uiso   1.00
Zn917  Zn    0.60453   0.83951   0.75623   0.00000  Uiso   1.00
Zn918  Zn    0.39547   0.82716   0.74377   0.00000  Uiso   1.00
C919   C     0.68146   0.93150   0.74875   0.00000  Uiso   1.00
C920   C     0.72921   0.85296   0.91133   0.00000  Uiso   1.00
C921   C     0.68926   0.98605   0.74830   0.00000  Uiso   1.00
C922   C     0.70389   0.83661   0.85443   0.00000  Uiso   1.00
C923   C     0.97748   0.68062   0.75192   0.00000  Uiso   1.00
C924   C     0.98524   0.73518   0.75133   0.00000  Uiso   1.00
C925   C     0.96506   0.83646   0.64652   0.00000  Uiso   1.00
C926   C     0.96454   0.82003   0.50087   0.00000  Uiso   1.00
C927   C     0.94980   0.84675   0.58885   0.00000  Uiso   1.00
C928   C     0.70676   0.89673   0.93213   0.00000  Uiso   1.00
C929   C     0.74168   0.92853   0.97474   0.00000  Uiso   1.00
C930   C     0.81768   0.86795   0.98371   0.00000  Uiso   1.00
C931   C     0.79688   0.91437   0.50051   0.00000  Uiso   1.00
C932   C     0.73692   0.89655   0.60418   0.00000  Uiso   1.00
C933   C     0.69797   0.94333   0.59325   0.00000  Uiso   1.00
C934   C     0.73405   0.99561   0.60947   0.00000  Uiso   1.00
C935   C     0.78563   0.83830   0.93693   0.00000  Uiso   1.00
C936   C     0.87280   0.85315   0.50941   0.00000  Uiso   1.00
C937   C     0.90415   0.82267   0.97978   0.00000  Uiso   1.00
C938   C     0.87358   0.79413   0.93232   0.00000  Uiso   1.00
C939   C     0.81316   0.79767   0.91481   0.00000  Uiso   1.00
C940   C     0.89449   0.86186   0.56563   0.00000  Uiso   1.00
C941   C     0.98920   0.83969   0.55469   0.00000  Uiso   1.00
H942   H     0.93484   0.99694   0.75520   0.00000  Uiso   1.00
H943   H     0.78940   0.77045   0.88199   0.00000  Uiso   1.00
H944   H     0.73193   0.66974   0.74520   0.00000  Uiso   1.00
H945   H     0.78018   0.90853   0.59696   0.00000  Uiso   1.00
H946   H     0.74868   0.89055   0.64861   0.00000  Uiso   1.00
H947   H     0.67427   0.94297   0.54952   0.00000  Uiso   1.00
H948   H     0.99812   0.94091   0.61841   0.00000  Uiso   1.00
H949   H     0.75804   0.99676   0.65327   0.00000  Uiso   1.00
H950   H     0.70448   0.69463   0.60368   0.00000  Uiso   1.00
H951   H     0.76618   0.66834   0.58357   0.00000  Uiso   1.00
H952   H     0.82306   0.79247   0.70856   0.00000  Uiso   1.00
H953   H     0.84358   0.87419   0.79143   0.00000  Uiso   1.00
H954   H     0.89532   0.76688   0.91122   0.00000  Uiso   1.00
H955   H     0.99173   0.80333   0.97621   0.00000  Uiso   1.00
H956   H     0.86679   0.87528   0.59148   0.00000  Uiso   1.00
H957   H     0.99823   0.90991   0.91134   0.00000  Uiso   1.00
H958   H     0.82434   0.94084   0.53220   0.00000  Uiso   1.00
H959   H     0.72678   0.96528   0.98637   0.00000  Uiso   1.00
N960   N     0.81160   0.81890   0.73542   0.00000  Uiso   1.00
N961   N     0.85507   0.84777   0.76457   0.00000  Uiso   1.00
O962   O     0.96435   0.91296   0.75357   0.00000  Uiso   1.00
O963   O     0.72408   0.90371   0.74423   0.00000  Uiso   1.00
O964   O     0.98157   0.84024   0.83380   0.00000  Uiso   1.00
O965   O     0.74130   0.83099   0.82446   0.00000  Uiso   1.00
O966   O     0.94258   0.76296   0.75576   0.00000  Uiso   1.00
O967   O     0.70231   0.75371   0.74643   0.00000  Uiso   1.00
O968   O     0.92537   0.83567   0.67554   0.00000  Uiso   1.00
O969   O     0.68510   0.82642   0.66620   0.00000  Uiso   1.00
O970   O     0.71664   0.84821   0.57251   0.00000  Uiso   1.00
Zn971  Zn    0.93786   0.83951   0.75623   0.00000  Uiso   1.00
Zn972  Zn    0.72881   0.82716   0.74377   0.00000  Uiso   1.00
loop_
_geom_bond_atom_site_label_1
_geom_bond_atom_site_label_2
_geom_bond_distance
_geom_bond_site_symmetry_2
_ccdc_geom_bond_type
C1     O45     1.291   .     A
C1     C3      1.402   .     S
C1     O152    1.281   1_455 S
C2     C10     1.405   .     A
C2     C4      1.447   .     S
C2     C17     1.415   .     A
C3     C275    1.336   1_455 S
C3     H188    1.087   .     S
C4     O47     1.292   .     A
C4     O154    1.301   1_455 S
C5     C6      1.402   .     S
C5     C381    1.336   1_545 S
C5     H348    1.088   1_545 S
C6     O48     1.291   .     A
C6     O103    1.281   .     S
C7     C9      1.445   .     S
C7     O50     1.307   .     A
C7     O105    1.284   .     S
C8     C23     1.399   .     A
C8     C505    1.402   1_554 S
C8     H523    1.082   1_554 S
C9     C22     1.383   .     A
C9     C23     1.413   .     A
C10    C11     1.386   .     A
C10    H147    1.084   1_455 S
C11    H41     1.081   .     S
C11    C499    1.388   .     S
C12    C17     1.404   .     A
C12    C499    1.404   .     S
C12    C504    1.391   .     S
C13    H40     1.083   .     S
C13    C497    1.388   1_554 S
C13    C498    1.404   1_554 S
C14    H28     1.103   .     S
C14    H27     1.099   .     S
C14    O52     1.439   .     S
C14    C15     1.553   .     S
C15    H29     1.108   .     S
C15    C16     1.528   .     S
C15    H138    1.110   1_455 S
C16    H31     1.110   .     S
C16    H194    1.111   .     S
C16    H195    1.110   .     S
C17    C21     1.423   .     A
C18    C22     1.387   .     A
C18    C498    1.391   1_554 S
C18    C505    1.411   1_554 S
C19    C20     1.392   .     A
C19    C494    1.402   .     S
C19    C504    1.411   .     S
C20    C21     1.396   .     A
C20    H36     1.084   .     S
C21    H25     1.081   .     S
C22    H38     1.081   .     S
C23    O106    1.394   .     S
H24    C167    1.088   .     S
H26    C327    1.087   1_545 S
H30    C69     1.110   .     S
H32    C340    1.111   1_545 S
H33    C340    1.110   1_545 S
H34    N42     1.029   .     S
H35    N43     1.029   .     S
H37    C494    1.082   .     S
H39    C64     1.084   .     S
N42    N43     1.281   .     D
N42    Zn54    2.027   .     S
N43    Zn53    2.027   .     S
O44    Zn53    1.955   .     S
O44    C55     1.281   .     S
O45    Zn54    1.976   .     S
O46    Zn53    1.976   .     S
O46    C58     1.301   .     S
O47    Zn54    1.972   .     S
O48    Zn53    1.976   .     S
O49    Zn54    1.955   .     S
O49    C114    1.281   1_455 S
O50    Zn53    1.972   .     S
O51    Zn54    1.976   .     S
O51    C115    1.284   1_455 S
O52    C131    1.394   1_455 S
C55    O99     1.291   .     A
C55    C57     1.402   .     S
C56    C64     1.405   .     A
C56    C58     1.447   .     S
C56    C71     1.415   .     A
C57    C167    1.336   .     S
C57    H242    1.087   .     S
C58    O101    1.292   .     A
C59    C60     1.402   .     S
C59    C435    1.336   1_545 S
C59    H402    1.088   1_545 S
C60    O102    1.291   .     A
C60    O157    1.281   .     S
C61    C63     1.445   .     S
C61    O104    1.307   .     A
C61    O159    1.284   .     S
C62    C77     1.399   .     A
C62    C559    1.402   1_554 S
C62    H577    1.082   1_554 S
C63    C76     1.383   .     A
C63    C77     1.413   .     A
C64    C65     1.386   .     A
C65    H95     1.081   .     S
C65    C553    1.388   .     S
C66    C71     1.404   .     A
C66    C553    1.404   .     S
C66    C558    1.391   .     S
C67    H94     1.083   .     S
C67    C551    1.388   1_554 S
C67    C552    1.404   1_554 S
C68    H82     1.103   .     S
C68    H81     1.099   .     S
C68    O106    1.439   .     S
C68    C69     1.553   .     S
C69    H83     1.108   .     S
C69    C70     1.528   .     S
C70    H85     1.110   .     S
C70    H248    1.111   .     S
C70    H249    1.110   .     S
C71    C75     1.423   .     A
C72    C76     1.387   .     A
C72    C552    1.391   1_554 S
C72    C559    1.411   1_554 S
C73    C74     1.392   .     A
C73    C548    1.402   .     S
C73    C558    1.411   .     S
C74    C75     1.396   .     A
C74    H90     1.084   .     S
C75    H79     1.081   .     S
C76    H92     1.081   .     S
C77    O160    1.394   .     S
H78    C221    1.088   .     S
H80    C381    1.087   1_545 S
H84    C123    1.110   .     S
H86    C394    1.111   1_545 S
H87    C394    1.110   1_545 S
H88    N96     1.029   .     S
H89    N97     1.029   .     S
H91    C548    1.082   .     S
H93    C118    1.084   .     S
N96    N97     1.281   .     D
N96    Zn108   2.027   .     S
N97    Zn107   2.027   .     S
O98    Zn107   1.955   .     S
O98    C109    1.281   .     S
O99    Zn108   1.976   .     S
O100   Zn107   1.976   .     S
O100   C112    1.301   .     S
O101   Zn108   1.972   .     S
O102   Zn107   1.976   .     S
O103   Zn108   1.955   .     S
O104   Zn107   1.972   .     S
O105   Zn108   1.976   .     S
C109   O153    1.291   .     A
C109   C111    1.402   .     S
C110   C118    1.405   .     A
C110   C112    1.447   .     S
C110   C125    1.415   .     A
C111   C221    1.336   .     S
C111   H296    1.087   .     S
C112   O155    1.292   .     A
C113   C114    1.402   .     S
C113   C327    1.336   1_645 S
C113   H456    1.088   1_545 S
C114   O156    1.291   .     A
C114   O49     1.281   1_655 S
C115   C117    1.445   .     S
C115   O158    1.307   .     A
C115   O51     1.284   1_655 S
C116   C131    1.399   .     A
C116   C613    1.402   1_554 S
C116   H631    1.082   1_554 S
C117   C130    1.383   .     A
C117   C131    1.413   .     A
C118   C119    1.386   .     A
C119   H149    1.081   .     S
C119   C607    1.388   .     S
C120   C125    1.404   .     A
C120   C607    1.404   .     S
C120   C612    1.391   .     S
C121   H148    1.083   .     S
C121   C605    1.388   1_554 S
C121   C606    1.404   1_554 S
C122   H136    1.103   .     S
C122   H135    1.099   .     S
C122   O160    1.439   .     S
C122   C123    1.553   .     S
C123   H137    1.108   .     S
C123   C124    1.528   .     S
C124   H139    1.110   .     S
C124   H302    1.111   .     S
C124   H303    1.110   .     S
C125   C129    1.423   .     A
C126   C130    1.387   .     A
C126   C606    1.391   1_554 S
C126   C613    1.411   1_554 S
C127   C128    1.392   .     A
C127   C602    1.402   .     S
C127   C612    1.411   .     S
C128   C129    1.396   .     A
C128   H144    1.084   .     S
C129   H133    1.081   .     S
C130   H146    1.081   .     S
C131   O52     1.394   1_655 S
H132   C275    1.088   .     S
H134   C435    1.087   1_545 S
H138   C15     1.110   1_655 S
H140   C448    1.111   1_545 S
H141   C448    1.110   1_545 S
H142   N150    1.029   .     S
H143   N151    1.029   .     S
H145   C602    1.082   .     S
H147   C10     1.084   1_655 S
N150   N151    1.281   .     D
N150   Zn162   2.027   .     S
N151   Zn161   2.027   .     S
O152   Zn161   1.955   .     S
O152   C1      1.281   1_655 S
O153   Zn162   1.976   .     S
O154   Zn161   1.976   .     S
O154   C4      1.301   1_655 S
O155   Zn162   1.972   .     S
O156   Zn161   1.976   .     S
O157   Zn162   1.955   .     S
O158   Zn161   1.972   .     S
O159   Zn162   1.976   .     S
C163   O207    1.291   .     A
C163   C165    1.402   .     S
C163   O314    1.281   1_455 S
C164   C172    1.405   .     A
C164   C166    1.447   .     S
C164   C179    1.415   .     A
C165   C437    1.336   1_455 S
C165   H350    1.087   .     S
C166   O209    1.292   .     A
C166   O316    1.301   1_455 S
C167   C168    1.402   .     S
C168   O210    1.291   .     A
C168   O265    1.281   .     S
C169   C171    1.445   .     S
C169   O212    1.307   .     A
C169   O267    1.284   .     S
C170   C185    1.399   .     A
C170   C667    1.402   1_554 S
C170   H685    1.082   1_554 S
C171   C184    1.383   .     A
C171   C185    1.413   .     A
C172   C173    1.386   .     A
C172   H309    1.084   1_455 S
C173   H203    1.081   .     S
C173   C661    1.388   .     S
C174   C179    1.404   .     A
C174   C661    1.404   .     S
C174   C666    1.391   .     S
C175   H202    1.083   .     S
C175   C659    1.388   1_554 S
C175   C660    1.404   1_554 S
C176   H190    1.103   .     S
C176   H189    1.099   .     S
C176   O214    1.439   .     S
C176   C177    1.553   .     S
C177   H191    1.108   .     S
C177   C178    1.528   .     S
C177   H300    1.110   1_455 S
C178   H193    1.110   .     S
C178   H356    1.111   .     S
C178   H357    1.110   .     S
C179   C183    1.423   .     A
C180   C184    1.387   .     A
C180   C660    1.391   1_554 S
C180   C667    1.411   1_554 S
C181   C182    1.392   .     A
C181   C656    1.402   .     S
C181   C666    1.411   .     S
C182   C183    1.396   .     A
C182   H198    1.084   .     S
C183   H187    1.081   .     S
C184   H200    1.081   .     S
C185   O268    1.394   .     S
H186   C329    1.088   .     S
H192   C231    1.110   .     S
H196   N204    1.029   .     S
H197   N205    1.029   .     S
H199   C656    1.082   .     S
H201   C226    1.084   .     S
N204   N205    1.281   .     D
N204   Zn216   2.027   .     S
N205   Zn215   2.027   .     S
O206   Zn215   1.955   .     S
O206   C217    1.281   .     S
O207   Zn216   1.976   .     S
O208   Zn215   1.976   .     S
O208   C220    1.301   .     S
O209   Zn216   1.972   .     S
O210   Zn215   1.976   .     S
O211   Zn216   1.955   .     S
O211   C276    1.281   1_455 S
O212   Zn215   1.972   .     S
O213   Zn216   1.976   .     S
O213   C277    1.284   1_455 S
O214   C293    1.394   1_455 S
C217   O261    1.291   .     A
C217   C219    1.402   .     S
C218   C226    1.405   .     A
C218   C220    1.447   .     S
C218   C233    1.415   .     A
C219   C329    1.336   .     S
C219   H404    1.087   .     S
C220   O263    1.292   .     A
C221   C222    1.402   .     S
C222   O264    1.291   .     A
C222   O319    1.281   .     S
C223   C225    1.445   .     S
C223   O266    1.307   .     A
C223   O321    1.284   .     S
C224   C239    1.399   .     A
C224   C721    1.402   1_554 S
C224   H739    1.082   1_554 S
C225   C238    1.383   .     A
C225   C239    1.413   .     A
C226   C227    1.386   .     A
C227   H257    1.081   .     S
C227   C715    1.388   .     S
C228   C233    1.404   .     A
C228   C715    1.404   .     S
C228   C720    1.391   .     S
C229   H256    1.083   .     S
C229   C713    1.388   1_554 S
C229   C714    1.404   1_554 S
C230   H244    1.103   .     S
C230   H243    1.099   .     S
C230   O268    1.439   .     S
C230   C231    1.553   .     S
C231   H245    1.108   .     S
C231   C232    1.528   .     S
C232   H247    1.110   .     S
C232   H410    1.111   .     S
C232   H411    1.110   .     S
C233   C237    1.423   .     A
C234   C238    1.387   .     A
C234   C714    1.391   1_554 S
C234   C721    1.411   1_554 S
C235   C236    1.392   .     A
C235   C710    1.402   .     S
C235   C720    1.411   .     S
C236   C237    1.396   .     A
C236   H252    1.084   .     S
C237   H241    1.081   .     S
C238   H254    1.081   .     S
C239   O322    1.394   .     S
H240   C383    1.088   .     S
H246   C285    1.110   .     S
H250   N258    1.029   .     S
H251   N259    1.029   .     S
H253   C710    1.082   .     S
H255   C280    1.084   .     S
N258   N259    1.281   .     D
N258   Zn270   2.027   .     S
N259   Zn269   2.027   .     S
O260   Zn269   1.955   .     S
O260   C271    1.281   .     S
O261   Zn270   1.976   .     S
O262   Zn269   1.976   .     S
O262   C274    1.301   .     S
O263   Zn270   1.972   .     S
O264   Zn269   1.976   .     S
O265   Zn270   1.955   .     S
O266   Zn269   1.972   .     S
O267   Zn270   1.976   .     S
C271   O315    1.291   .     A
C271   C273    1.402   .     S
C272   C280    1.405   .     A
C272   C274    1.447   .     S
C272   C287    1.415   .     A
C273   C383    1.336   .     S
C273   H458    1.087   .     S
C274   O317    1.292   .     A
C275   C276    1.402   .     S
C275   C3      1.336   1_655 S
C276   O318    1.291   .     A
C276   O211    1.281   1_655 S
C277   C279    1.445   .     S
C277   O320    1.307   .     A
C277   O213    1.284   1_655 S
C278   C293    1.399   .     A
C278   C775    1.402   1_554 S
C278   H793    1.082   1_554 S
C279   C292    1.383   .     A
C279   C293    1.413   .     A
C280   C281    1.386   .     A
C281   H311    1.081   .     S
C281   C769    1.388   .     S
C282   C287    1.404   .     A
C282   C769    1.404   .     S
C282   C774    1.391   .     S
C283   H310    1.083   .     S
C283   C767    1.388   1_554 S
C283   C768    1.404   1_554 S
C284   H298    1.103   .     S
C284   H297    1.099   .     S
C284   O322    1.439   .     S
C284   C285    1.553   .     S
C285   H299    1.108   .     S
C285   C286    1.528   .     S
C286   H301    1.110   .     S
C286   H464    1.111   .     S
C286   H465    1.110   .     S
C287   C291    1.423   .     A
C288   C292    1.387   .     A
C288   C768    1.391   1_554 S
C288   C775    1.411   1_554 S
C289   C290    1.392   .     A
C289   C764    1.402   .     S
C289   C774    1.411   .     S
C290   C291    1.396   .     A
C290   H306    1.084   .     S
C291   H295    1.081   .     S
C292   H308    1.081   .     S
C293   O214    1.394   1_655 S
H294   C437    1.088   .     S
H300   C177    1.110   1_655 S
H304   N312    1.029   .     S
H305   N313    1.029   .     S
H307   C764    1.082   .     S
H309   C172    1.084   1_655 S
N312   N313    1.281   .     D
N312   Zn324   2.027   .     S
N313   Zn323   2.027   .     S
O314   Zn323   1.955   .     S
O314   C163    1.281   1_655 S
O315   Zn324   1.976   .     S
O316   Zn323   1.976   .     S
O316   C166    1.301   1_655 S
O317   Zn324   1.972   .     S
O318   Zn323   1.976   .     S
O319   Zn324   1.955   .     S
O320   Zn323   1.972   .     S
O321   Zn324   1.976   .     S
C325   O369    1.291   .     A
C325   C327    1.402   .     S
C325   O476    1.281   1_455 S
C326   C334    1.405   .     A
C326   C328    1.447   .     S
C326   C341    1.415   .     A
C327   C113    1.336   1_465 S
C327   H26     1.087   1_565 S
C328   O371    1.292   .     A
C328   O478    1.301   1_455 S
C329   C330    1.402   .     S
C330   O372    1.291   .     A
C330   O427    1.281   .     S
C331   C333    1.445   .     S
C331   O374    1.307   .     A
C331   O429    1.284   .     S
C332   C347    1.399   .     A
C332   C829    1.402   1_554 S
C332   H847    1.082   1_554 S
C333   C346    1.383   .     A
C333   C347    1.413   .     A
C334   C335    1.386   .     A
C334   H471    1.084   1_455 S
C335   H365    1.081   .     S
C335   C823    1.388   .     S
C336   C341    1.404   .     A
C336   C823    1.404   .     S
C336   C828    1.391   .     S
C337   H364    1.083   .     S
C337   C821    1.388   1_554 S
C337   C822    1.404   1_554 S
C338   H352    1.103   .     S
C338   H351    1.099   .     S
C338   O376    1.439   .     S
C338   C339    1.553   .     S
C339   H353    1.108   .     S
C339   C340    1.528   .     S
C339   H462    1.110   1_455 S
C340   H355    1.110   .     S
C340   H32     1.111   1_565 S
C340   H33     1.110   1_565 S
C341   C345    1.423   .     A
C342   C346    1.387   .     A
C342   C822    1.391   1_554 S
C342   C829    1.411   1_554 S
C343   C344    1.392   .     A
C343   C818    1.402   .     S
C343   C828    1.411   .     S
C344   C345    1.396   .     A
C344   H360    1.084   .     S
C345   H349    1.081   .     S
C346   H362    1.081   .     S
C347   O430    1.394   .     S
H348   C5      1.088   1_565 S
H354   C393    1.110   .     S
H358   N366    1.029   .     S
H359   N367    1.029   .     S
H361   C818    1.082   .     S
H363   C388    1.084   .     S
N366   N367    1.281   .     D
N366   Zn378   2.027   .     S
N367   Zn377   2.027   .     S
O368   Zn377   1.955   .     S
O368   C379    1.281   .     S
O369   Zn378   1.976   .     S
O370   Zn377   1.976   .     S
O370   C382    1.301   .     S
O371   Zn378   1.972   .     S
O372   Zn377   1.976   .     S
O373   Zn378   1.955   .     S
O373   C438    1.281   1_455 S
O374   Zn377   1.972   .     S
O375   Zn378   1.976   .     S
O375   C439    1.284   1_455 S
O376   C455    1.394   1_455 S
C379   O423    1.291   .     A
C379   C381    1.402   .     S
C380   C388    1.405   .     A
C380   C382    1.447   .     S
C380   C395    1.415   .     A
C381   C5      1.336   1_565 S
C381   H80     1.087   1_565 S
C382   O425    1.292   .     A
C383   C384    1.402   .     S
C384   O426    1.291   .     A
C384   O481    1.281   .     S
C385   C387    1.445   .     S
C385   O428    1.307   .     A
C385   O483    1.284   .     S
C386   C401    1.399   .     A
C386   C883    1.402   1_554 S
C386   H901    1.082   1_554 S
C387   C400    1.383   .     A
C387   C401    1.413   .     A
C388   C389    1.386   .     A
C389   H419    1.081   .     S
C389   C877    1.388   .     S
C390   C395    1.404   .     A
C390   C877    1.404   .     S
C390   C882    1.391   .     S
C391   H418    1.083   .     S
C391   C875    1.388   1_554 S
C391   C876    1.404   1_554 S
C392   H406    1.103   .     S
C392   H405    1.099   .     S
C392   O430    1.439   .     S
C392   C393    1.553   .     S
C393   H407    1.108   .     S
C393   C394    1.528   .     S
C394   H409    1.110   .     S
C394   H86     1.111   1_565 S
C394   H87     1.110   1_565 S
C395   C399    1.423   .     A
C396   C400    1.387   .     A
C396   C876    1.391   1_554 S
C396   C883    1.411   1_554 S
C397   C398    1.392   .     A
C397   C872    1.402   .     S
C397   C882    1.411   .     S
C398   C399    1.396   .     A
C398   H414    1.084   .     S
C399   H403    1.081   .     S
C400   H416    1.081   .     S
C401   O484    1.394   .     S
H402   C59     1.088   1_565 S
H408   C447    1.110   .     S
H412   N420    1.029   .     S
H413   N421    1.029   .     S
H415   C872    1.082   .     S
H417   C442    1.084   .     S
N420   N421    1.281   .     D
N420   Zn432   2.027   .     S
N421   Zn431   2.027   .     S
O422   Zn431   1.955   .     S
O422   C433    1.281   .     S
O423   Zn432   1.976   .     S
O424   Zn431   1.976   .     S
O424   C436    1.301   .     S
O425   Zn432   1.972   .     S
O426   Zn431   1.976   .     S
O427   Zn432   1.955   .     S
O428   Zn431   1.972   .     S
O429   Zn432   1.976   .     S
C433   O477    1.291   .     A
C433   C435    1.402   .     S
C434   C442    1.405   .     A
C434   C436    1.447   .     S
C434   C449    1.415   .     A
C435   C59     1.336   1_565 S
C435   H134    1.087   1_565 S
C436   O479    1.292   .     A
C437   C438    1.402   .     S
C437   C165    1.336   1_655 S
C438   O480    1.291   .     A
C438   O373    1.281   1_655 S
C439   C441    1.445   .     S
C439   O482    1.307   .     A
C439   O375    1.284   1_655 S
C440   C455    1.399   .     A
C440   C937    1.402   1_554 S
C440   H955    1.082   1_554 S
C441   C454    1.383   .     A
C441   C455    1.413   .     A
C442   C443    1.386   .     A
C443   H473    1.081   .     S
C443   C931    1.388   .     S
C444   C449    1.404   .     A
C444   C931    1.404   .     S
C444   C936    1.391   .     S
C445   H472    1.083   .     S
C445   C929    1.388   1_554 S
C445   C930    1.404   1_554 S
C446   H460    1.103   .     S
C446   H459    1.099   .     S
C446   O484    1.439   .     S
C446   C447    1.553   .     S
C447   H461    1.108   .     S
C447   C448    1.528   .     S
C448   H463    1.110   .     S
C448   H140    1.111   1_565 S
C448   H141    1.110   1_565 S
C449   C453    1.423   .     A
C450   C454    1.387   .     A
C450   C930    1.391   1_554 S
C450   C937    1.411   1_554 S
C451   C452    1.392   .     A
C451   C926    1.402   .     S
C451   C936    1.411   .     S
C452   C453    1.396   .     A
C452   H468    1.084   .     S
C453   H457    1.081   .     S
C454   H470    1.081   .     S
C455   O376    1.394   1_655 S
H456   C113    1.088   1_565 S
H462   C339    1.110   1_655 S
H466   N474    1.029   .     S
H467   N475    1.029   .     S
H469   C926    1.082   .     S
H471   C334    1.084   1_655 S
N474   N475    1.281   .     D
N474   Zn486   2.027   .     S
N475   Zn485   2.027   .     S
O476   Zn485   1.955   .     S
O476   C325    1.281   1_655 S
O477   Zn486   1.976   .     S
O478   Zn485   1.976   .     S
O478   C328    1.301   1_655 S
O479   Zn486   1.972   .     S
O480   Zn485   1.976   .     S
O481   Zn486   1.955   .     S
O482   Zn485   1.972   .     S
O483   Zn486   1.976   .     S
C487   O531    1.291   .     A
C487   C489    1.402   .     S
C487   O638    1.281   1_455 S
C488   C496    1.405   .     A
C488   C490    1.447   .     S
C488   C503    1.415   .     A
C489   C761    1.336   1_455 S
C489   H674    1.087   .     S
C490   O533    1.292   .     A
C490   O640    1.301   1_455 S
C491   C492    1.402   .     S
C491   C867    1.336   1_545 S
C491   H834    1.088   1_545 S
C492   O534    1.291   .     A
C492   O589    1.281   .     S
C493   C495    1.445   .     S
C493   O536    1.307   .     A
C493   O591    1.284   .     S
C494   C509    1.399   .     A
C495   C508    1.383   .     A
C495   C509    1.413   .     A
C496   C497    1.386   .     A
C496   H633    1.084   1_455 S
C497   H527    1.081   .     S
C497   C13     1.388   1_556 S
C498   C503    1.404   .     A
C498   C13     1.404   1_556 S
C498   C18     1.391   1_556 S
C499   H526    1.083   .     S
C500   H514    1.103   .     S
C500   H513    1.099   .     S
C500   O538    1.439   .     S
C500   C501    1.553   .     S
C501   H515    1.108   .     S
C501   C502    1.528   .     S
C501   H624    1.110   1_455 S
C502   H517    1.110   .     S
C502   H680    1.111   .     S
C502   H681    1.110   .     S
C503   C507    1.423   .     A
C504   C508    1.387   .     A
C505   C506    1.392   .     A
C505   C8      1.402   1_556 S
C505   C18     1.411   1_556 S
C506   C507    1.396   .     A
C506   H522    1.084   .     S
C507   H511    1.081   .     S
C508   H524    1.081   .     S
C509   O592    1.394   .     S
H510   C653    1.088   .     S
H512   C813    1.087   1_545 S
H516   C555    1.110   .     S
H518   C826    1.111   1_545 S
H519   C826    1.110   1_545 S
H520   N528    1.029   .     S
H521   N529    1.029   .     S
H523   C8      1.082   1_556 S
H525   C550    1.084   .     S
N528   N529    1.281   .     D
N528   Zn540   2.027   .     S
N529   Zn539   2.027   .     S
O530   Zn539   1.955   .     S
O530   C541    1.281   .     S
O531   Zn540   1.976   .     S
O532   Zn539   1.976   .     S
O532   C544    1.301   .     S
O533   Zn540   1.972   .     S
O534   Zn539   1.976   .     S
O535   Zn540   1.955   .     S
O535   C600    1.281   1_455 S
O536   Zn539   1.972   .     S
O537   Zn540   1.976   .     S
O537   C601    1.284   1_455 S
O538   C617    1.394   1_455 S
C541   O585    1.291   .     A
C541   C543    1.402   .     S
C542   C550    1.405   .     A
C542   C544    1.447   .     S
C542   C557    1.415   .     A
C543   C653    1.336   .     S
C543   H728    1.087   .     S
C544   O587    1.292   .     A
C545   C546    1.402   .     S
C545   C921    1.336   1_545 S
C545   H888    1.088   1_545 S
C546   O588    1.291   .     A
C546   O643    1.281   .     S
C547   C549    1.445   .     S
C547   O590    1.307   .     A
C547   O645    1.284   .     S
C548   C563    1.399   .     A
C549   C562    1.383   .     A
C549   C563    1.413   .     A
C550   C551    1.386   .     A
C551   H581    1.081   .     S
C551   C67     1.388   1_556 S
C552   C557    1.404   .     A
C552   C67     1.404   1_556 S
C552   C72     1.391   1_556 S
C553   H580    1.083   .     S
C554   H568    1.103   .     S
C554   H567    1.099   .     S
C554   O592    1.439   .     S
C554   C555    1.553   .     S
C555   H569    1.108   .     S
C555   C556    1.528   .     S
C556   H571    1.110   .     S
C556   H734    1.111   .     S
C556   H735    1.110   .     S
C557   C561    1.423   .     A
C558   C562    1.387   .     A
C559   C560    1.392   .     A
C559   C62     1.402   1_556 S
C559   C72     1.411   1_556 S
C560   C561    1.396   .     A
C560   H576    1.084   .     S
C561   H565    1.081   .     S
C562   H578    1.081   .     S
C563   O646    1.394   .     S
H564   C707    1.088   .     S
H566   C867    1.087   1_545 S
H570   C609    1.110   .     S
H572   C880    1.111   1_545 S
H573   C880    1.110   1_545 S
H574   N582    1.029   .     S
H575   N583    1.029   .     S
H577   C62     1.082   1_556 S
H579   C604    1.084   .     S
N582   N583    1.281   .     D
N582   Zn594   2.027   .     S
N583   Zn593   2.027   .     S
O584   Zn593   1.955   .     S
O584   C595    1.281   .     S
O585   Zn594   1.976   .     S
O586   Zn593   1.976   .     S
O586   C598    1.301   .     S
O587   Zn594   1.972   .     S
O588   Zn593   1.976   .     S
O589   Zn594   1.955   .     S
O590   Zn593   1.972   .     S
O591   Zn594   1.976   .     S
C595   O639    1.291   .     A
C595   C597    1.402   .     S
C596   C604    1.405   .     A
C596   C598    1.447   .     S
C596   C611    1.415   .     A
C597   C707    1.336   .     S
C597   H782    1.087   .     S
C598   O641    1.292   .     A
C599   C600    1.402   .     S
C599   C813    1.336   1_645 S
C599   H942    1.088   1_545 S
C600   O642    1.291   .     A
C600   O535    1.281   1_655 S
C601   C603    1.445   .     S
C601   O644    1.307   .     A
C601   O537    1.284   1_655 S
C602   C617    1.399   .     A
C603   C616    1.383   .     A
C603   C617    1.413   .     A
C604   C605    1.386   .     A
C605   H635    1.081   .     S
C605   C121    1.388   1_556 S
C606   C611    1.404   .     A
C606   C121    1.404   1_556 S
C606   C126    1.391   1_556 S
C607   H634    1.083   .     S
C608   H622    1.103   .     S
C608   H621    1.099   .     S
C608   O646    1.439   .     S
C608   C609    1.553   .     S
C609   H623    1.108   .     S
C609   C610    1.528   .     S
C610   H625    1.110   .     S
C610   H788    1.111   .     S
C610   H789    1.110   .     S
C611   C615    1.423   .     A
C612   C616    1.387   .     A
C613   C614    1.392   .     A
C613   C116    1.402   1_556 S
C613   C126    1.411   1_556 S
C614   C615    1.396   .     A
C614   H630    1.084   .     S
C615   H619    1.081   .     S
C616   H632    1.081   .     S
C617   O538    1.394   1_655 S
H618   C761    1.088   .     S
H620   C921    1.087   1_545 S
H624   C501    1.110   1_655 S
H626   C934    1.111   1_545 S
H627   C934    1.110   1_545 S
H628   N636    1.029   .     S
H629   N637    1.029   .     S
H631   C116    1.082   1_556 S
H633   C496    1.084   1_655 S
N636   N637    1.281   .     D
N636   Zn648   2.027   .     S
N637   Zn647   2.027   .     S
O638   Zn647   1.955   .     S
O638   C487    1.281   1_655 S
O639   Zn648   1.976   .     S
O640   Zn647   1.976   .     S
O640   C490    1.301   1_655 S
O641   Zn648   1.972   .     S
O642   Zn647   1.976   .     S
O643   Zn648   1.955   .     S
O644   Zn647   1.972   .     S
O645   Zn648   1.976   .     S
C649   O693    1.291   .     A
C649   C651    1.402   .     S
C649   O800    1.281   1_455 S
C650   C658    1.405   .     A
C650   C652    1.447   .     S
C650   C665    1.415   .     A
C651   C923    1.336   1_455 S
C651   H836    1.087   .     S
C652   O695    1.292   .     A
C652   O802    1.301   1_455 S
C653   C654    1.402   .     S
C654   O696    1.291   .     A
C654   O751    1.281   .     S
C655   C657    1.445   .     S
C655   O698    1.307   .     A
C655   O753    1.284   .     S
C656   C671    1.399   .     A
C657   C670    1.383   .     A
C657   C671    1.413   .     A
C658   C659    1.386   .     A
C658   H795    1.084   1_455 S
C659   H689    1.081   .     S
C659   C175    1.388   1_556 S
C660   C665    1.404   .     A
C660   C175    1.404   1_556 S
C660   C180    1.391   1_556 S
C661   H688    1.083   .     S
C662   H676    1.103   .     S
C662   H675    1.099   .     S
C662   O700    1.439   .     S
C662   C663    1.553   .     S
C663   H677    1.108   .     S
C663   C664    1.528   .     S
C663   H786    1.110   1_455 S
C664   H679    1.110   .     S
C664   H842    1.111   .     S
C664   H843    1.110   .     S
C665   C669    1.423   .     A
C666   C670    1.387   .     A
C667   C668    1.392   .     A
C667   C170    1.402   1_556 S
C667   C180    1.411   1_556 S
C668   C669    1.396   .     A
C668   H684    1.084   .     S
C669   H673    1.081   .     S
C670   H686    1.081   .     S
C671   O754    1.394   .     S
H672   C815    1.088   .     S
H678   C717    1.110   .     S
H682   N690    1.029   .     S
H683   N691    1.029   .     S
H685   C170    1.082   1_556 S
H687   C712    1.084   .     S
N690   N691    1.281   .     D
N690   Zn702   2.027   .     S
N691   Zn701   2.027   .     S
O692   Zn701   1.955   .     S
O692   C703    1.281   .     S
O693   Zn702   1.976   .     S
O694   Zn701   1.976   .     S
O694   C706    1.301   .     S
O695   Zn702   1.972   .     S
O696   Zn701   1.976   .     S
O697   Zn702   1.955   .     S
O697   C762    1.281   1_455 S
O698   Zn701   1.972   .     S
O699   Zn702   1.976   .     S
O699   C763    1.284   1_455 S
O700   C779    1.394   1_455 S
C703   O747    1.291   .     A
C703   C705    1.402   .     S
C704   C712    1.405   .     A
C704   C706    1.447   .     S
C704   C719    1.415   .     A
C705   C815    1.336   .     S
C705   H890    1.087   .     S
C706   O749    1.292   .     A
C707   C708    1.402   .     S
C708   O750    1.291   .     A
C708   O805    1.281   .     S
C709   C711    1.445   .     S
C709   O752    1.307   .     A
C709   O807    1.284   .     S
C710   C725    1.399   .     A
C711   C724    1.383   .     A
C711   C725    1.413   .     A
C712   C713    1.386   .     A
C713   H743    1.081   .     S
C713   C229    1.388   1_556 S
C714   C719    1.404   .     A
C714   C229    1.404   1_556 S
C714   C234    1.391   1_556 S
C715   H742    1.083   .     S
C716   H730    1.103   .     S
C716   H729    1.099   .     S
C716   O754    1.439   .     S
C716   C717    1.553   .     S
C717   H731    1.108   .     S
C717   C718    1.528   .     S
C718   H733    1.110   .     S
C718   H896    1.111   .     S
C718   H897    1.110   .     S
C719   C723    1.423   .     A
C720   C724    1.387   .     A
C721   C722    1.392   .     A
C721   C224    1.402   1_556 S
C721   C234    1.411   1_556 S
C722   C723    1.396   .     A
C722   H738    1.084   .     S
C723   H727    1.081   .     S
C724   H740    1.081   .     S
C725   O808    1.394   .     S
H726   C869    1.088   .     S
H732   C771    1.110   .     S
H736   N744    1.029   .     S
H737   N745    1.029   .     S
H739   C224    1.082   1_556 S
H741   C766    1.084   .     S
N744   N745    1.281   .     D
N744   Zn756   2.027   .     S
N745   Zn755   2.027   .     S
O746   Zn755   1.955   .     S
O746   C757    1.281   .     S
O747   Zn756   1.976   .     S
O748   Zn755   1.976   .     S
O748   C760    1.301   .     S
O749   Zn756   1.972   .     S
O750   Zn755   1.976   .     S
O751   Zn756   1.955   .     S
O752   Zn755   1.972   .     S
O753   Zn756   1.976   .     S
C757   O801    1.291   .     A
C757   C759    1.402   .     S
C758   C766    1.405   .     A
C758   C760    1.447   .     S
C758   C773    1.415   .     A
C759   C869    1.336   .     S
C759   H944    1.087   .     S
C760   O803    1.292   .     A
C761   C762    1.402   .     S
C761   C489    1.336   1_655 S
C762   O804    1.291   .     A
C762   O697    1.281   1_655 S
C763   C765    1.445   .     S
C763   O806    1.307   .     A
C763   O699    1.284   1_655 S
C764   C779    1.399   .     A
C765   C778    1.383   .     A
C765   C779    1.413   .     A
C766   C767    1.386   .     A
C767   H797    1.081   .     S
C767   C283    1.388   1_556 S
C768   C773    1.404   .     A
C768   C283    1.404   1_556 S
C768   C288    1.391   1_556 S
C769   H796    1.083   .     S
C770   H784    1.103   .     S
C770   H783    1.099   .     S
C770   O808    1.439   .     S
C770   C771    1.553   .     S
C771   H785    1.108   .     S
C771   C772    1.528   .     S
C772   H787    1.110   .     S
C772   H950    1.111   .     S
C772   H951    1.110   .     S
C773   C777    1.423   .     A
C774   C778    1.387   .     A
C775   C776    1.392   .     A
C775   C278    1.402   1_556 S
C775   C288    1.411   1_556 S
C776   C777    1.396   .     A
C776   H792    1.084   .     S
C777   H781    1.081   .     S
C778   H794    1.081   .     S
C779   O700    1.394   1_655 S
H780   C923    1.088   .     S
H786   C663    1.110   1_655 S
H790   N798    1.029   .     S
H791   N799    1.029   .     S
H793   C278    1.082   1_556 S
H795   C658    1.084   1_655 S
N798   N799    1.281   .     D
N798   Zn810   2.027   .     S
N799   Zn809   2.027   .     S
O800   Zn809   1.955   .     S
O800   C649    1.281   1_655 S
O801   Zn810   1.976   .     S
O802   Zn809   1.976   .     S
O802   C652    1.301   1_655 S
O803   Zn810   1.972   .     S
O804   Zn809   1.976   .     S
O805   Zn810   1.955   .     S
O806   Zn809   1.972   .     S
O807   Zn810   1.976   .     S
C811   O855    1.291   .     A
C811   C813    1.402   .     S
C811   O962    1.281   1_455 S
C812   C820    1.405   .     A
C812   C814    1.447   .     S
C812   C827    1.415   .     A
C813   C599    1.336   1_465 S
C813   H512    1.087   1_565 S
C814   O857    1.292   .     A
C814   O964    1.301   1_455 S
C815   C816    1.402   .     S
C816   O858    1.291   .     A
C816   O913    1.281   .     S
C817   C819    1.445   .     S
C817   O860    1.307   .     A
C817   O915    1.284   .     S
C818   C833    1.399   .     A
C819   C832    1.383   .     A
C819   C833    1.413   .     A
C820   C821    1.386   .     A
C820   H957    1.084   1_455 S
C821   H851    1.081   .     S
C821   C337    1.388   1_556 S
C822   C827    1.404   .     A
C822   C337    1.404   1_556 S
C822   C342    1.391   1_556 S
C823   H850    1.083   .     S
C824   H838    1.103   .     S
C824   H837    1.099   .     S
C824   O862    1.439   .     S
C824   C825    1.553   .     S
C825   H839    1.108   .     S
C825   C826    1.528   .     S
C825   H948    1.110   1_455 S
C826   H841    1.110   .     S
C826   H518    1.111   1_565 S
C826   H519    1.110   1_565 S
C827   C831    1.423   .     A
C828   C832    1.387   .     A
C829   C830    1.392   .     A
C829   C332    1.402   1_556 S
C829   C342    1.411   1_556 S
C830   C831    1.396   .     A
C830   H846    1.084   .     S
C831   H835    1.081   .     S
C832   H848    1.081   .     S
C833   O916    1.394   .     S
H834   C491    1.088   1_565 S
H840   C879    1.110   .     S
H844   N852    1.029   .     S
H845   N853    1.029   .     S
H847   C332    1.082   1_556 S
H849   C874    1.084   .     S
N852   N853    1.281   .     D
N852   Zn864   2.027   .     S
N853   Zn863   2.027   .     S
O854   Zn863   1.955   .     S
O854   C865    1.281   .     S
O855   Zn864   1.976   .     S
O856   Zn863   1.976   .     S
O856   C868    1.301   .     S
O857   Zn864   1.972   .     S
O858   Zn863   1.976   .     S
O859   Zn864   1.955   .     S
O859   C924    1.281   1_455 S
O860   Zn863   1.972   .     S
O861   Zn864   1.976   .     S
O861   C925    1.284   1_455 S
O862   C941    1.394   1_455 S
C865   O909    1.291   .     A
C865   C867    1.402   .     S
C866   C874    1.405   .     A
C866   C868    1.447   .     S
C866   C881    1.415   .     A
C867   C491    1.336   1_565 S
C867   H566    1.087   1_565 S
C868   O911    1.292   .     A
C869   C870    1.402   .     S
C870   O912    1.291   .     A
C870   O967    1.281   .     S
C871   C873    1.445   .     S
C871   O914    1.307   .     A
C871   O969    1.284   .     S
C872   C887    1.399   .     A
C873   C886    1.383   .     A
C873   C887    1.413   .     A
C874   C875    1.386   .     A
C875   H905    1.081   .     S
C875   C391    1.388   1_556 S
C876   C881    1.404   .     A
C876   C391    1.404   1_556 S
C876   C396    1.391   1_556 S
C877   H904    1.083   .     S
C878   H892    1.103   .     S
C878   H891    1.099   .     S
C878   O916    1.439   .     S
C878   C879    1.553   .     S
C879   H893    1.108   .     S
C879   C880    1.528   .     S
C880   H895    1.110   .     S
C880   H572    1.111   1_565 S
C880   H573    1.110   1_565 S
C881   C885    1.423   .     A
C882   C886    1.387   .     A
C883   C884    1.392   .     A
C883   C386    1.402   1_556 S
C883   C396    1.411   1_556 S
C884   C885    1.396   .     A
C884   H900    1.084   .     S
C885   H889    1.081   .     S
C886   H902    1.081   .     S
C887   O970    1.394   .     S
H888   C545    1.088   1_565 S
H894   C933    1.110   .     S
H898   N906    1.029   .     S
H899   N907    1.029   .     S
H901   C386    1.082   1_556 S
H903   C928    1.084   .     S
N906   N907    1.281   .     D
N906   Zn918   2.027   .     S
N907   Zn917   2.027   .     S
O908   Zn917   1.955   .     S
O908   C919    1.281   .     S
O909   Zn918   1.976   .     S
O910   Zn917   1.976   .     S
O910   C922    1.301   .     S
O911   Zn918   1.972   .     S
O912   Zn917   1.976   .     S
O913   Zn918   1.955   .     S
O914   Zn917   1.972   .     S
O915   Zn918   1.976   .     S
C919   O963    1.291   .     A
C919   C921    1.402   .     S
C920   C928    1.405   .     A
C920   C922    1.447   .     S
C920   C935    1.415   .     A
C921   C545    1.336   1_565 S
C921   H620    1.087   1_565 S
C922   O965    1.292   .     A
C923   C924    1.402   .     S
C923   C651    1.336   1_655 S
C924   O966    1.291   .     A
C924   O859    1.281   1_655 S
C925   C927    1.445   .     S
C925   O968    1.307   .     A
C925   O861    1.284   1_655 S
C926   C941    1.399   .     A
C927   C940    1.383   .     A
C927   C941    1.413   .     A
C928   C929    1.386   .     A
C929   H959    1.081   .     S
C929   C445    1.388   1_556 S
C930   C935    1.404   .     A
C930   C445    1.404   1_556 S
C930   C450    1.391   1_556 S
C931   H958    1.083   .     S
C932   H946    1.103   .     S
C932   H945    1.099   .     S
C932   O970    1.439   .     S
C932   C933    1.553   .     S
C933   H947    1.108   .     S
C933   C934    1.528   .     S
C934   H949    1.110   .     S
C934   H626    1.111   1_565 S
C934   H627    1.110   1_565 S
C935   C939    1.423   .     A
C936   C940    1.387   .     A
C937   C938    1.392   .     A
C937   C440    1.402   1_556 S
C937   C450    1.411   1_556 S
C938   C939    1.396   .     A
C938   H954    1.084   .     S
C939   H943    1.081   .     S
C940   H956    1.081   .     S
C941   O862    1.394   1_655 S
H942   C599    1.088   1_565 S
H948   C825    1.110   1_655 S
H952   N960    1.029   .     S
H953   N961    1.029   .     S
H955   C440    1.082   1_556 S
H957   C820    1.084   1_655 S
N960   N961    1.281   .     D
N960   Zn972   2.027   .     S
N961   Zn971   2.027   .     S
O962   Zn971   1.955   .     S
O962   C811    1.281   1_655 S
O963   Zn972   1.976   .     S
O964   Zn971   1.976   .     S
O964   C814    1.301   1_655 S
O965   Zn972   1.972   .     S
O966   Zn971   1.976   .     S
O967   Zn972   1.955   .     S
O968   Zn971   1.972   .     S
O969   Zn972   1.976   .     S
