data_str_m3_o10_o17_pcu_sym.39
_audit_creation_date              2020-01-03
_audit_creation_method            'Materials Studio'
_symmetry_space_group_name_H-M    'P1'
_symmetry_Int_Tables_number       1
_symmetry_cell_setting            triclinic
loop_
_symmetry_equiv_pos_as_xyz
  x,y,z
_cell_length_a                    23.6017
_cell_length_b                    26.2018
_cell_length_c                    29.8358
_cell_angle_alpha                 93.9079
_cell_angle_beta                  84.2599
_cell_angle_gamma                 93.8082
loop_
_atom_site_label
_atom_site_type_symbol
_atom_site_fract_x
_atom_site_fract_y
_atom_site_fract_z
_atom_site_U_iso_or_equiv
_atom_site_adp_type
_atom_site_occupancy
O1     O     0.12975   0.24619   0.25299   0.00000  Uiso   1.00
O2     O     0.20358   0.08714   0.24702   0.00000  Uiso   1.00
O3     O     0.22613   0.23721   0.24519   0.00000  Uiso   1.00
O4     O     0.10720   0.09613   0.25482   0.00000  Uiso   1.00
C5     C     0.18148   0.26448   0.24759   0.00000  Uiso   1.00
C6     C     0.15165   0.06870   0.24932   0.00000  Uiso   1.00
O7     O     0.11847   0.17117   0.31998   0.00000  Uiso   1.00
O8     O     0.21486   0.16216   0.18003   0.00000  Uiso   1.00
O9     O     0.21485   0.16219   0.31218   0.00000  Uiso   1.00
O10    O     0.11848   0.17115   0.18783   0.00000  Uiso   1.00
C11    C     0.16658   0.16713   0.33631   0.00000  Uiso   1.00
C12    C     0.16692   0.16771   0.16371   0.00000  Uiso   1.00
Zn13   Zn    0.10231   0.17266   0.25521   0.00000  Uiso   1.00
Zn14   Zn    0.23102   0.16067   0.24479   0.00000  Uiso   1.00
C15    C     0.14056   0.12711   0.09337   0.00000  Uiso   1.00
C16    C     0.18407   0.21150   0.40751   0.00000  Uiso   1.00
C17    C     0.16679   0.16889   0.11603   0.00000  Uiso   1.00
C18    C     0.16594   0.16693   0.38401   0.00000  Uiso   1.00
C19    C     0.19075   0.21171   0.09395   0.00000  Uiso   1.00
C20    C     0.14977   0.12174   0.40533   0.00000  Uiso   1.00
C21    C     0.18452   0.21328   0.04778   0.00000  Uiso   1.00
C22    C     0.14359   0.12363   0.45256   0.00000  Uiso   1.00
C23    C     0.16254   0.16904   0.02380   0.00000  Uiso   1.00
C24    C     0.16311   0.16855   0.47686   0.00000  Uiso   1.00
C25    C     0.14060   0.12526   0.04669   0.00000  Uiso   1.00
C26    C     0.18565   0.21219   0.45396   0.00000  Uiso   1.00
C27    C     0.20217   0.25733   0.02495   0.00000  Uiso   1.00
C28    C     0.11960   0.08141   0.47562   0.00000  Uiso   1.00
C29    C     0.20772   0.25584   0.47818   0.00000  Uiso   1.00
C30    C     0.11841   0.08140   0.02242   0.00000  Uiso   1.00
H31    H     0.12099   0.09606   0.11278   0.00000  Uiso   1.00
H32    H     0.19668   0.24538   0.38915   0.00000  Uiso   1.00
H33    H     0.21648   0.29209   0.04312   0.00000  Uiso   1.00
H34    H     0.10307   0.04755   0.45711   0.00000  Uiso   1.00
C35    C     0.18874   0.31787   0.24119   0.00000  Uiso   1.00
C36    C     0.14319   0.01451   0.24742   0.00000  Uiso   1.00
N37    N     0.31678   0.15265   0.23783   0.00000  Uiso   1.00
N38    N     0.01656   0.18068   0.26217   0.00000  Uiso   1.00
O39    O     0.21459   0.25309   0.11899   0.00000  Uiso   1.00
C40    C     0.27334   0.26316   0.10453   0.00000  Uiso   1.00
H41    H     0.28158   0.30532   0.10339   0.00000  Uiso   1.00
H42    H     0.28729   0.24589   0.07035   0.00000  Uiso   1.00
C43    C     0.31054   0.24353   0.13749   0.00000  Uiso   1.00
H44    H     0.29828   0.25922   0.17230   0.00000  Uiso   1.00
H45    H     0.30309   0.20163   0.13611   0.00000  Uiso   1.00
C46    C     0.04032   0.25713   0.12450   0.00000  Uiso   1.00
H47    H     0.05347   0.24154   0.08972   0.00000  Uiso   1.00
H48    H     0.06633   0.24043   0.14811   0.00000  Uiso   1.00
H49    H     0.04866   0.29939   0.12659   0.00000  Uiso   1.00
O50    O     0.14237   0.07624   0.37919   0.00000  Uiso   1.00
C51    C     0.18984   0.04587   0.38072   0.00000  Uiso   1.00
H52    H     0.17985   0.00785   0.36354   0.00000  Uiso   1.00
H53    H     0.19637   0.03859   0.41585   0.00000  Uiso   1.00
C54    C     0.24536   0.06937   0.35671   0.00000  Uiso   1.00
H55    H     0.24076   0.07003   0.32023   0.00000  Uiso   1.00
H56    H     0.25479   0.10890   0.37072   0.00000  Uiso   1.00
C57    C     0.29689   0.03966   0.36260   0.00000  Uiso   1.00
H58    H     0.30504   0.04157   0.39867   0.00000  Uiso   1.00
H59    H     0.00160   0.05755   0.34341   0.00000  Uiso   1.00
H60    H     0.29009   0.33259   0.34979   0.00000  Uiso   1.00
N61    N     0.24271   0.29554   0.45621   0.00000  Uiso   1.00
O62    O     0.24744   0.00786   0.47614   0.00000  Uiso   1.00
O63    O     0.28172   0.28259   0.42427   0.00000  Uiso   1.00
N64    N     0.09669   0.03588   0.04422   0.00000  Uiso   1.00
O65    O     0.05153   0.01029   0.03102   0.00000  Uiso   1.00
O66    O     0.12765   0.01474   0.07066   0.00000  Uiso   1.00
N67    N     0.24535   0.00380   0.22691   0.00000  Uiso   1.00
O68    O     0.25719   0.01956   0.18642   0.00000  Uiso   1.00
O69    O     0.28576   0.00110   0.25302   0.00000  Uiso   1.00
N70    N     0.08528   0.32792   0.25527   0.00000  Uiso   1.00
O71    O     0.06151   0.32558   0.29634   0.00000  Uiso   1.00
O72    O     0.05869   0.30758   0.22169   0.00000  Uiso   1.00
N73    N     0.01039   0.12168   0.20374   0.00000  Uiso   1.00
O74    O     0.00869   0.13174   0.16196   0.00000  Uiso   1.00
O75    O     0.02031   0.07535   0.21198   0.00000  Uiso   1.00
N76    N     0.32401   0.20036   0.30281   0.00000  Uiso   1.00
O77    O     0.00101   0.18136   0.34008   0.00000  Uiso   1.00
O78    O     0.30290   0.24505   0.30491   0.00000  Uiso   1.00
O79    O     0.46308   0.24619   0.25299   0.00000  Uiso   1.00
O80    O     0.53692   0.08714   0.24702   0.00000  Uiso   1.00
O81    O     0.55946   0.23721   0.24519   0.00000  Uiso   1.00
O82    O     0.44054   0.09613   0.25482   0.00000  Uiso   1.00
C83    C     0.51482   0.26448   0.24759   0.00000  Uiso   1.00
C84    C     0.48498   0.06870   0.24932   0.00000  Uiso   1.00
O85    O     0.45181   0.17117   0.31998   0.00000  Uiso   1.00
O86    O     0.54819   0.16216   0.18003   0.00000  Uiso   1.00
O87    O     0.54819   0.16219   0.31218   0.00000  Uiso   1.00
O88    O     0.45181   0.17115   0.18783   0.00000  Uiso   1.00
C89    C     0.49991   0.16713   0.33631   0.00000  Uiso   1.00
C90    C     0.50026   0.16771   0.16371   0.00000  Uiso   1.00
Zn91   Zn    0.43565   0.17266   0.25521   0.00000  Uiso   1.00
Zn92   Zn    0.56435   0.16067   0.24479   0.00000  Uiso   1.00
C93    C     0.47389   0.12711   0.09337   0.00000  Uiso   1.00
C94    C     0.51741   0.21150   0.40751   0.00000  Uiso   1.00
C95    C     0.50012   0.16889   0.11603   0.00000  Uiso   1.00
C96    C     0.49928   0.16693   0.38401   0.00000  Uiso   1.00
C97    C     0.52408   0.21171   0.09395   0.00000  Uiso   1.00
C98    C     0.48311   0.12174   0.40533   0.00000  Uiso   1.00
C99    C     0.51785   0.21328   0.04778   0.00000  Uiso   1.00
C100   C     0.47692   0.12363   0.45256   0.00000  Uiso   1.00
C101   C     0.49587   0.16904   0.02380   0.00000  Uiso   1.00
C102   C     0.49644   0.16855   0.47686   0.00000  Uiso   1.00
C103   C     0.47394   0.12526   0.04669   0.00000  Uiso   1.00
C104   C     0.51898   0.21219   0.45396   0.00000  Uiso   1.00
C105   C     0.53550   0.25733   0.02495   0.00000  Uiso   1.00
C106   C     0.45293   0.08141   0.47562   0.00000  Uiso   1.00
C107   C     0.54106   0.25584   0.47818   0.00000  Uiso   1.00
C108   C     0.45174   0.08140   0.02242   0.00000  Uiso   1.00
H109   H     0.45433   0.09606   0.11278   0.00000  Uiso   1.00
H110   H     0.53001   0.24538   0.38915   0.00000  Uiso   1.00
H111   H     0.54982   0.29209   0.04312   0.00000  Uiso   1.00
H112   H     0.43640   0.04755   0.45711   0.00000  Uiso   1.00
C113   C     0.52207   0.31787   0.24119   0.00000  Uiso   1.00
C114   C     0.47652   0.01451   0.24742   0.00000  Uiso   1.00
N115   N     0.65011   0.15265   0.23783   0.00000  Uiso   1.00
N116   N     0.34989   0.18068   0.26217   0.00000  Uiso   1.00
O117   O     0.54793   0.25309   0.11899   0.00000  Uiso   1.00
C118   C     0.60667   0.26316   0.10453   0.00000  Uiso   1.00
H119   H     0.61491   0.30532   0.10339   0.00000  Uiso   1.00
H120   H     0.62062   0.24589   0.07035   0.00000  Uiso   1.00
C121   C     0.64387   0.24353   0.13749   0.00000  Uiso   1.00
H122   H     0.63161   0.25922   0.17230   0.00000  Uiso   1.00
H123   H     0.63643   0.20163   0.13611   0.00000  Uiso   1.00
C124   C     0.37365   0.25713   0.12450   0.00000  Uiso   1.00
H125   H     0.38681   0.24154   0.08972   0.00000  Uiso   1.00
H126   H     0.39966   0.24043   0.14811   0.00000  Uiso   1.00
H127   H     0.38200   0.29939   0.12659   0.00000  Uiso   1.00
O128   O     0.47570   0.07624   0.37919   0.00000  Uiso   1.00
C129   C     0.52317   0.04587   0.38072   0.00000  Uiso   1.00
H130   H     0.51318   0.00785   0.36354   0.00000  Uiso   1.00
H131   H     0.52970   0.03859   0.41585   0.00000  Uiso   1.00
C132   C     0.57869   0.06937   0.35671   0.00000  Uiso   1.00
H133   H     0.57410   0.07003   0.32023   0.00000  Uiso   1.00
H134   H     0.58813   0.10890   0.37072   0.00000  Uiso   1.00
C135   C     0.63023   0.03966   0.36260   0.00000  Uiso   1.00
H136   H     0.63837   0.04157   0.39867   0.00000  Uiso   1.00
H137   H     0.33493   0.05755   0.34341   0.00000  Uiso   1.00
H138   H     0.62342   0.33259   0.34979   0.00000  Uiso   1.00
N139   N     0.57605   0.29554   0.45621   0.00000  Uiso   1.00
O140   O     0.58077   0.00786   0.47614   0.00000  Uiso   1.00
O141   O     0.61505   0.28259   0.42427   0.00000  Uiso   1.00
N142   N     0.43003   0.03588   0.04422   0.00000  Uiso   1.00
O143   O     0.38487   0.01029   0.03102   0.00000  Uiso   1.00
O144   O     0.46099   0.01474   0.07066   0.00000  Uiso   1.00
N145   N     0.57868   0.00380   0.22691   0.00000  Uiso   1.00
O146   O     0.59053   0.01956   0.18642   0.00000  Uiso   1.00
O147   O     0.61909   0.00110   0.25302   0.00000  Uiso   1.00
N148   N     0.41861   0.32792   0.25527   0.00000  Uiso   1.00
O149   O     0.39484   0.32558   0.29634   0.00000  Uiso   1.00
O150   O     0.39202   0.30758   0.22169   0.00000  Uiso   1.00
N151   N     0.34372   0.12168   0.20374   0.00000  Uiso   1.00
O152   O     0.34202   0.13174   0.16196   0.00000  Uiso   1.00
O153   O     0.35364   0.07535   0.21198   0.00000  Uiso   1.00
N154   N     0.65734   0.20036   0.30281   0.00000  Uiso   1.00
O155   O     0.33434   0.18136   0.34008   0.00000  Uiso   1.00
O156   O     0.63623   0.24505   0.30491   0.00000  Uiso   1.00
O157   O     0.79642   0.24619   0.25299   0.00000  Uiso   1.00
O158   O     0.87025   0.08714   0.24702   0.00000  Uiso   1.00
O159   O     0.89280   0.23721   0.24519   0.00000  Uiso   1.00
O160   O     0.77387   0.09613   0.25482   0.00000  Uiso   1.00
C161   C     0.84815   0.26448   0.24759   0.00000  Uiso   1.00
C162   C     0.81831   0.06870   0.24932   0.00000  Uiso   1.00
O163   O     0.78514   0.17117   0.31998   0.00000  Uiso   1.00
O164   O     0.88153   0.16216   0.18003   0.00000  Uiso   1.00
O165   O     0.88152   0.16219   0.31218   0.00000  Uiso   1.00
O166   O     0.78515   0.17115   0.18783   0.00000  Uiso   1.00
C167   C     0.83324   0.16713   0.33631   0.00000  Uiso   1.00
C168   C     0.83359   0.16771   0.16371   0.00000  Uiso   1.00
Zn169  Zn    0.76898   0.17266   0.25521   0.00000  Uiso   1.00
Zn170  Zn    0.89769   0.16067   0.24479   0.00000  Uiso   1.00
C171   C     0.80723   0.12711   0.09337   0.00000  Uiso   1.00
C172   C     0.85074   0.21150   0.40751   0.00000  Uiso   1.00
C173   C     0.83346   0.16889   0.11603   0.00000  Uiso   1.00
C174   C     0.83261   0.16693   0.38401   0.00000  Uiso   1.00
C175   C     0.85741   0.21171   0.09395   0.00000  Uiso   1.00
C176   C     0.81644   0.12174   0.40533   0.00000  Uiso   1.00
C177   C     0.85118   0.21328   0.04778   0.00000  Uiso   1.00
C178   C     0.81025   0.12363   0.45256   0.00000  Uiso   1.00
C179   C     0.82920   0.16904   0.02380   0.00000  Uiso   1.00
C180   C     0.82977   0.16855   0.47686   0.00000  Uiso   1.00
C181   C     0.80727   0.12526   0.04669   0.00000  Uiso   1.00
C182   C     0.85231   0.21219   0.45396   0.00000  Uiso   1.00
C183   C     0.86884   0.25733   0.02495   0.00000  Uiso   1.00
C184   C     0.78627   0.08141   0.47562   0.00000  Uiso   1.00
C185   C     0.87439   0.25584   0.47818   0.00000  Uiso   1.00
C186   C     0.78508   0.08140   0.02242   0.00000  Uiso   1.00
H187   H     0.78766   0.09606   0.11278   0.00000  Uiso   1.00
H188   H     0.86335   0.24538   0.38915   0.00000  Uiso   1.00
H189   H     0.88315   0.29209   0.04312   0.00000  Uiso   1.00
H190   H     0.76973   0.04755   0.45711   0.00000  Uiso   1.00
C191   C     0.85541   0.31787   0.24119   0.00000  Uiso   1.00
C192   C     0.80985   0.01451   0.24742   0.00000  Uiso   1.00
N193   N     0.98344   0.15265   0.23783   0.00000  Uiso   1.00
N194   N     0.68322   0.18068   0.26217   0.00000  Uiso   1.00
O195   O     0.88126   0.25309   0.11899   0.00000  Uiso   1.00
C196   C     0.94000   0.26316   0.10453   0.00000  Uiso   1.00
H197   H     0.94824   0.30532   0.10339   0.00000  Uiso   1.00
H198   H     0.95396   0.24589   0.07035   0.00000  Uiso   1.00
C199   C     0.97720   0.24353   0.13749   0.00000  Uiso   1.00
H200   H     0.96494   0.25922   0.17230   0.00000  Uiso   1.00
H201   H     0.96976   0.20163   0.13611   0.00000  Uiso   1.00
C202   C     0.70698   0.25713   0.12450   0.00000  Uiso   1.00
H203   H     0.72014   0.24154   0.08972   0.00000  Uiso   1.00
H204   H     0.73300   0.24043   0.14811   0.00000  Uiso   1.00
H205   H     0.71533   0.29939   0.12659   0.00000  Uiso   1.00
O206   O     0.80904   0.07624   0.37919   0.00000  Uiso   1.00
C207   C     0.85650   0.04587   0.38072   0.00000  Uiso   1.00
H208   H     0.84652   0.00785   0.36354   0.00000  Uiso   1.00
H209   H     0.86304   0.03859   0.41585   0.00000  Uiso   1.00
C210   C     0.91203   0.06937   0.35671   0.00000  Uiso   1.00
H211   H     0.90743   0.07003   0.32023   0.00000  Uiso   1.00
H212   H     0.92146   0.10890   0.37072   0.00000  Uiso   1.00
C213   C     0.96356   0.03966   0.36260   0.00000  Uiso   1.00
H214   H     0.97171   0.04157   0.39867   0.00000  Uiso   1.00
H215   H     0.66826   0.05755   0.34341   0.00000  Uiso   1.00
H216   H     0.95676   0.33259   0.34979   0.00000  Uiso   1.00
N217   N     0.90938   0.29554   0.45621   0.00000  Uiso   1.00
O218   O     0.91411   0.00786   0.47614   0.00000  Uiso   1.00
O219   O     0.94838   0.28259   0.42427   0.00000  Uiso   1.00
N220   N     0.76336   0.03588   0.04422   0.00000  Uiso   1.00
O221   O     0.71820   0.01029   0.03102   0.00000  Uiso   1.00
O222   O     0.79432   0.01474   0.07066   0.00000  Uiso   1.00
N223   N     0.91201   0.00380   0.22691   0.00000  Uiso   1.00
O224   O     0.92386   0.01956   0.18642   0.00000  Uiso   1.00
O225   O     0.95243   0.00110   0.25302   0.00000  Uiso   1.00
N226   N     0.75194   0.32792   0.25527   0.00000  Uiso   1.00
O227   O     0.72817   0.32558   0.29634   0.00000  Uiso   1.00
O228   O     0.72535   0.30758   0.22169   0.00000  Uiso   1.00
N229   N     0.67705   0.12168   0.20374   0.00000  Uiso   1.00
O230   O     0.67535   0.13174   0.16196   0.00000  Uiso   1.00
O231   O     0.68697   0.07535   0.21198   0.00000  Uiso   1.00
N232   N     0.99068   0.20036   0.30281   0.00000  Uiso   1.00
O233   O     0.66767   0.18136   0.34008   0.00000  Uiso   1.00
O234   O     0.96957   0.24505   0.30491   0.00000  Uiso   1.00
O235   O     0.12975   0.57952   0.25299   0.00000  Uiso   1.00
O236   O     0.20358   0.42048   0.24702   0.00000  Uiso   1.00
O237   O     0.22613   0.57054   0.24519   0.00000  Uiso   1.00
O238   O     0.10720   0.42946   0.25482   0.00000  Uiso   1.00
C239   C     0.18148   0.59782   0.24759   0.00000  Uiso   1.00
C240   C     0.15165   0.40203   0.24932   0.00000  Uiso   1.00
O241   O     0.11847   0.50450   0.31998   0.00000  Uiso   1.00
O242   O     0.21486   0.49550   0.18003   0.00000  Uiso   1.00
O243   O     0.21485   0.49552   0.31218   0.00000  Uiso   1.00
O244   O     0.11848   0.50448   0.18783   0.00000  Uiso   1.00
C245   C     0.16658   0.50047   0.33631   0.00000  Uiso   1.00
C246   C     0.16692   0.50104   0.16371   0.00000  Uiso   1.00
Zn247  Zn    0.10231   0.50600   0.25521   0.00000  Uiso   1.00
Zn248  Zn    0.23102   0.49400   0.24479   0.00000  Uiso   1.00
C249   C     0.14056   0.46044   0.09337   0.00000  Uiso   1.00
C250   C     0.18407   0.54484   0.40751   0.00000  Uiso   1.00
C251   C     0.16679   0.50222   0.11603   0.00000  Uiso   1.00
C252   C     0.16594   0.50027   0.38401   0.00000  Uiso   1.00
C253   C     0.19075   0.54504   0.09395   0.00000  Uiso   1.00
C254   C     0.14977   0.45508   0.40533   0.00000  Uiso   1.00
C255   C     0.18452   0.54662   0.04778   0.00000  Uiso   1.00
C256   C     0.14359   0.45697   0.45256   0.00000  Uiso   1.00
C257   C     0.16254   0.50237   0.02380   0.00000  Uiso   1.00
C258   C     0.16311   0.50188   0.47686   0.00000  Uiso   1.00
C259   C     0.14060   0.45859   0.04669   0.00000  Uiso   1.00
C260   C     0.18565   0.54552   0.45396   0.00000  Uiso   1.00
C261   C     0.20217   0.59066   0.02495   0.00000  Uiso   1.00
C262   C     0.11960   0.41475   0.47562   0.00000  Uiso   1.00
C263   C     0.20772   0.58918   0.47818   0.00000  Uiso   1.00
C264   C     0.11841   0.41474   0.02242   0.00000  Uiso   1.00
H265   H     0.12099   0.42939   0.11278   0.00000  Uiso   1.00
H266   H     0.19668   0.57871   0.38915   0.00000  Uiso   1.00
H267   H     0.21648   0.62542   0.04312   0.00000  Uiso   1.00
H268   H     0.10307   0.38088   0.45711   0.00000  Uiso   1.00
C269   C     0.18874   0.65121   0.24119   0.00000  Uiso   1.00
C270   C     0.14319   0.34784   0.24742   0.00000  Uiso   1.00
N271   N     0.31678   0.48598   0.23783   0.00000  Uiso   1.00
N272   N     0.01656   0.51402   0.26217   0.00000  Uiso   1.00
O273   O     0.21459   0.58642   0.11899   0.00000  Uiso   1.00
C274   C     0.27334   0.59650   0.10453   0.00000  Uiso   1.00
H275   H     0.28158   0.63865   0.10339   0.00000  Uiso   1.00
H276   H     0.28729   0.57922   0.07035   0.00000  Uiso   1.00
C277   C     0.31054   0.57686   0.13749   0.00000  Uiso   1.00
H278   H     0.29828   0.59255   0.17230   0.00000  Uiso   1.00
H279   H     0.30309   0.53497   0.13611   0.00000  Uiso   1.00
C280   C     0.04032   0.59047   0.12450   0.00000  Uiso   1.00
H281   H     0.05347   0.57487   0.08972   0.00000  Uiso   1.00
H282   H     0.06633   0.57376   0.14811   0.00000  Uiso   1.00
H283   H     0.04866   0.63272   0.12659   0.00000  Uiso   1.00
O284   O     0.14237   0.40957   0.37919   0.00000  Uiso   1.00
C285   C     0.18984   0.37920   0.38072   0.00000  Uiso   1.00
H286   H     0.17985   0.34118   0.36354   0.00000  Uiso   1.00
H287   H     0.19637   0.37192   0.41585   0.00000  Uiso   1.00
C288   C     0.24536   0.40270   0.35671   0.00000  Uiso   1.00
H289   H     0.24076   0.40336   0.32023   0.00000  Uiso   1.00
H290   H     0.25479   0.44223   0.37072   0.00000  Uiso   1.00
C291   C     0.29689   0.37299   0.36260   0.00000  Uiso   1.00
H292   H     0.30504   0.37491   0.39867   0.00000  Uiso   1.00
H293   H     0.00160   0.39088   0.34341   0.00000  Uiso   1.00
H294   H     0.29009   0.66593   0.34979   0.00000  Uiso   1.00
N295   N     0.24271   0.62887   0.45621   0.00000  Uiso   1.00
O296   O     0.24744   0.34119   0.47614   0.00000  Uiso   1.00
O297   O     0.28172   0.61592   0.42427   0.00000  Uiso   1.00
N298   N     0.09669   0.36921   0.04422   0.00000  Uiso   1.00
O299   O     0.05153   0.34363   0.03102   0.00000  Uiso   1.00
O300   O     0.12765   0.34807   0.07066   0.00000  Uiso   1.00
N301   N     0.24535   0.33713   0.22691   0.00000  Uiso   1.00
O302   O     0.25719   0.35289   0.18642   0.00000  Uiso   1.00
O303   O     0.28576   0.33443   0.25302   0.00000  Uiso   1.00
N304   N     0.08528   0.66125   0.25527   0.00000  Uiso   1.00
O305   O     0.06151   0.65891   0.29634   0.00000  Uiso   1.00
O306   O     0.05869   0.64092   0.22169   0.00000  Uiso   1.00
N307   N     0.01039   0.45502   0.20374   0.00000  Uiso   1.00
O308   O     0.00869   0.46507   0.16196   0.00000  Uiso   1.00
O309   O     0.02031   0.40869   0.21198   0.00000  Uiso   1.00
N310   N     0.32401   0.53369   0.30281   0.00000  Uiso   1.00
O311   O     0.00101   0.51470   0.34008   0.00000  Uiso   1.00
O312   O     0.30290   0.57838   0.30491   0.00000  Uiso   1.00
O313   O     0.46308   0.57952   0.25299   0.00000  Uiso   1.00
O314   O     0.53692   0.42048   0.24702   0.00000  Uiso   1.00
O315   O     0.55946   0.57054   0.24519   0.00000  Uiso   1.00
O316   O     0.44054   0.42946   0.25482   0.00000  Uiso   1.00
C317   C     0.51482   0.59782   0.24759   0.00000  Uiso   1.00
C318   C     0.48498   0.40203   0.24932   0.00000  Uiso   1.00
O319   O     0.45181   0.50450   0.31998   0.00000  Uiso   1.00
O320   O     0.54819   0.49550   0.18003   0.00000  Uiso   1.00
O321   O     0.54819   0.49552   0.31218   0.00000  Uiso   1.00
O322   O     0.45181   0.50448   0.18783   0.00000  Uiso   1.00
C323   C     0.49991   0.50047   0.33631   0.00000  Uiso   1.00
C324   C     0.50026   0.50104   0.16371   0.00000  Uiso   1.00
Zn325  Zn    0.43565   0.50600   0.25521   0.00000  Uiso   1.00
Zn326  Zn    0.56435   0.49400   0.24479   0.00000  Uiso   1.00
C327   C     0.47389   0.46044   0.09337   0.00000  Uiso   1.00
C328   C     0.51741   0.54484   0.40751   0.00000  Uiso   1.00
C329   C     0.50012   0.50222   0.11603   0.00000  Uiso   1.00
C330   C     0.49928   0.50027   0.38401   0.00000  Uiso   1.00
C331   C     0.52408   0.54504   0.09395   0.00000  Uiso   1.00
C332   C     0.48311   0.45508   0.40533   0.00000  Uiso   1.00
C333   C     0.51785   0.54662   0.04778   0.00000  Uiso   1.00
C334   C     0.47692   0.45697   0.45256   0.00000  Uiso   1.00
C335   C     0.49587   0.50237   0.02380   0.00000  Uiso   1.00
C336   C     0.49644   0.50188   0.47686   0.00000  Uiso   1.00
C337   C     0.47394   0.45859   0.04669   0.00000  Uiso   1.00
C338   C     0.51898   0.54552   0.45396   0.00000  Uiso   1.00
C339   C     0.53550   0.59066   0.02495   0.00000  Uiso   1.00
C340   C     0.45293   0.41475   0.47562   0.00000  Uiso   1.00
C341   C     0.54106   0.58918   0.47818   0.00000  Uiso   1.00
C342   C     0.45174   0.41474   0.02242   0.00000  Uiso   1.00
H343   H     0.45433   0.42939   0.11278   0.00000  Uiso   1.00
H344   H     0.53001   0.57871   0.38915   0.00000  Uiso   1.00
H345   H     0.54982   0.62542   0.04312   0.00000  Uiso   1.00
H346   H     0.43640   0.38088   0.45711   0.00000  Uiso   1.00
C347   C     0.52207   0.65121   0.24119   0.00000  Uiso   1.00
C348   C     0.47652   0.34784   0.24742   0.00000  Uiso   1.00
N349   N     0.65011   0.48598   0.23783   0.00000  Uiso   1.00
N350   N     0.34989   0.51402   0.26217   0.00000  Uiso   1.00
O351   O     0.54793   0.58642   0.11899   0.00000  Uiso   1.00
C352   C     0.60667   0.59650   0.10453   0.00000  Uiso   1.00
H353   H     0.61491   0.63865   0.10339   0.00000  Uiso   1.00
H354   H     0.62062   0.57922   0.07035   0.00000  Uiso   1.00
C355   C     0.64387   0.57686   0.13749   0.00000  Uiso   1.00
H356   H     0.63161   0.59255   0.17230   0.00000  Uiso   1.00
H357   H     0.63643   0.53497   0.13611   0.00000  Uiso   1.00
C358   C     0.37365   0.59047   0.12450   0.00000  Uiso   1.00
H359   H     0.38681   0.57487   0.08972   0.00000  Uiso   1.00
H360   H     0.39966   0.57376   0.14811   0.00000  Uiso   1.00
H361   H     0.38200   0.63272   0.12659   0.00000  Uiso   1.00
O362   O     0.47570   0.40957   0.37919   0.00000  Uiso   1.00
C363   C     0.52317   0.37920   0.38072   0.00000  Uiso   1.00
H364   H     0.51318   0.34118   0.36354   0.00000  Uiso   1.00
H365   H     0.52970   0.37192   0.41585   0.00000  Uiso   1.00
C366   C     0.57869   0.40270   0.35671   0.00000  Uiso   1.00
H367   H     0.57410   0.40336   0.32023   0.00000  Uiso   1.00
H368   H     0.58813   0.44223   0.37072   0.00000  Uiso   1.00
C369   C     0.63023   0.37299   0.36260   0.00000  Uiso   1.00
H370   H     0.63837   0.37491   0.39867   0.00000  Uiso   1.00
H371   H     0.33493   0.39088   0.34341   0.00000  Uiso   1.00
H372   H     0.62342   0.66593   0.34979   0.00000  Uiso   1.00
N373   N     0.57605   0.62887   0.45621   0.00000  Uiso   1.00
O374   O     0.58077   0.34119   0.47614   0.00000  Uiso   1.00
O375   O     0.61505   0.61592   0.42427   0.00000  Uiso   1.00
N376   N     0.43003   0.36921   0.04422   0.00000  Uiso   1.00
O377   O     0.38487   0.34363   0.03102   0.00000  Uiso   1.00
O378   O     0.46099   0.34807   0.07066   0.00000  Uiso   1.00
N379   N     0.57868   0.33713   0.22691   0.00000  Uiso   1.00
O380   O     0.59053   0.35289   0.18642   0.00000  Uiso   1.00
O381   O     0.61909   0.33443   0.25302   0.00000  Uiso   1.00
N382   N     0.41861   0.66125   0.25527   0.00000  Uiso   1.00
O383   O     0.39484   0.65891   0.29634   0.00000  Uiso   1.00
O384   O     0.39202   0.64092   0.22169   0.00000  Uiso   1.00
N385   N     0.34372   0.45502   0.20374   0.00000  Uiso   1.00
O386   O     0.34202   0.46507   0.16196   0.00000  Uiso   1.00
O387   O     0.35364   0.40869   0.21198   0.00000  Uiso   1.00
N388   N     0.65734   0.53369   0.30281   0.00000  Uiso   1.00
O389   O     0.33434   0.51470   0.34008   0.00000  Uiso   1.00
O390   O     0.63623   0.57838   0.30491   0.00000  Uiso   1.00
O391   O     0.79642   0.57952   0.25299   0.00000  Uiso   1.00
O392   O     0.87025   0.42048   0.24702   0.00000  Uiso   1.00
O393   O     0.89280   0.57054   0.24519   0.00000  Uiso   1.00
O394   O     0.77387   0.42946   0.25482   0.00000  Uiso   1.00
C395   C     0.84815   0.59782   0.24759   0.00000  Uiso   1.00
C396   C     0.81831   0.40203   0.24932   0.00000  Uiso   1.00
O397   O     0.78514   0.50450   0.31998   0.00000  Uiso   1.00
O398   O     0.88153   0.49550   0.18003   0.00000  Uiso   1.00
O399   O     0.88152   0.49552   0.31218   0.00000  Uiso   1.00
O400   O     0.78515   0.50448   0.18783   0.00000  Uiso   1.00
C401   C     0.83324   0.50047   0.33631   0.00000  Uiso   1.00
C402   C     0.83359   0.50104   0.16371   0.00000  Uiso   1.00
Zn403  Zn    0.76898   0.50600   0.25521   0.00000  Uiso   1.00
Zn404  Zn    0.89769   0.49400   0.24479   0.00000  Uiso   1.00
C405   C     0.80723   0.46044   0.09337   0.00000  Uiso   1.00
C406   C     0.85074   0.54484   0.40751   0.00000  Uiso   1.00
C407   C     0.83346   0.50222   0.11603   0.00000  Uiso   1.00
C408   C     0.83261   0.50027   0.38401   0.00000  Uiso   1.00
C409   C     0.85741   0.54504   0.09395   0.00000  Uiso   1.00
C410   C     0.81644   0.45508   0.40533   0.00000  Uiso   1.00
C411   C     0.85118   0.54662   0.04778   0.00000  Uiso   1.00
C412   C     0.81025   0.45697   0.45256   0.00000  Uiso   1.00
C413   C     0.82920   0.50237   0.02380   0.00000  Uiso   1.00
C414   C     0.82977   0.50188   0.47686   0.00000  Uiso   1.00
C415   C     0.80727   0.45859   0.04669   0.00000  Uiso   1.00
C416   C     0.85231   0.54552   0.45396   0.00000  Uiso   1.00
C417   C     0.86884   0.59066   0.02495   0.00000  Uiso   1.00
C418   C     0.78627   0.41475   0.47562   0.00000  Uiso   1.00
C419   C     0.87439   0.58918   0.47818   0.00000  Uiso   1.00
C420   C     0.78508   0.41474   0.02242   0.00000  Uiso   1.00
H421   H     0.78766   0.42939   0.11278   0.00000  Uiso   1.00
H422   H     0.86335   0.57871   0.38915   0.00000  Uiso   1.00
H423   H     0.88315   0.62542   0.04312   0.00000  Uiso   1.00
H424   H     0.76973   0.38088   0.45711   0.00000  Uiso   1.00
C425   C     0.85541   0.65121   0.24119   0.00000  Uiso   1.00
C426   C     0.80985   0.34784   0.24742   0.00000  Uiso   1.00
N427   N     0.98344   0.48598   0.23783   0.00000  Uiso   1.00
N428   N     0.68322   0.51402   0.26217   0.00000  Uiso   1.00
O429   O     0.88126   0.58642   0.11899   0.00000  Uiso   1.00
C430   C     0.94000   0.59650   0.10453   0.00000  Uiso   1.00
H431   H     0.94824   0.63865   0.10339   0.00000  Uiso   1.00
H432   H     0.95396   0.57922   0.07035   0.00000  Uiso   1.00
C433   C     0.97720   0.57686   0.13749   0.00000  Uiso   1.00
H434   H     0.96494   0.59255   0.17230   0.00000  Uiso   1.00
H435   H     0.96976   0.53497   0.13611   0.00000  Uiso   1.00
C436   C     0.70698   0.59047   0.12450   0.00000  Uiso   1.00
H437   H     0.72014   0.57487   0.08972   0.00000  Uiso   1.00
H438   H     0.73300   0.57376   0.14811   0.00000  Uiso   1.00
H439   H     0.71533   0.63272   0.12659   0.00000  Uiso   1.00
O440   O     0.80904   0.40957   0.37919   0.00000  Uiso   1.00
C441   C     0.85650   0.37920   0.38072   0.00000  Uiso   1.00
H442   H     0.84652   0.34118   0.36354   0.00000  Uiso   1.00
H443   H     0.86304   0.37192   0.41585   0.00000  Uiso   1.00
C444   C     0.91203   0.40270   0.35671   0.00000  Uiso   1.00
H445   H     0.90743   0.40336   0.32023   0.00000  Uiso   1.00
H446   H     0.92146   0.44223   0.37072   0.00000  Uiso   1.00
C447   C     0.96356   0.37299   0.36260   0.00000  Uiso   1.00
H448   H     0.97171   0.37491   0.39867   0.00000  Uiso   1.00
H449   H     0.66826   0.39088   0.34341   0.00000  Uiso   1.00
H450   H     0.95676   0.66593   0.34979   0.00000  Uiso   1.00
N451   N     0.90938   0.62887   0.45621   0.00000  Uiso   1.00
O452   O     0.91411   0.34119   0.47614   0.00000  Uiso   1.00
O453   O     0.94838   0.61592   0.42427   0.00000  Uiso   1.00
N454   N     0.76336   0.36921   0.04422   0.00000  Uiso   1.00
O455   O     0.71820   0.34363   0.03102   0.00000  Uiso   1.00
O456   O     0.79432   0.34807   0.07066   0.00000  Uiso   1.00
N457   N     0.91201   0.33713   0.22691   0.00000  Uiso   1.00
O458   O     0.92386   0.35289   0.18642   0.00000  Uiso   1.00
O459   O     0.95243   0.33443   0.25302   0.00000  Uiso   1.00
N460   N     0.75194   0.66125   0.25527   0.00000  Uiso   1.00
O461   O     0.72817   0.65891   0.29634   0.00000  Uiso   1.00
O462   O     0.72535   0.64092   0.22169   0.00000  Uiso   1.00
N463   N     0.67705   0.45502   0.20374   0.00000  Uiso   1.00
O464   O     0.67535   0.46507   0.16196   0.00000  Uiso   1.00
O465   O     0.68697   0.40869   0.21198   0.00000  Uiso   1.00
N466   N     0.99068   0.53369   0.30281   0.00000  Uiso   1.00
O467   O     0.66767   0.51470   0.34008   0.00000  Uiso   1.00
O468   O     0.96957   0.57838   0.30491   0.00000  Uiso   1.00
O469   O     0.12975   0.91286   0.25299   0.00000  Uiso   1.00
O470   O     0.20358   0.75381   0.24702   0.00000  Uiso   1.00
O471   O     0.22613   0.90387   0.24519   0.00000  Uiso   1.00
O472   O     0.10720   0.76279   0.25482   0.00000  Uiso   1.00
C473   C     0.18148   0.93115   0.24759   0.00000  Uiso   1.00
C474   C     0.15165   0.73536   0.24932   0.00000  Uiso   1.00
O475   O     0.11847   0.83784   0.31998   0.00000  Uiso   1.00
O476   O     0.21486   0.82883   0.18003   0.00000  Uiso   1.00
O477   O     0.21485   0.82885   0.31218   0.00000  Uiso   1.00
O478   O     0.11848   0.83781   0.18783   0.00000  Uiso   1.00
C479   C     0.16658   0.83380   0.33631   0.00000  Uiso   1.00
C480   C     0.16692   0.83438   0.16371   0.00000  Uiso   1.00
Zn481  Zn    0.10231   0.83933   0.25521   0.00000  Uiso   1.00
Zn482  Zn    0.23102   0.82734   0.24479   0.00000  Uiso   1.00
C483   C     0.14056   0.79377   0.09337   0.00000  Uiso   1.00
C484   C     0.18407   0.87817   0.40751   0.00000  Uiso   1.00
C485   C     0.16679   0.83555   0.11603   0.00000  Uiso   1.00
C486   C     0.16594   0.83360   0.38401   0.00000  Uiso   1.00
C487   C     0.19075   0.87837   0.09395   0.00000  Uiso   1.00
C488   C     0.14977   0.78841   0.40533   0.00000  Uiso   1.00
C489   C     0.18452   0.87995   0.04778   0.00000  Uiso   1.00
C490   C     0.14359   0.79030   0.45256   0.00000  Uiso   1.00
C491   C     0.16254   0.83571   0.02380   0.00000  Uiso   1.00
C492   C     0.16311   0.83521   0.47686   0.00000  Uiso   1.00
C493   C     0.14060   0.79193   0.04669   0.00000  Uiso   1.00
C494   C     0.18565   0.87886   0.45396   0.00000  Uiso   1.00
C495   C     0.20217   0.92400   0.02495   0.00000  Uiso   1.00
C496   C     0.11960   0.74808   0.47562   0.00000  Uiso   1.00
C497   C     0.20772   0.92251   0.47818   0.00000  Uiso   1.00
C498   C     0.11841   0.74807   0.02242   0.00000  Uiso   1.00
H499   H     0.12099   0.76273   0.11278   0.00000  Uiso   1.00
H500   H     0.19668   0.91205   0.38915   0.00000  Uiso   1.00
H501   H     0.21648   0.95875   0.04312   0.00000  Uiso   1.00
H502   H     0.10307   0.71421   0.45711   0.00000  Uiso   1.00
C503   C     0.18874   0.98454   0.24119   0.00000  Uiso   1.00
C504   C     0.14319   0.68117   0.24742   0.00000  Uiso   1.00
N505   N     0.31678   0.81932   0.23783   0.00000  Uiso   1.00
N506   N     0.01656   0.84735   0.26217   0.00000  Uiso   1.00
O507   O     0.21459   0.91976   0.11899   0.00000  Uiso   1.00
C508   C     0.27334   0.92983   0.10453   0.00000  Uiso   1.00
H509   H     0.28158   0.97199   0.10339   0.00000  Uiso   1.00
H510   H     0.28729   0.91256   0.07035   0.00000  Uiso   1.00
C511   C     0.31054   0.91020   0.13749   0.00000  Uiso   1.00
H512   H     0.29828   0.92589   0.17230   0.00000  Uiso   1.00
H513   H     0.30309   0.86830   0.13611   0.00000  Uiso   1.00
C514   C     0.04032   0.92380   0.12450   0.00000  Uiso   1.00
H515   H     0.05347   0.90821   0.08972   0.00000  Uiso   1.00
H516   H     0.06633   0.90709   0.14811   0.00000  Uiso   1.00
H517   H     0.04866   0.96605   0.12659   0.00000  Uiso   1.00
O518   O     0.14237   0.74291   0.37919   0.00000  Uiso   1.00
C519   C     0.18984   0.71254   0.38072   0.00000  Uiso   1.00
H520   H     0.17985   0.67451   0.36354   0.00000  Uiso   1.00
H521   H     0.19637   0.70525   0.41585   0.00000  Uiso   1.00
C522   C     0.24536   0.73604   0.35671   0.00000  Uiso   1.00
H523   H     0.24076   0.73669   0.32023   0.00000  Uiso   1.00
H524   H     0.25479   0.77557   0.37072   0.00000  Uiso   1.00
C525   C     0.29689   0.70633   0.36260   0.00000  Uiso   1.00
H526   H     0.30504   0.70824   0.39867   0.00000  Uiso   1.00
H527   H     0.00160   0.72421   0.34341   0.00000  Uiso   1.00
H528   H     0.29009   0.99926   0.34979   0.00000  Uiso   1.00
N529   N     0.24271   0.96220   0.45621   0.00000  Uiso   1.00
O530   O     0.24744   0.67453   0.47614   0.00000  Uiso   1.00
O531   O     0.28172   0.94926   0.42427   0.00000  Uiso   1.00
N532   N     0.09669   0.70255   0.04422   0.00000  Uiso   1.00
O533   O     0.05153   0.67696   0.03102   0.00000  Uiso   1.00
O534   O     0.12765   0.68141   0.07066   0.00000  Uiso   1.00
N535   N     0.24535   0.67046   0.22691   0.00000  Uiso   1.00
O536   O     0.25719   0.68622   0.18642   0.00000  Uiso   1.00
O537   O     0.28576   0.66777   0.25302   0.00000  Uiso   1.00
N538   N     0.08528   0.99458   0.25527   0.00000  Uiso   1.00
O539   O     0.06151   0.99225   0.29634   0.00000  Uiso   1.00
O540   O     0.05869   0.97425   0.22169   0.00000  Uiso   1.00
N541   N     0.01039   0.78835   0.20374   0.00000  Uiso   1.00
O542   O     0.00869   0.79841   0.16196   0.00000  Uiso   1.00
O543   O     0.02031   0.74202   0.21198   0.00000  Uiso   1.00
N544   N     0.32401   0.86702   0.30281   0.00000  Uiso   1.00
O545   O     0.00101   0.84803   0.34008   0.00000  Uiso   1.00
O546   O     0.30290   0.91171   0.30491   0.00000  Uiso   1.00
O547   O     0.46308   0.91286   0.25299   0.00000  Uiso   1.00
O548   O     0.53692   0.75381   0.24702   0.00000  Uiso   1.00
O549   O     0.55946   0.90387   0.24519   0.00000  Uiso   1.00
O550   O     0.44054   0.76279   0.25482   0.00000  Uiso   1.00
C551   C     0.51482   0.93115   0.24759   0.00000  Uiso   1.00
C552   C     0.48498   0.73536   0.24932   0.00000  Uiso   1.00
O553   O     0.45181   0.83784   0.31998   0.00000  Uiso   1.00
O554   O     0.54819   0.82883   0.18003   0.00000  Uiso   1.00
O555   O     0.54819   0.82885   0.31218   0.00000  Uiso   1.00
O556   O     0.45181   0.83781   0.18783   0.00000  Uiso   1.00
C557   C     0.49991   0.83380   0.33631   0.00000  Uiso   1.00
C558   C     0.50026   0.83438   0.16371   0.00000  Uiso   1.00
Zn559  Zn    0.43565   0.83933   0.25521   0.00000  Uiso   1.00
Zn560  Zn    0.56435   0.82734   0.24479   0.00000  Uiso   1.00
C561   C     0.47389   0.79377   0.09337   0.00000  Uiso   1.00
C562   C     0.51741   0.87817   0.40751   0.00000  Uiso   1.00
C563   C     0.50012   0.83555   0.11603   0.00000  Uiso   1.00
C564   C     0.49928   0.83360   0.38401   0.00000  Uiso   1.00
C565   C     0.52408   0.87837   0.09395   0.00000  Uiso   1.00
C566   C     0.48311   0.78841   0.40533   0.00000  Uiso   1.00
C567   C     0.51785   0.87995   0.04778   0.00000  Uiso   1.00
C568   C     0.47692   0.79030   0.45256   0.00000  Uiso   1.00
C569   C     0.49587   0.83571   0.02380   0.00000  Uiso   1.00
C570   C     0.49644   0.83521   0.47686   0.00000  Uiso   1.00
C571   C     0.47394   0.79193   0.04669   0.00000  Uiso   1.00
C572   C     0.51898   0.87886   0.45396   0.00000  Uiso   1.00
C573   C     0.53550   0.92400   0.02495   0.00000  Uiso   1.00
C574   C     0.45293   0.74808   0.47562   0.00000  Uiso   1.00
C575   C     0.54106   0.92251   0.47818   0.00000  Uiso   1.00
C576   C     0.45174   0.74807   0.02242   0.00000  Uiso   1.00
H577   H     0.45433   0.76273   0.11278   0.00000  Uiso   1.00
H578   H     0.53001   0.91205   0.38915   0.00000  Uiso   1.00
H579   H     0.54982   0.95875   0.04312   0.00000  Uiso   1.00
H580   H     0.43640   0.71421   0.45711   0.00000  Uiso   1.00
C581   C     0.52207   0.98454   0.24119   0.00000  Uiso   1.00
C582   C     0.47652   0.68117   0.24742   0.00000  Uiso   1.00
N583   N     0.65011   0.81932   0.23783   0.00000  Uiso   1.00
N584   N     0.34989   0.84735   0.26217   0.00000  Uiso   1.00
O585   O     0.54793   0.91976   0.11899   0.00000  Uiso   1.00
C586   C     0.60667   0.92983   0.10453   0.00000  Uiso   1.00
H587   H     0.61491   0.97199   0.10339   0.00000  Uiso   1.00
H588   H     0.62062   0.91256   0.07035   0.00000  Uiso   1.00
C589   C     0.64387   0.91020   0.13749   0.00000  Uiso   1.00
H590   H     0.63161   0.92589   0.17230   0.00000  Uiso   1.00
H591   H     0.63643   0.86830   0.13611   0.00000  Uiso   1.00
C592   C     0.37365   0.92380   0.12450   0.00000  Uiso   1.00
H593   H     0.38681   0.90821   0.08972   0.00000  Uiso   1.00
H594   H     0.39966   0.90709   0.14811   0.00000  Uiso   1.00
H595   H     0.38200   0.96605   0.12659   0.00000  Uiso   1.00
O596   O     0.47570   0.74291   0.37919   0.00000  Uiso   1.00
C597   C     0.52317   0.71254   0.38072   0.00000  Uiso   1.00
H598   H     0.51318   0.67451   0.36354   0.00000  Uiso   1.00
H599   H     0.52970   0.70525   0.41585   0.00000  Uiso   1.00
C600   C     0.57869   0.73604   0.35671   0.00000  Uiso   1.00
H601   H     0.57410   0.73669   0.32023   0.00000  Uiso   1.00
H602   H     0.58813   0.77557   0.37072   0.00000  Uiso   1.00
C603   C     0.63023   0.70633   0.36260   0.00000  Uiso   1.00
H604   H     0.63837   0.70824   0.39867   0.00000  Uiso   1.00
H605   H     0.33493   0.72421   0.34341   0.00000  Uiso   1.00
H606   H     0.62342   0.99926   0.34979   0.00000  Uiso   1.00
N607   N     0.57605   0.96220   0.45621   0.00000  Uiso   1.00
O608   O     0.58077   0.67453   0.47614   0.00000  Uiso   1.00
O609   O     0.61505   0.94926   0.42427   0.00000  Uiso   1.00
N610   N     0.43003   0.70255   0.04422   0.00000  Uiso   1.00
O611   O     0.38487   0.67696   0.03102   0.00000  Uiso   1.00
O612   O     0.46099   0.68141   0.07066   0.00000  Uiso   1.00
N613   N     0.57868   0.67046   0.22691   0.00000  Uiso   1.00
O614   O     0.59053   0.68622   0.18642   0.00000  Uiso   1.00
O615   O     0.61909   0.66777   0.25302   0.00000  Uiso   1.00
N616   N     0.41861   0.99458   0.25527   0.00000  Uiso   1.00
O617   O     0.39484   0.99225   0.29634   0.00000  Uiso   1.00
O618   O     0.39202   0.97425   0.22169   0.00000  Uiso   1.00
N619   N     0.34372   0.78835   0.20374   0.00000  Uiso   1.00
O620   O     0.34202   0.79841   0.16196   0.00000  Uiso   1.00
O621   O     0.35364   0.74202   0.21198   0.00000  Uiso   1.00
N622   N     0.65734   0.86702   0.30281   0.00000  Uiso   1.00
O623   O     0.33434   0.84803   0.34008   0.00000  Uiso   1.00
O624   O     0.63623   0.91171   0.30491   0.00000  Uiso   1.00
O625   O     0.79642   0.91286   0.25299   0.00000  Uiso   1.00
O626   O     0.87025   0.75381   0.24702   0.00000  Uiso   1.00
O627   O     0.89280   0.90387   0.24519   0.00000  Uiso   1.00
O628   O     0.77387   0.76279   0.25482   0.00000  Uiso   1.00
C629   C     0.84815   0.93115   0.24759   0.00000  Uiso   1.00
C630   C     0.81831   0.73536   0.24932   0.00000  Uiso   1.00
O631   O     0.78514   0.83784   0.31998   0.00000  Uiso   1.00
O632   O     0.88153   0.82883   0.18003   0.00000  Uiso   1.00
O633   O     0.88152   0.82885   0.31218   0.00000  Uiso   1.00
O634   O     0.78515   0.83781   0.18783   0.00000  Uiso   1.00
C635   C     0.83324   0.83380   0.33631   0.00000  Uiso   1.00
C636   C     0.83359   0.83438   0.16371   0.00000  Uiso   1.00
Zn637  Zn    0.76898   0.83933   0.25521   0.00000  Uiso   1.00
Zn638  Zn    0.89769   0.82734   0.24479   0.00000  Uiso   1.00
C639   C     0.80723   0.79377   0.09337   0.00000  Uiso   1.00
C640   C     0.85074   0.87817   0.40751   0.00000  Uiso   1.00
C641   C     0.83346   0.83555   0.11603   0.00000  Uiso   1.00
C642   C     0.83261   0.83360   0.38401   0.00000  Uiso   1.00
C643   C     0.85741   0.87837   0.09395   0.00000  Uiso   1.00
C644   C     0.81644   0.78841   0.40533   0.00000  Uiso   1.00
C645   C     0.85118   0.87995   0.04778   0.00000  Uiso   1.00
C646   C     0.81025   0.79030   0.45256   0.00000  Uiso   1.00
C647   C     0.82920   0.83571   0.02380   0.00000  Uiso   1.00
C648   C     0.82977   0.83521   0.47686   0.00000  Uiso   1.00
C649   C     0.80727   0.79193   0.04669   0.00000  Uiso   1.00
C650   C     0.85231   0.87886   0.45396   0.00000  Uiso   1.00
C651   C     0.86884   0.92400   0.02495   0.00000  Uiso   1.00
C652   C     0.78627   0.74808   0.47562   0.00000  Uiso   1.00
C653   C     0.87439   0.92251   0.47818   0.00000  Uiso   1.00
C654   C     0.78508   0.74807   0.02242   0.00000  Uiso   1.00
H655   H     0.78766   0.76273   0.11278   0.00000  Uiso   1.00
H656   H     0.86335   0.91205   0.38915   0.00000  Uiso   1.00
H657   H     0.88315   0.95875   0.04312   0.00000  Uiso   1.00
H658   H     0.76973   0.71421   0.45711   0.00000  Uiso   1.00
C659   C     0.85541   0.98454   0.24119   0.00000  Uiso   1.00
C660   C     0.80985   0.68117   0.24742   0.00000  Uiso   1.00
N661   N     0.98344   0.81932   0.23783   0.00000  Uiso   1.00
N662   N     0.68322   0.84735   0.26217   0.00000  Uiso   1.00
O663   O     0.88126   0.91976   0.11899   0.00000  Uiso   1.00
C664   C     0.94000   0.92983   0.10453   0.00000  Uiso   1.00
H665   H     0.94824   0.97199   0.10339   0.00000  Uiso   1.00
H666   H     0.95396   0.91256   0.07035   0.00000  Uiso   1.00
C667   C     0.97720   0.91020   0.13749   0.00000  Uiso   1.00
H668   H     0.96494   0.92589   0.17230   0.00000  Uiso   1.00
H669   H     0.96976   0.86830   0.13611   0.00000  Uiso   1.00
C670   C     0.70698   0.92380   0.12450   0.00000  Uiso   1.00
H671   H     0.72014   0.90821   0.08972   0.00000  Uiso   1.00
H672   H     0.73300   0.90709   0.14811   0.00000  Uiso   1.00
H673   H     0.71533   0.96605   0.12659   0.00000  Uiso   1.00
O674   O     0.80904   0.74291   0.37919   0.00000  Uiso   1.00
C675   C     0.85650   0.71254   0.38072   0.00000  Uiso   1.00
H676   H     0.84652   0.67451   0.36354   0.00000  Uiso   1.00
H677   H     0.86304   0.70525   0.41585   0.00000  Uiso   1.00
C678   C     0.91203   0.73604   0.35671   0.00000  Uiso   1.00
H679   H     0.90743   0.73669   0.32023   0.00000  Uiso   1.00
H680   H     0.92146   0.77557   0.37072   0.00000  Uiso   1.00
C681   C     0.96356   0.70633   0.36260   0.00000  Uiso   1.00
H682   H     0.97171   0.70824   0.39867   0.00000  Uiso   1.00
H683   H     0.66826   0.72421   0.34341   0.00000  Uiso   1.00
H684   H     0.95676   0.99926   0.34979   0.00000  Uiso   1.00
N685   N     0.90938   0.96220   0.45621   0.00000  Uiso   1.00
O686   O     0.91411   0.67453   0.47614   0.00000  Uiso   1.00
O687   O     0.94838   0.94926   0.42427   0.00000  Uiso   1.00
N688   N     0.76336   0.70255   0.04422   0.00000  Uiso   1.00
O689   O     0.71820   0.67696   0.03102   0.00000  Uiso   1.00
O690   O     0.79432   0.68141   0.07066   0.00000  Uiso   1.00
N691   N     0.91201   0.67046   0.22691   0.00000  Uiso   1.00
O692   O     0.92386   0.68622   0.18642   0.00000  Uiso   1.00
O693   O     0.95243   0.66777   0.25302   0.00000  Uiso   1.00
N694   N     0.75194   0.99458   0.25527   0.00000  Uiso   1.00
O695   O     0.72817   0.99225   0.29634   0.00000  Uiso   1.00
O696   O     0.72535   0.97425   0.22169   0.00000  Uiso   1.00
N697   N     0.67705   0.78835   0.20374   0.00000  Uiso   1.00
O698   O     0.67535   0.79841   0.16196   0.00000  Uiso   1.00
O699   O     0.68697   0.74202   0.21198   0.00000  Uiso   1.00
N700   N     0.99068   0.86702   0.30281   0.00000  Uiso   1.00
O701   O     0.66767   0.84803   0.34008   0.00000  Uiso   1.00
O702   O     0.96957   0.91171   0.30491   0.00000  Uiso   1.00
O703   O     0.12975   0.24619   0.75299   0.00000  Uiso   1.00
O704   O     0.20358   0.08714   0.74702   0.00000  Uiso   1.00
O705   O     0.22613   0.23721   0.74519   0.00000  Uiso   1.00
O706   O     0.10720   0.09613   0.75482   0.00000  Uiso   1.00
C707   C     0.18148   0.26448   0.74759   0.00000  Uiso   1.00
C708   C     0.15165   0.06870   0.74932   0.00000  Uiso   1.00
O709   O     0.11847   0.17117   0.81998   0.00000  Uiso   1.00
O710   O     0.21486   0.16216   0.68003   0.00000  Uiso   1.00
O711   O     0.21485   0.16219   0.81218   0.00000  Uiso   1.00
O712   O     0.11848   0.17115   0.68783   0.00000  Uiso   1.00
C713   C     0.16658   0.16713   0.83631   0.00000  Uiso   1.00
C714   C     0.16692   0.16771   0.66371   0.00000  Uiso   1.00
Zn715  Zn    0.10231   0.17266   0.75521   0.00000  Uiso   1.00
Zn716  Zn    0.23102   0.16067   0.74479   0.00000  Uiso   1.00
C717   C     0.14056   0.12711   0.59337   0.00000  Uiso   1.00
C718   C     0.18407   0.21150   0.90751   0.00000  Uiso   1.00
C719   C     0.16679   0.16889   0.61603   0.00000  Uiso   1.00
C720   C     0.16594   0.16693   0.88401   0.00000  Uiso   1.00
C721   C     0.19075   0.21171   0.59395   0.00000  Uiso   1.00
C722   C     0.14977   0.12174   0.90533   0.00000  Uiso   1.00
C723   C     0.18452   0.21328   0.54778   0.00000  Uiso   1.00
C724   C     0.14359   0.12363   0.95256   0.00000  Uiso   1.00
C725   C     0.16254   0.16904   0.52380   0.00000  Uiso   1.00
C726   C     0.16311   0.16855   0.97686   0.00000  Uiso   1.00
C727   C     0.14060   0.12526   0.54669   0.00000  Uiso   1.00
C728   C     0.18565   0.21219   0.95396   0.00000  Uiso   1.00
C729   C     0.20217   0.25733   0.52495   0.00000  Uiso   1.00
C730   C     0.11960   0.08141   0.97562   0.00000  Uiso   1.00
C731   C     0.20772   0.25584   0.97818   0.00000  Uiso   1.00
C732   C     0.11841   0.08140   0.52242   0.00000  Uiso   1.00
H733   H     0.12099   0.09606   0.61278   0.00000  Uiso   1.00
H734   H     0.19668   0.24538   0.88915   0.00000  Uiso   1.00
H735   H     0.21648   0.29209   0.54312   0.00000  Uiso   1.00
H736   H     0.10307   0.04755   0.95711   0.00000  Uiso   1.00
C737   C     0.18874   0.31787   0.74119   0.00000  Uiso   1.00
C738   C     0.14319   0.01451   0.74742   0.00000  Uiso   1.00
N739   N     0.31678   0.15265   0.73783   0.00000  Uiso   1.00
N740   N     0.01656   0.18068   0.76217   0.00000  Uiso   1.00
O741   O     0.21459   0.25309   0.61899   0.00000  Uiso   1.00
C742   C     0.27334   0.26316   0.60453   0.00000  Uiso   1.00
H743   H     0.28158   0.30532   0.60339   0.00000  Uiso   1.00
H744   H     0.28729   0.24589   0.57035   0.00000  Uiso   1.00
C745   C     0.31054   0.24353   0.63749   0.00000  Uiso   1.00
H746   H     0.29828   0.25922   0.67230   0.00000  Uiso   1.00
H747   H     0.30309   0.20163   0.63611   0.00000  Uiso   1.00
C748   C     0.04032   0.25713   0.62450   0.00000  Uiso   1.00
H749   H     0.05347   0.24154   0.58972   0.00000  Uiso   1.00
H750   H     0.06633   0.24043   0.64811   0.00000  Uiso   1.00
H751   H     0.04866   0.29939   0.62659   0.00000  Uiso   1.00
O752   O     0.14237   0.07624   0.87919   0.00000  Uiso   1.00
C753   C     0.18984   0.04587   0.88072   0.00000  Uiso   1.00
H754   H     0.17985   0.00785   0.86354   0.00000  Uiso   1.00
H755   H     0.19637   0.03859   0.91585   0.00000  Uiso   1.00
C756   C     0.24536   0.06937   0.85671   0.00000  Uiso   1.00
H757   H     0.24076   0.07003   0.82023   0.00000  Uiso   1.00
H758   H     0.25479   0.10890   0.87072   0.00000  Uiso   1.00
C759   C     0.29689   0.03966   0.86260   0.00000  Uiso   1.00
H760   H     0.30504   0.04157   0.89867   0.00000  Uiso   1.00
H761   H     0.00160   0.05755   0.84341   0.00000  Uiso   1.00
H762   H     0.29009   0.33259   0.84979   0.00000  Uiso   1.00
N763   N     0.24271   0.29554   0.95621   0.00000  Uiso   1.00
O764   O     0.24744   0.00786   0.97614   0.00000  Uiso   1.00
O765   O     0.28172   0.28259   0.92427   0.00000  Uiso   1.00
N766   N     0.09669   0.03588   0.54422   0.00000  Uiso   1.00
O767   O     0.05153   0.01029   0.53102   0.00000  Uiso   1.00
O768   O     0.12765   0.01474   0.57066   0.00000  Uiso   1.00
N769   N     0.24535   0.00380   0.72691   0.00000  Uiso   1.00
O770   O     0.25719   0.01956   0.68642   0.00000  Uiso   1.00
O771   O     0.28576   0.00110   0.75302   0.00000  Uiso   1.00
N772   N     0.08528   0.32792   0.75527   0.00000  Uiso   1.00
O773   O     0.06151   0.32558   0.79634   0.00000  Uiso   1.00
O774   O     0.05869   0.30758   0.72169   0.00000  Uiso   1.00
N775   N     0.01039   0.12168   0.70374   0.00000  Uiso   1.00
O776   O     0.00869   0.13174   0.66196   0.00000  Uiso   1.00
O777   O     0.02031   0.07535   0.71198   0.00000  Uiso   1.00
N778   N     0.32401   0.20036   0.80281   0.00000  Uiso   1.00
O779   O     0.00101   0.18136   0.84008   0.00000  Uiso   1.00
O780   O     0.30290   0.24505   0.80491   0.00000  Uiso   1.00
O781   O     0.46308   0.24619   0.75299   0.00000  Uiso   1.00
O782   O     0.53692   0.08714   0.74702   0.00000  Uiso   1.00
O783   O     0.55946   0.23721   0.74519   0.00000  Uiso   1.00
O784   O     0.44054   0.09613   0.75482   0.00000  Uiso   1.00
C785   C     0.51482   0.26448   0.74759   0.00000  Uiso   1.00
C786   C     0.48498   0.06870   0.74932   0.00000  Uiso   1.00
O787   O     0.45181   0.17117   0.81998   0.00000  Uiso   1.00
O788   O     0.54819   0.16216   0.68003   0.00000  Uiso   1.00
O789   O     0.54819   0.16219   0.81218   0.00000  Uiso   1.00
O790   O     0.45181   0.17115   0.68783   0.00000  Uiso   1.00
C791   C     0.49991   0.16713   0.83631   0.00000  Uiso   1.00
C792   C     0.50026   0.16771   0.66371   0.00000  Uiso   1.00
Zn793  Zn    0.43565   0.17266   0.75521   0.00000  Uiso   1.00
Zn794  Zn    0.56435   0.16067   0.74479   0.00000  Uiso   1.00
C795   C     0.47389   0.12711   0.59337   0.00000  Uiso   1.00
C796   C     0.51741   0.21150   0.90751   0.00000  Uiso   1.00
C797   C     0.50012   0.16889   0.61603   0.00000  Uiso   1.00
C798   C     0.49928   0.16693   0.88401   0.00000  Uiso   1.00
C799   C     0.52408   0.21171   0.59395   0.00000  Uiso   1.00
C800   C     0.48311   0.12174   0.90533   0.00000  Uiso   1.00
C801   C     0.51785   0.21328   0.54778   0.00000  Uiso   1.00
C802   C     0.47692   0.12363   0.95256   0.00000  Uiso   1.00
C803   C     0.49587   0.16904   0.52380   0.00000  Uiso   1.00
C804   C     0.49644   0.16855   0.97686   0.00000  Uiso   1.00
C805   C     0.47394   0.12526   0.54669   0.00000  Uiso   1.00
C806   C     0.51898   0.21219   0.95396   0.00000  Uiso   1.00
C807   C     0.53550   0.25733   0.52495   0.00000  Uiso   1.00
C808   C     0.45293   0.08141   0.97562   0.00000  Uiso   1.00
C809   C     0.54106   0.25584   0.97818   0.00000  Uiso   1.00
C810   C     0.45174   0.08140   0.52242   0.00000  Uiso   1.00
H811   H     0.45433   0.09606   0.61278   0.00000  Uiso   1.00
H812   H     0.53001   0.24538   0.88915   0.00000  Uiso   1.00
H813   H     0.54982   0.29209   0.54312   0.00000  Uiso   1.00
H814   H     0.43640   0.04755   0.95711   0.00000  Uiso   1.00
C815   C     0.52207   0.31787   0.74119   0.00000  Uiso   1.00
C816   C     0.47652   0.01451   0.74742   0.00000  Uiso   1.00
N817   N     0.65011   0.15265   0.73783   0.00000  Uiso   1.00
N818   N     0.34989   0.18068   0.76217   0.00000  Uiso   1.00
O819   O     0.54793   0.25309   0.61899   0.00000  Uiso   1.00
C820   C     0.60667   0.26316   0.60453   0.00000  Uiso   1.00
H821   H     0.61491   0.30532   0.60339   0.00000  Uiso   1.00
H822   H     0.62062   0.24589   0.57035   0.00000  Uiso   1.00
C823   C     0.64387   0.24353   0.63749   0.00000  Uiso   1.00
H824   H     0.63161   0.25922   0.67230   0.00000  Uiso   1.00
H825   H     0.63643   0.20163   0.63611   0.00000  Uiso   1.00
C826   C     0.37365   0.25713   0.62450   0.00000  Uiso   1.00
H827   H     0.38681   0.24154   0.58972   0.00000  Uiso   1.00
H828   H     0.39966   0.24043   0.64811   0.00000  Uiso   1.00
H829   H     0.38200   0.29939   0.62659   0.00000  Uiso   1.00
O830   O     0.47570   0.07624   0.87919   0.00000  Uiso   1.00
C831   C     0.52317   0.04587   0.88072   0.00000  Uiso   1.00
H832   H     0.51318   0.00785   0.86354   0.00000  Uiso   1.00
H833   H     0.52970   0.03859   0.91585   0.00000  Uiso   1.00
C834   C     0.57869   0.06937   0.85671   0.00000  Uiso   1.00
H835   H     0.57410   0.07003   0.82023   0.00000  Uiso   1.00
H836   H     0.58813   0.10890   0.87072   0.00000  Uiso   1.00
C837   C     0.63023   0.03966   0.86260   0.00000  Uiso   1.00
H838   H     0.63837   0.04157   0.89867   0.00000  Uiso   1.00
H839   H     0.33493   0.05755   0.84341   0.00000  Uiso   1.00
H840   H     0.62342   0.33259   0.84979   0.00000  Uiso   1.00
N841   N     0.57605   0.29554   0.95621   0.00000  Uiso   1.00
O842   O     0.58077   0.00786   0.97614   0.00000  Uiso   1.00
O843   O     0.61505   0.28259   0.92427   0.00000  Uiso   1.00
N844   N     0.43003   0.03588   0.54422   0.00000  Uiso   1.00
O845   O     0.38487   0.01029   0.53102   0.00000  Uiso   1.00
O846   O     0.46099   0.01474   0.57066   0.00000  Uiso   1.00
N847   N     0.57868   0.00380   0.72691   0.00000  Uiso   1.00
O848   O     0.59053   0.01956   0.68642   0.00000  Uiso   1.00
O849   O     0.61909   0.00110   0.75302   0.00000  Uiso   1.00
N850   N     0.41861   0.32792   0.75527   0.00000  Uiso   1.00
O851   O     0.39484   0.32558   0.79634   0.00000  Uiso   1.00
O852   O     0.39202   0.30758   0.72169   0.00000  Uiso   1.00
N853   N     0.34372   0.12168   0.70374   0.00000  Uiso   1.00
O854   O     0.34202   0.13174   0.66196   0.00000  Uiso   1.00
O855   O     0.35364   0.07535   0.71198   0.00000  Uiso   1.00
N856   N     0.65734   0.20036   0.80281   0.00000  Uiso   1.00
O857   O     0.33434   0.18136   0.84008   0.00000  Uiso   1.00
O858   O     0.63623   0.24505   0.80491   0.00000  Uiso   1.00
O859   O     0.79642   0.24619   0.75299   0.00000  Uiso   1.00
O860   O     0.87025   0.08714   0.74702   0.00000  Uiso   1.00
O861   O     0.89280   0.23721   0.74519   0.00000  Uiso   1.00
O862   O     0.77387   0.09613   0.75482   0.00000  Uiso   1.00
C863   C     0.84815   0.26448   0.74759   0.00000  Uiso   1.00
C864   C     0.81831   0.06870   0.74932   0.00000  Uiso   1.00
O865   O     0.78514   0.17117   0.81998   0.00000  Uiso   1.00
O866   O     0.88153   0.16216   0.68003   0.00000  Uiso   1.00
O867   O     0.88152   0.16219   0.81218   0.00000  Uiso   1.00
O868   O     0.78515   0.17115   0.68783   0.00000  Uiso   1.00
C869   C     0.83324   0.16713   0.83631   0.00000  Uiso   1.00
C870   C     0.83359   0.16771   0.66371   0.00000  Uiso   1.00
Zn871  Zn    0.76898   0.17266   0.75521   0.00000  Uiso   1.00
Zn872  Zn    0.89769   0.16067   0.74479   0.00000  Uiso   1.00
C873   C     0.80723   0.12711   0.59337   0.00000  Uiso   1.00
C874   C     0.85074   0.21150   0.90751   0.00000  Uiso   1.00
C875   C     0.83346   0.16889   0.61603   0.00000  Uiso   1.00
C876   C     0.83261   0.16693   0.88401   0.00000  Uiso   1.00
C877   C     0.85741   0.21171   0.59395   0.00000  Uiso   1.00
C878   C     0.81644   0.12174   0.90533   0.00000  Uiso   1.00
C879   C     0.85118   0.21328   0.54778   0.00000  Uiso   1.00
C880   C     0.81025   0.12363   0.95256   0.00000  Uiso   1.00
C881   C     0.82920   0.16904   0.52380   0.00000  Uiso   1.00
C882   C     0.82977   0.16855   0.97686   0.00000  Uiso   1.00
C883   C     0.80727   0.12526   0.54669   0.00000  Uiso   1.00
C884   C     0.85231   0.21219   0.95396   0.00000  Uiso   1.00
C885   C     0.86884   0.25733   0.52495   0.00000  Uiso   1.00
C886   C     0.78627   0.08141   0.97562   0.00000  Uiso   1.00
C887   C     0.87439   0.25584   0.97818   0.00000  Uiso   1.00
C888   C     0.78508   0.08140   0.52242   0.00000  Uiso   1.00
H889   H     0.78766   0.09606   0.61278   0.00000  Uiso   1.00
H890   H     0.86335   0.24538   0.88915   0.00000  Uiso   1.00
H891   H     0.88315   0.29209   0.54312   0.00000  Uiso   1.00
H892   H     0.76973   0.04755   0.95711   0.00000  Uiso   1.00
C893   C     0.85541   0.31787   0.74119   0.00000  Uiso   1.00
C894   C     0.80985   0.01451   0.74742   0.00000  Uiso   1.00
N895   N     0.98344   0.15265   0.73783   0.00000  Uiso   1.00
N896   N     0.68322   0.18068   0.76217   0.00000  Uiso   1.00
O897   O     0.88126   0.25309   0.61899   0.00000  Uiso   1.00
C898   C     0.94000   0.26316   0.60453   0.00000  Uiso   1.00
H899   H     0.94824   0.30532   0.60339   0.00000  Uiso   1.00
H900   H     0.95396   0.24589   0.57035   0.00000  Uiso   1.00
C901   C     0.97720   0.24353   0.63749   0.00000  Uiso   1.00
H902   H     0.96494   0.25922   0.67230   0.00000  Uiso   1.00
H903   H     0.96976   0.20163   0.63611   0.00000  Uiso   1.00
C904   C     0.70698   0.25713   0.62450   0.00000  Uiso   1.00
H905   H     0.72014   0.24154   0.58972   0.00000  Uiso   1.00
H906   H     0.73300   0.24043   0.64811   0.00000  Uiso   1.00
H907   H     0.71533   0.29939   0.62659   0.00000  Uiso   1.00
O908   O     0.80904   0.07624   0.87919   0.00000  Uiso   1.00
C909   C     0.85650   0.04587   0.88072   0.00000  Uiso   1.00
H910   H     0.84652   0.00785   0.86354   0.00000  Uiso   1.00
H911   H     0.86304   0.03859   0.91585   0.00000  Uiso   1.00
C912   C     0.91203   0.06937   0.85671   0.00000  Uiso   1.00
H913   H     0.90743   0.07003   0.82023   0.00000  Uiso   1.00
H914   H     0.92146   0.10890   0.87072   0.00000  Uiso   1.00
C915   C     0.96356   0.03966   0.86260   0.00000  Uiso   1.00
H916   H     0.97171   0.04157   0.89867   0.00000  Uiso   1.00
H917   H     0.66826   0.05755   0.84341   0.00000  Uiso   1.00
H918   H     0.95676   0.33259   0.84979   0.00000  Uiso   1.00
N919   N     0.90938   0.29554   0.95621   0.00000  Uiso   1.00
O920   O     0.91411   0.00786   0.97614   0.00000  Uiso   1.00
O921   O     0.94838   0.28259   0.92427   0.00000  Uiso   1.00
N922   N     0.76336   0.03588   0.54422   0.00000  Uiso   1.00
O923   O     0.71820   0.01029   0.53102   0.00000  Uiso   1.00
O924   O     0.79432   0.01474   0.57066   0.00000  Uiso   1.00
N925   N     0.91201   0.00380   0.72691   0.00000  Uiso   1.00
O926   O     0.92386   0.01956   0.68642   0.00000  Uiso   1.00
O927   O     0.95243   0.00110   0.75302   0.00000  Uiso   1.00
N928   N     0.75194   0.32792   0.75527   0.00000  Uiso   1.00
O929   O     0.72817   0.32558   0.79634   0.00000  Uiso   1.00
O930   O     0.72535   0.30758   0.72169   0.00000  Uiso   1.00
N931   N     0.67705   0.12168   0.70374   0.00000  Uiso   1.00
O932   O     0.67535   0.13174   0.66196   0.00000  Uiso   1.00
O933   O     0.68697   0.07535   0.71198   0.00000  Uiso   1.00
N934   N     0.99068   0.20036   0.80281   0.00000  Uiso   1.00
O935   O     0.66767   0.18136   0.84008   0.00000  Uiso   1.00
O936   O     0.96957   0.24505   0.80491   0.00000  Uiso   1.00
O937   O     0.12975   0.57952   0.75299   0.00000  Uiso   1.00
O938   O     0.20358   0.42048   0.74702   0.00000  Uiso   1.00
O939   O     0.22613   0.57054   0.74519   0.00000  Uiso   1.00
O940   O     0.10720   0.42946   0.75482   0.00000  Uiso   1.00
C941   C     0.18148   0.59782   0.74759   0.00000  Uiso   1.00
C942   C     0.15165   0.40203   0.74932   0.00000  Uiso   1.00
O943   O     0.11847   0.50450   0.81998   0.00000  Uiso   1.00
O944   O     0.21486   0.49550   0.68003   0.00000  Uiso   1.00
O945   O     0.21485   0.49552   0.81218   0.00000  Uiso   1.00
O946   O     0.11848   0.50448   0.68783   0.00000  Uiso   1.00
C947   C     0.16658   0.50047   0.83631   0.00000  Uiso   1.00
C948   C     0.16692   0.50104   0.66371   0.00000  Uiso   1.00
Zn949  Zn    0.10231   0.50600   0.75521   0.00000  Uiso   1.00
Zn950  Zn    0.23102   0.49400   0.74479   0.00000  Uiso   1.00
C951   C     0.14056   0.46044   0.59337   0.00000  Uiso   1.00
C952   C     0.18407   0.54484   0.90751   0.00000  Uiso   1.00
C953   C     0.16679   0.50222   0.61603   0.00000  Uiso   1.00
C954   C     0.16594   0.50027   0.88401   0.00000  Uiso   1.00
C955   C     0.19075   0.54504   0.59395   0.00000  Uiso   1.00
C956   C     0.14977   0.45508   0.90533   0.00000  Uiso   1.00
C957   C     0.18452   0.54662   0.54778   0.00000  Uiso   1.00
C958   C     0.14359   0.45697   0.95256   0.00000  Uiso   1.00
C959   C     0.16254   0.50237   0.52380   0.00000  Uiso   1.00
C960   C     0.16311   0.50188   0.97686   0.00000  Uiso   1.00
C961   C     0.14060   0.45859   0.54669   0.00000  Uiso   1.00
C962   C     0.18565   0.54552   0.95396   0.00000  Uiso   1.00
C963   C     0.20217   0.59066   0.52495   0.00000  Uiso   1.00
C964   C     0.11960   0.41475   0.97562   0.00000  Uiso   1.00
C965   C     0.20772   0.58918   0.97818   0.00000  Uiso   1.00
C966   C     0.11841   0.41474   0.52242   0.00000  Uiso   1.00
H967   H     0.12099   0.42939   0.61278   0.00000  Uiso   1.00
H968   H     0.19668   0.57871   0.88915   0.00000  Uiso   1.00
H969   H     0.21648   0.62542   0.54312   0.00000  Uiso   1.00
H970   H     0.10307   0.38088   0.95711   0.00000  Uiso   1.00
C971   C     0.18874   0.65121   0.74119   0.00000  Uiso   1.00
C972   C     0.14319   0.34784   0.74742   0.00000  Uiso   1.00
N973   N     0.31678   0.48598   0.73783   0.00000  Uiso   1.00
N974   N     0.01656   0.51402   0.76217   0.00000  Uiso   1.00
O975   O     0.21459   0.58642   0.61899   0.00000  Uiso   1.00
C976   C     0.27334   0.59650   0.60453   0.00000  Uiso   1.00
H977   H     0.28158   0.63865   0.60339   0.00000  Uiso   1.00
H978   H     0.28729   0.57922   0.57035   0.00000  Uiso   1.00
C979   C     0.31054   0.57686   0.63749   0.00000  Uiso   1.00
H980   H     0.29828   0.59255   0.67230   0.00000  Uiso   1.00
H981   H     0.30309   0.53497   0.63611   0.00000  Uiso   1.00
C982   C     0.04032   0.59047   0.62450   0.00000  Uiso   1.00
H983   H     0.05347   0.57487   0.58972   0.00000  Uiso   1.00
H984   H     0.06633   0.57376   0.64811   0.00000  Uiso   1.00
H985   H     0.04866   0.63272   0.62659   0.00000  Uiso   1.00
O986   O     0.14237   0.40957   0.87919   0.00000  Uiso   1.00
C987   C     0.18984   0.37920   0.88072   0.00000  Uiso   1.00
H988   H     0.17985   0.34118   0.86354   0.00000  Uiso   1.00
H989   H     0.19637   0.37192   0.91585   0.00000  Uiso   1.00
C990   C     0.24536   0.40270   0.85671   0.00000  Uiso   1.00
H991   H     0.24076   0.40336   0.82023   0.00000  Uiso   1.00
H992   H     0.25479   0.44223   0.87072   0.00000  Uiso   1.00
C993   C     0.29689   0.37299   0.86260   0.00000  Uiso   1.00
H994   H     0.30504   0.37491   0.89867   0.00000  Uiso   1.00
H995   H     0.00160   0.39088   0.84341   0.00000  Uiso   1.00
H996   H     0.29009   0.66593   0.84979   0.00000  Uiso   1.00
N997   N     0.24271   0.62887   0.95621   0.00000  Uiso   1.00
O998   O     0.24744   0.34119   0.97614   0.00000  Uiso   1.00
O999   O     0.28172   0.61592   0.92427   0.00000  Uiso   1.00
N1000  N     0.09669   0.36921   0.54422   0.00000  Uiso   1.00
O1001  O     0.05153   0.34363   0.53102   0.00000  Uiso   1.00
O1002  O     0.12765   0.34807   0.57066   0.00000  Uiso   1.00
N1003  N     0.24535   0.33713   0.72691   0.00000  Uiso   1.00
O1004  O     0.25719   0.35289   0.68642   0.00000  Uiso   1.00
O1005  O     0.28576   0.33443   0.75302   0.00000  Uiso   1.00
N1006  N     0.08528   0.66125   0.75527   0.00000  Uiso   1.00
O1007  O     0.06151   0.65891   0.79634   0.00000  Uiso   1.00
O1008  O     0.05869   0.64092   0.72169   0.00000  Uiso   1.00
N1009  N     0.01039   0.45502   0.70374   0.00000  Uiso   1.00
O1010  O     0.00869   0.46507   0.66196   0.00000  Uiso   1.00
O1011  O     0.02031   0.40869   0.71198   0.00000  Uiso   1.00
N1012  N     0.32401   0.53369   0.80281   0.00000  Uiso   1.00
O1013  O     0.00101   0.51470   0.84008   0.00000  Uiso   1.00
O1014  O     0.30290   0.57838   0.80491   0.00000  Uiso   1.00
O1015  O     0.46308   0.57952   0.75299   0.00000  Uiso   1.00
O1016  O     0.53692   0.42048   0.74702   0.00000  Uiso   1.00
O1017  O     0.55946   0.57054   0.74519   0.00000  Uiso   1.00
O1018  O     0.44054   0.42946   0.75482   0.00000  Uiso   1.00
C1019  C     0.51482   0.59782   0.74759   0.00000  Uiso   1.00
C1020  C     0.48498   0.40203   0.74932   0.00000  Uiso   1.00
O1021  O     0.45181   0.50450   0.81998   0.00000  Uiso   1.00
O1022  O     0.54819   0.49550   0.68003   0.00000  Uiso   1.00
O1023  O     0.54819   0.49552   0.81218   0.00000  Uiso   1.00
O1024  O     0.45181   0.50448   0.68783   0.00000  Uiso   1.00
C1025  C     0.49991   0.50047   0.83631   0.00000  Uiso   1.00
C1026  C     0.50026   0.50104   0.66371   0.00000  Uiso   1.00
Zn1027 Zn    0.43565   0.50600   0.75521   0.00000  Uiso   1.00
Zn1028 Zn    0.56435   0.49400   0.74479   0.00000  Uiso   1.00
C1029  C     0.47389   0.46044   0.59337   0.00000  Uiso   1.00
C1030  C     0.51741   0.54484   0.90751   0.00000  Uiso   1.00
C1031  C     0.50012   0.50222   0.61603   0.00000  Uiso   1.00
C1032  C     0.49928   0.50027   0.88401   0.00000  Uiso   1.00
C1033  C     0.52408   0.54504   0.59395   0.00000  Uiso   1.00
C1034  C     0.48311   0.45508   0.90533   0.00000  Uiso   1.00
C1035  C     0.51785   0.54662   0.54778   0.00000  Uiso   1.00
C1036  C     0.47692   0.45697   0.95256   0.00000  Uiso   1.00
C1037  C     0.49587   0.50237   0.52380   0.00000  Uiso   1.00
C1038  C     0.49644   0.50188   0.97686   0.00000  Uiso   1.00
C1039  C     0.47394   0.45859   0.54669   0.00000  Uiso   1.00
C1040  C     0.51898   0.54552   0.95396   0.00000  Uiso   1.00
C1041  C     0.53550   0.59066   0.52495   0.00000  Uiso   1.00
C1042  C     0.45293   0.41475   0.97562   0.00000  Uiso   1.00
C1043  C     0.54106   0.58918   0.97818   0.00000  Uiso   1.00
C1044  C     0.45174   0.41474   0.52242   0.00000  Uiso   1.00
H1045  H     0.45433   0.42939   0.61278   0.00000  Uiso   1.00
H1046  H     0.53001   0.57871   0.88915   0.00000  Uiso   1.00
H1047  H     0.54982   0.62542   0.54312   0.00000  Uiso   1.00
H1048  H     0.43640   0.38088   0.95711   0.00000  Uiso   1.00
C1049  C     0.52207   0.65121   0.74119   0.00000  Uiso   1.00
C1050  C     0.47652   0.34784   0.74742   0.00000  Uiso   1.00
N1051  N     0.65011   0.48598   0.73783   0.00000  Uiso   1.00
N1052  N     0.34989   0.51402   0.76217   0.00000  Uiso   1.00
O1053  O     0.54793   0.58642   0.61899   0.00000  Uiso   1.00
C1054  C     0.60667   0.59650   0.60453   0.00000  Uiso   1.00
H1055  H     0.61491   0.63865   0.60339   0.00000  Uiso   1.00
H1056  H     0.62062   0.57922   0.57035   0.00000  Uiso   1.00
C1057  C     0.64387   0.57686   0.63749   0.00000  Uiso   1.00
H1058  H     0.63161   0.59255   0.67230   0.00000  Uiso   1.00
H1059  H     0.63643   0.53497   0.63611   0.00000  Uiso   1.00
C1060  C     0.37365   0.59047   0.62450   0.00000  Uiso   1.00
H1061  H     0.38681   0.57487   0.58972   0.00000  Uiso   1.00
H1062  H     0.39966   0.57376   0.64811   0.00000  Uiso   1.00
H1063  H     0.38200   0.63272   0.62659   0.00000  Uiso   1.00
O1064  O     0.47570   0.40957   0.87919   0.00000  Uiso   1.00
C1065  C     0.52317   0.37920   0.88072   0.00000  Uiso   1.00
H1066  H     0.51318   0.34118   0.86354   0.00000  Uiso   1.00
H1067  H     0.52970   0.37192   0.91585   0.00000  Uiso   1.00
C1068  C     0.57869   0.40270   0.85671   0.00000  Uiso   1.00
H1069  H     0.57410   0.40336   0.82023   0.00000  Uiso   1.00
H1070  H     0.58813   0.44223   0.87072   0.00000  Uiso   1.00
C1071  C     0.63023   0.37299   0.86260   0.00000  Uiso   1.00
H1072  H     0.63837   0.37491   0.89867   0.00000  Uiso   1.00
H1073  H     0.33493   0.39088   0.84341   0.00000  Uiso   1.00
H1074  H     0.62342   0.66593   0.84979   0.00000  Uiso   1.00
N1075  N     0.57605   0.62887   0.95621   0.00000  Uiso   1.00
O1076  O     0.58077   0.34119   0.97614   0.00000  Uiso   1.00
O1077  O     0.61505   0.61592   0.92427   0.00000  Uiso   1.00
N1078  N     0.43003   0.36921   0.54422   0.00000  Uiso   1.00
O1079  O     0.38487   0.34363   0.53102   0.00000  Uiso   1.00
O1080  O     0.46099   0.34807   0.57066   0.00000  Uiso   1.00
N1081  N     0.57868   0.33713   0.72691   0.00000  Uiso   1.00
O1082  O     0.59053   0.35289   0.68642   0.00000  Uiso   1.00
O1083  O     0.61909   0.33443   0.75302   0.00000  Uiso   1.00
N1084  N     0.41861   0.66125   0.75527   0.00000  Uiso   1.00
O1085  O     0.39484   0.65891   0.79634   0.00000  Uiso   1.00
O1086  O     0.39202   0.64092   0.72169   0.00000  Uiso   1.00
N1087  N     0.34372   0.45502   0.70374   0.00000  Uiso   1.00
O1088  O     0.34202   0.46507   0.66196   0.00000  Uiso   1.00
O1089  O     0.35364   0.40869   0.71198   0.00000  Uiso   1.00
N1090  N     0.65734   0.53369   0.80281   0.00000  Uiso   1.00
O1091  O     0.33434   0.51470   0.84008   0.00000  Uiso   1.00
O1092  O     0.63623   0.57838   0.80491   0.00000  Uiso   1.00
O1093  O     0.79642   0.57952   0.75299   0.00000  Uiso   1.00
O1094  O     0.87025   0.42048   0.74702   0.00000  Uiso   1.00
O1095  O     0.89280   0.57054   0.74519   0.00000  Uiso   1.00
O1096  O     0.77387   0.42946   0.75482   0.00000  Uiso   1.00
C1097  C     0.84815   0.59782   0.74759   0.00000  Uiso   1.00
C1098  C     0.81831   0.40203   0.74932   0.00000  Uiso   1.00
O1099  O     0.78514   0.50450   0.81998   0.00000  Uiso   1.00
O1100  O     0.88153   0.49550   0.68003   0.00000  Uiso   1.00
O1101  O     0.88152   0.49552   0.81218   0.00000  Uiso   1.00
O1102  O     0.78515   0.50448   0.68783   0.00000  Uiso   1.00
C1103  C     0.83324   0.50047   0.83631   0.00000  Uiso   1.00
C1104  C     0.83359   0.50104   0.66371   0.00000  Uiso   1.00
Zn1105 Zn    0.76898   0.50600   0.75521   0.00000  Uiso   1.00
Zn1106 Zn    0.89769   0.49400   0.74479   0.00000  Uiso   1.00
C1107  C     0.80723   0.46044   0.59337   0.00000  Uiso   1.00
C1108  C     0.85074   0.54484   0.90751   0.00000  Uiso   1.00
C1109  C     0.83346   0.50222   0.61603   0.00000  Uiso   1.00
C1110  C     0.83261   0.50027   0.88401   0.00000  Uiso   1.00
C1111  C     0.85741   0.54504   0.59395   0.00000  Uiso   1.00
C1112  C     0.81644   0.45508   0.90533   0.00000  Uiso   1.00
C1113  C     0.85118   0.54662   0.54778   0.00000  Uiso   1.00
C1114  C     0.81025   0.45697   0.95256   0.00000  Uiso   1.00
C1115  C     0.82920   0.50237   0.52380   0.00000  Uiso   1.00
C1116  C     0.82977   0.50188   0.97686   0.00000  Uiso   1.00
C1117  C     0.80727   0.45859   0.54669   0.00000  Uiso   1.00
C1118  C     0.85231   0.54552   0.95396   0.00000  Uiso   1.00
C1119  C     0.86884   0.59066   0.52495   0.00000  Uiso   1.00
C1120  C     0.78627   0.41475   0.97562   0.00000  Uiso   1.00
C1121  C     0.87439   0.58918   0.97818   0.00000  Uiso   1.00
C1122  C     0.78508   0.41474   0.52242   0.00000  Uiso   1.00
H1123  H     0.78766   0.42939   0.61278   0.00000  Uiso   1.00
H1124  H     0.86335   0.57871   0.88915   0.00000  Uiso   1.00
H1125  H     0.88315   0.62542   0.54312   0.00000  Uiso   1.00
H1126  H     0.76973   0.38088   0.95711   0.00000  Uiso   1.00
C1127  C     0.85541   0.65121   0.74119   0.00000  Uiso   1.00
C1128  C     0.80985   0.34784   0.74742   0.00000  Uiso   1.00
N1129  N     0.98344   0.48598   0.73783   0.00000  Uiso   1.00
N1130  N     0.68322   0.51402   0.76217   0.00000  Uiso   1.00
O1131  O     0.88126   0.58642   0.61899   0.00000  Uiso   1.00
C1132  C     0.94000   0.59650   0.60453   0.00000  Uiso   1.00
H1133  H     0.94824   0.63865   0.60339   0.00000  Uiso   1.00
H1134  H     0.95396   0.57922   0.57035   0.00000  Uiso   1.00
C1135  C     0.97720   0.57686   0.63749   0.00000  Uiso   1.00
H1136  H     0.96494   0.59255   0.67230   0.00000  Uiso   1.00
H1137  H     0.96976   0.53497   0.63611   0.00000  Uiso   1.00
C1138  C     0.70698   0.59047   0.62450   0.00000  Uiso   1.00
H1139  H     0.72014   0.57487   0.58972   0.00000  Uiso   1.00
H1140  H     0.73300   0.57376   0.64811   0.00000  Uiso   1.00
H1141  H     0.71533   0.63272   0.62659   0.00000  Uiso   1.00
O1142  O     0.80904   0.40957   0.87919   0.00000  Uiso   1.00
C1143  C     0.85650   0.37920   0.88072   0.00000  Uiso   1.00
H1144  H     0.84652   0.34118   0.86354   0.00000  Uiso   1.00
H1145  H     0.86304   0.37192   0.91585   0.00000  Uiso   1.00
C1146  C     0.91203   0.40270   0.85671   0.00000  Uiso   1.00
H1147  H     0.90743   0.40336   0.82023   0.00000  Uiso   1.00
H1148  H     0.92146   0.44223   0.87072   0.00000  Uiso   1.00
C1149  C     0.96356   0.37299   0.86260   0.00000  Uiso   1.00
H1150  H     0.97171   0.37491   0.89867   0.00000  Uiso   1.00
H1151  H     0.66826   0.39088   0.84341   0.00000  Uiso   1.00
H1152  H     0.95676   0.66593   0.84979   0.00000  Uiso   1.00
N1153  N     0.90938   0.62887   0.95621   0.00000  Uiso   1.00
O1154  O     0.91411   0.34119   0.97614   0.00000  Uiso   1.00
O1155  O     0.94838   0.61592   0.92427   0.00000  Uiso   1.00
N1156  N     0.76336   0.36921   0.54422   0.00000  Uiso   1.00
O1157  O     0.71820   0.34363   0.53102   0.00000  Uiso   1.00
O1158  O     0.79432   0.34807   0.57066   0.00000  Uiso   1.00
N1159  N     0.91201   0.33713   0.72691   0.00000  Uiso   1.00
O1160  O     0.92386   0.35289   0.68642   0.00000  Uiso   1.00
O1161  O     0.95243   0.33443   0.75302   0.00000  Uiso   1.00
N1162  N     0.75194   0.66125   0.75527   0.00000  Uiso   1.00
O1163  O     0.72817   0.65891   0.79634   0.00000  Uiso   1.00
O1164  O     0.72535   0.64092   0.72169   0.00000  Uiso   1.00
N1165  N     0.67705   0.45502   0.70374   0.00000  Uiso   1.00
O1166  O     0.67535   0.46507   0.66196   0.00000  Uiso   1.00
O1167  O     0.68697   0.40869   0.71198   0.00000  Uiso   1.00
N1168  N     0.99068   0.53369   0.80281   0.00000  Uiso   1.00
O1169  O     0.66767   0.51470   0.84008   0.00000  Uiso   1.00
O1170  O     0.96957   0.57838   0.80491   0.00000  Uiso   1.00
O1171  O     0.12975   0.91286   0.75299   0.00000  Uiso   1.00
O1172  O     0.20358   0.75381   0.74702   0.00000  Uiso   1.00
O1173  O     0.22613   0.90387   0.74519   0.00000  Uiso   1.00
O1174  O     0.10720   0.76279   0.75482   0.00000  Uiso   1.00
C1175  C     0.18148   0.93115   0.74759   0.00000  Uiso   1.00
C1176  C     0.15165   0.73536   0.74932   0.00000  Uiso   1.00
O1177  O     0.11847   0.83784   0.81998   0.00000  Uiso   1.00
O1178  O     0.21486   0.82883   0.68003   0.00000  Uiso   1.00
O1179  O     0.21485   0.82885   0.81218   0.00000  Uiso   1.00
O1180  O     0.11848   0.83781   0.68783   0.00000  Uiso   1.00
C1181  C     0.16658   0.83380   0.83631   0.00000  Uiso   1.00
C1182  C     0.16692   0.83438   0.66371   0.00000  Uiso   1.00
Zn1183 Zn    0.10231   0.83933   0.75521   0.00000  Uiso   1.00
Zn1184 Zn    0.23102   0.82734   0.74479   0.00000  Uiso   1.00
C1185  C     0.14056   0.79377   0.59337   0.00000  Uiso   1.00
C1186  C     0.18407   0.87817   0.90751   0.00000  Uiso   1.00
C1187  C     0.16679   0.83555   0.61603   0.00000  Uiso   1.00
C1188  C     0.16594   0.83360   0.88401   0.00000  Uiso   1.00
C1189  C     0.19075   0.87837   0.59395   0.00000  Uiso   1.00
C1190  C     0.14977   0.78841   0.90533   0.00000  Uiso   1.00
C1191  C     0.18452   0.87995   0.54778   0.00000  Uiso   1.00
C1192  C     0.14359   0.79030   0.95256   0.00000  Uiso   1.00
C1193  C     0.16254   0.83571   0.52380   0.00000  Uiso   1.00
C1194  C     0.16311   0.83521   0.97686   0.00000  Uiso   1.00
C1195  C     0.14060   0.79193   0.54669   0.00000  Uiso   1.00
C1196  C     0.18565   0.87886   0.95396   0.00000  Uiso   1.00
C1197  C     0.20217   0.92400   0.52495   0.00000  Uiso   1.00
C1198  C     0.11960   0.74808   0.97562   0.00000  Uiso   1.00
C1199  C     0.20772   0.92251   0.97818   0.00000  Uiso   1.00
C1200  C     0.11841   0.74807   0.52242   0.00000  Uiso   1.00
H1201  H     0.12099   0.76273   0.61278   0.00000  Uiso   1.00
H1202  H     0.19668   0.91205   0.88915   0.00000  Uiso   1.00
H1203  H     0.21648   0.95875   0.54312   0.00000  Uiso   1.00
H1204  H     0.10307   0.71421   0.95711   0.00000  Uiso   1.00
C1205  C     0.18874   0.98454   0.74119   0.00000  Uiso   1.00
C1206  C     0.14319   0.68117   0.74742   0.00000  Uiso   1.00
N1207  N     0.31678   0.81932   0.73783   0.00000  Uiso   1.00
N1208  N     0.01656   0.84735   0.76217   0.00000  Uiso   1.00
O1209  O     0.21459   0.91976   0.61899   0.00000  Uiso   1.00
C1210  C     0.27334   0.92983   0.60453   0.00000  Uiso   1.00
H1211  H     0.28158   0.97199   0.60339   0.00000  Uiso   1.00
H1212  H     0.28729   0.91256   0.57035   0.00000  Uiso   1.00
C1213  C     0.31054   0.91020   0.63749   0.00000  Uiso   1.00
H1214  H     0.29828   0.92589   0.67230   0.00000  Uiso   1.00
H1215  H     0.30309   0.86830   0.63611   0.00000  Uiso   1.00
C1216  C     0.04032   0.92380   0.62450   0.00000  Uiso   1.00
H1217  H     0.05347   0.90821   0.58972   0.00000  Uiso   1.00
H1218  H     0.06633   0.90709   0.64811   0.00000  Uiso   1.00
H1219  H     0.04866   0.96605   0.62659   0.00000  Uiso   1.00
O1220  O     0.14237   0.74291   0.87919   0.00000  Uiso   1.00
C1221  C     0.18984   0.71254   0.88072   0.00000  Uiso   1.00
H1222  H     0.17985   0.67451   0.86354   0.00000  Uiso   1.00
H1223  H     0.19637   0.70525   0.91585   0.00000  Uiso   1.00
C1224  C     0.24536   0.73604   0.85671   0.00000  Uiso   1.00
H1225  H     0.24076   0.73669   0.82023   0.00000  Uiso   1.00
H1226  H     0.25479   0.77557   0.87072   0.00000  Uiso   1.00
C1227  C     0.29689   0.70633   0.86260   0.00000  Uiso   1.00
H1228  H     0.30504   0.70824   0.89867   0.00000  Uiso   1.00
H1229  H     0.00160   0.72421   0.84341   0.00000  Uiso   1.00
H1230  H     0.29009   0.99926   0.84979   0.00000  Uiso   1.00
N1231  N     0.24271   0.96220   0.95621   0.00000  Uiso   1.00
O1232  O     0.24744   0.67453   0.97614   0.00000  Uiso   1.00
O1233  O     0.28172   0.94926   0.92427   0.00000  Uiso   1.00
N1234  N     0.09669   0.70255   0.54422   0.00000  Uiso   1.00
O1235  O     0.05153   0.67696   0.53102   0.00000  Uiso   1.00
O1236  O     0.12765   0.68141   0.57066   0.00000  Uiso   1.00
N1237  N     0.24535   0.67046   0.72691   0.00000  Uiso   1.00
O1238  O     0.25719   0.68622   0.68642   0.00000  Uiso   1.00
O1239  O     0.28576   0.66777   0.75302   0.00000  Uiso   1.00
N1240  N     0.08528   0.99458   0.75527   0.00000  Uiso   1.00
O1241  O     0.06151   0.99225   0.79634   0.00000  Uiso   1.00
O1242  O     0.05869   0.97425   0.72169   0.00000  Uiso   1.00
N1243  N     0.01039   0.78835   0.70374   0.00000  Uiso   1.00
O1244  O     0.00869   0.79841   0.66196   0.00000  Uiso   1.00
O1245  O     0.02031   0.74202   0.71198   0.00000  Uiso   1.00
N1246  N     0.32401   0.86702   0.80281   0.00000  Uiso   1.00
O1247  O     0.00101   0.84803   0.84008   0.00000  Uiso   1.00
O1248  O     0.30290   0.91171   0.80491   0.00000  Uiso   1.00
O1249  O     0.46308   0.91286   0.75299   0.00000  Uiso   1.00
O1250  O     0.53692   0.75381   0.74702   0.00000  Uiso   1.00
O1251  O     0.55946   0.90387   0.74519   0.00000  Uiso   1.00
O1252  O     0.44054   0.76279   0.75482   0.00000  Uiso   1.00
C1253  C     0.51482   0.93115   0.74759   0.00000  Uiso   1.00
C1254  C     0.48498   0.73536   0.74932   0.00000  Uiso   1.00
O1255  O     0.45181   0.83784   0.81998   0.00000  Uiso   1.00
O1256  O     0.54819   0.82883   0.68003   0.00000  Uiso   1.00
O1257  O     0.54819   0.82885   0.81218   0.00000  Uiso   1.00
O1258  O     0.45181   0.83781   0.68783   0.00000  Uiso   1.00
C1259  C     0.49991   0.83380   0.83631   0.00000  Uiso   1.00
C1260  C     0.50026   0.83438   0.66371   0.00000  Uiso   1.00
Zn1261 Zn    0.43565   0.83933   0.75521   0.00000  Uiso   1.00
Zn1262 Zn    0.56435   0.82734   0.74479   0.00000  Uiso   1.00
C1263  C     0.47389   0.79377   0.59337   0.00000  Uiso   1.00
C1264  C     0.51741   0.87817   0.90751   0.00000  Uiso   1.00
C1265  C     0.50012   0.83555   0.61603   0.00000  Uiso   1.00
C1266  C     0.49928   0.83360   0.88401   0.00000  Uiso   1.00
C1267  C     0.52408   0.87837   0.59395   0.00000  Uiso   1.00
C1268  C     0.48311   0.78841   0.90533   0.00000  Uiso   1.00
C1269  C     0.51785   0.87995   0.54778   0.00000  Uiso   1.00
C1270  C     0.47692   0.79030   0.95256   0.00000  Uiso   1.00
C1271  C     0.49587   0.83571   0.52380   0.00000  Uiso   1.00
C1272  C     0.49644   0.83521   0.97686   0.00000  Uiso   1.00
C1273  C     0.47394   0.79193   0.54669   0.00000  Uiso   1.00
C1274  C     0.51898   0.87886   0.95396   0.00000  Uiso   1.00
C1275  C     0.53550   0.92400   0.52495   0.00000  Uiso   1.00
C1276  C     0.45293   0.74808   0.97562   0.00000  Uiso   1.00
C1277  C     0.54106   0.92251   0.97818   0.00000  Uiso   1.00
C1278  C     0.45174   0.74807   0.52242   0.00000  Uiso   1.00
H1279  H     0.45433   0.76273   0.61278   0.00000  Uiso   1.00
H1280  H     0.53001   0.91205   0.88915   0.00000  Uiso   1.00
H1281  H     0.54982   0.95875   0.54312   0.00000  Uiso   1.00
H1282  H     0.43640   0.71421   0.95711   0.00000  Uiso   1.00
C1283  C     0.52207   0.98454   0.74119   0.00000  Uiso   1.00
C1284  C     0.47652   0.68117   0.74742   0.00000  Uiso   1.00
N1285  N     0.65011   0.81932   0.73783   0.00000  Uiso   1.00
N1286  N     0.34989   0.84735   0.76217   0.00000  Uiso   1.00
O1287  O     0.54793   0.91976   0.61899   0.00000  Uiso   1.00
C1288  C     0.60667   0.92983   0.60453   0.00000  Uiso   1.00
H1289  H     0.61491   0.97199   0.60339   0.00000  Uiso   1.00
H1290  H     0.62062   0.91256   0.57035   0.00000  Uiso   1.00
C1291  C     0.64387   0.91020   0.63749   0.00000  Uiso   1.00
H1292  H     0.63161   0.92589   0.67230   0.00000  Uiso   1.00
H1293  H     0.63643   0.86830   0.63611   0.00000  Uiso   1.00
C1294  C     0.37365   0.92380   0.62450   0.00000  Uiso   1.00
H1295  H     0.38681   0.90821   0.58972   0.00000  Uiso   1.00
H1296  H     0.39966   0.90709   0.64811   0.00000  Uiso   1.00
H1297  H     0.38200   0.96605   0.62659   0.00000  Uiso   1.00
O1298  O     0.47570   0.74291   0.87919   0.00000  Uiso   1.00
C1299  C     0.52317   0.71254   0.88072   0.00000  Uiso   1.00
H1300  H     0.51318   0.67451   0.86354   0.00000  Uiso   1.00
H1301  H     0.52970   0.70525   0.91585   0.00000  Uiso   1.00
C1302  C     0.57869   0.73604   0.85671   0.00000  Uiso   1.00
H1303  H     0.57410   0.73669   0.82023   0.00000  Uiso   1.00
H1304  H     0.58813   0.77557   0.87072   0.00000  Uiso   1.00
C1305  C     0.63023   0.70633   0.86260   0.00000  Uiso   1.00
H1306  H     0.63837   0.70824   0.89867   0.00000  Uiso   1.00
H1307  H     0.33493   0.72421   0.84341   0.00000  Uiso   1.00
H1308  H     0.62342   0.99926   0.84979   0.00000  Uiso   1.00
N1309  N     0.57605   0.96220   0.95621   0.00000  Uiso   1.00
O1310  O     0.58077   0.67453   0.97614   0.00000  Uiso   1.00
O1311  O     0.61505   0.94926   0.92427   0.00000  Uiso   1.00
N1312  N     0.43003   0.70255   0.54422   0.00000  Uiso   1.00
O1313  O     0.38487   0.67696   0.53102   0.00000  Uiso   1.00
O1314  O     0.46099   0.68141   0.57066   0.00000  Uiso   1.00
N1315  N     0.57868   0.67046   0.72691   0.00000  Uiso   1.00
O1316  O     0.59053   0.68622   0.68642   0.00000  Uiso   1.00
O1317  O     0.61909   0.66777   0.75302   0.00000  Uiso   1.00
N1318  N     0.41861   0.99458   0.75527   0.00000  Uiso   1.00
O1319  O     0.39484   0.99225   0.79634   0.00000  Uiso   1.00
O1320  O     0.39202   0.97425   0.72169   0.00000  Uiso   1.00
N1321  N     0.34372   0.78835   0.70374   0.00000  Uiso   1.00
O1322  O     0.34202   0.79841   0.66196   0.00000  Uiso   1.00
O1323  O     0.35364   0.74202   0.71198   0.00000  Uiso   1.00
N1324  N     0.65734   0.86702   0.80281   0.00000  Uiso   1.00
O1325  O     0.33434   0.84803   0.84008   0.00000  Uiso   1.00
O1326  O     0.63623   0.91171   0.80491   0.00000  Uiso   1.00
O1327  O     0.79642   0.91286   0.75299   0.00000  Uiso   1.00
O1328  O     0.87025   0.75381   0.74702   0.00000  Uiso   1.00
O1329  O     0.89280   0.90387   0.74519   0.00000  Uiso   1.00
O1330  O     0.77387   0.76279   0.75482   0.00000  Uiso   1.00
C1331  C     0.84815   0.93115   0.74759   0.00000  Uiso   1.00
C1332  C     0.81831   0.73536   0.74932   0.00000  Uiso   1.00
O1333  O     0.78514   0.83784   0.81998   0.00000  Uiso   1.00
O1334  O     0.88153   0.82883   0.68003   0.00000  Uiso   1.00
O1335  O     0.88152   0.82885   0.81218   0.00000  Uiso   1.00
O1336  O     0.78515   0.83781   0.68783   0.00000  Uiso   1.00
C1337  C     0.83324   0.83380   0.83631   0.00000  Uiso   1.00
C1338  C     0.83359   0.83438   0.66371   0.00000  Uiso   1.00
Zn1339 Zn    0.76898   0.83933   0.75521   0.00000  Uiso   1.00
Zn1340 Zn    0.89769   0.82734   0.74479   0.00000  Uiso   1.00
C1341  C     0.80723   0.79377   0.59337   0.00000  Uiso   1.00
C1342  C     0.85074   0.87817   0.90751   0.00000  Uiso   1.00
C1343  C     0.83346   0.83555   0.61603   0.00000  Uiso   1.00
C1344  C     0.83261   0.83360   0.88401   0.00000  Uiso   1.00
C1345  C     0.85741   0.87837   0.59395   0.00000  Uiso   1.00
C1346  C     0.81644   0.78841   0.90533   0.00000  Uiso   1.00
C1347  C     0.85118   0.87995   0.54778   0.00000  Uiso   1.00
C1348  C     0.81025   0.79030   0.95256   0.00000  Uiso   1.00
C1349  C     0.82920   0.83571   0.52380   0.00000  Uiso   1.00
C1350  C     0.82977   0.83521   0.97686   0.00000  Uiso   1.00
C1351  C     0.80727   0.79193   0.54669   0.00000  Uiso   1.00
C1352  C     0.85231   0.87886   0.95396   0.00000  Uiso   1.00
C1353  C     0.86884   0.92400   0.52495   0.00000  Uiso   1.00
C1354  C     0.78627   0.74808   0.97562   0.00000  Uiso   1.00
C1355  C     0.87439   0.92251   0.97818   0.00000  Uiso   1.00
C1356  C     0.78508   0.74807   0.52242   0.00000  Uiso   1.00
H1357  H     0.78766   0.76273   0.61278   0.00000  Uiso   1.00
H1358  H     0.86335   0.91205   0.88915   0.00000  Uiso   1.00
H1359  H     0.88315   0.95875   0.54312   0.00000  Uiso   1.00
H1360  H     0.76973   0.71421   0.95711   0.00000  Uiso   1.00
C1361  C     0.85541   0.98454   0.74119   0.00000  Uiso   1.00
C1362  C     0.80985   0.68117   0.74742   0.00000  Uiso   1.00
N1363  N     0.98344   0.81932   0.73783   0.00000  Uiso   1.00
N1364  N     0.68322   0.84735   0.76217   0.00000  Uiso   1.00
O1365  O     0.88126   0.91976   0.61899   0.00000  Uiso   1.00
C1366  C     0.94000   0.92983   0.60453   0.00000  Uiso   1.00
H1367  H     0.94824   0.97199   0.60339   0.00000  Uiso   1.00
H1368  H     0.95396   0.91256   0.57035   0.00000  Uiso   1.00
C1369  C     0.97720   0.91020   0.63749   0.00000  Uiso   1.00
H1370  H     0.96494   0.92589   0.67230   0.00000  Uiso   1.00
H1371  H     0.96976   0.86830   0.63611   0.00000  Uiso   1.00
C1372  C     0.70698   0.92380   0.62450   0.00000  Uiso   1.00
H1373  H     0.72014   0.90821   0.58972   0.00000  Uiso   1.00
H1374  H     0.73300   0.90709   0.64811   0.00000  Uiso   1.00
H1375  H     0.71533   0.96605   0.62659   0.00000  Uiso   1.00
O1376  O     0.80904   0.74291   0.87919   0.00000  Uiso   1.00
C1377  C     0.85650   0.71254   0.88072   0.00000  Uiso   1.00
H1378  H     0.84652   0.67451   0.86354   0.00000  Uiso   1.00
H1379  H     0.86304   0.70525   0.91585   0.00000  Uiso   1.00
C1380  C     0.91203   0.73604   0.85671   0.00000  Uiso   1.00
H1381  H     0.90743   0.73669   0.82023   0.00000  Uiso   1.00
H1382  H     0.92146   0.77557   0.87072   0.00000  Uiso   1.00
C1383  C     0.96356   0.70633   0.86260   0.00000  Uiso   1.00
H1384  H     0.97171   0.70824   0.89867   0.00000  Uiso   1.00
H1385  H     0.66826   0.72421   0.84341   0.00000  Uiso   1.00
H1386  H     0.95676   0.99926   0.84979   0.00000  Uiso   1.00
N1387  N     0.90938   0.96220   0.95621   0.00000  Uiso   1.00
O1388  O     0.91411   0.67453   0.97614   0.00000  Uiso   1.00
O1389  O     0.94838   0.94926   0.92427   0.00000  Uiso   1.00
N1390  N     0.76336   0.70255   0.54422   0.00000  Uiso   1.00
O1391  O     0.71820   0.67696   0.53102   0.00000  Uiso   1.00
O1392  O     0.79432   0.68141   0.57066   0.00000  Uiso   1.00
N1393  N     0.91201   0.67046   0.72691   0.00000  Uiso   1.00
O1394  O     0.92386   0.68622   0.68642   0.00000  Uiso   1.00
O1395  O     0.95243   0.66777   0.75302   0.00000  Uiso   1.00
N1396  N     0.75194   0.99458   0.75527   0.00000  Uiso   1.00
O1397  O     0.72817   0.99225   0.79634   0.00000  Uiso   1.00
O1398  O     0.72535   0.97425   0.72169   0.00000  Uiso   1.00
N1399  N     0.67705   0.78835   0.70374   0.00000  Uiso   1.00
O1400  O     0.67535   0.79841   0.66196   0.00000  Uiso   1.00
O1401  O     0.68697   0.74202   0.71198   0.00000  Uiso   1.00
N1402  N     0.99068   0.86702   0.80281   0.00000  Uiso   1.00
O1403  O     0.66767   0.84803   0.84008   0.00000  Uiso   1.00
O1404  O     0.96957   0.91171   0.80491   0.00000  Uiso   1.00
loop_
_geom_bond_atom_site_label_1
_geom_bond_atom_site_label_2
_geom_bond_distance
_geom_bond_site_symmetry_2
_ccdc_geom_bond_type
O1     C5      1.281   .     A
O1     Zn13    1.995   .     S
O2     C6      1.284   .     A
O2     Zn14    1.995   .     S
O3     Zn14    2.016   .     S
O3     C5      1.305   .     A
O4     Zn13    2.016   .     S
O4     C6      1.301   .     A
C5     C35     1.422   .     S
C6     C36     1.419   .     S
O7     C11     1.293   .     A
O7     Zn13    2.010   .     S
O8     C12     1.296   .     A
O8     Zn14    2.010   .     S
O9     Zn14    2.007   .     S
O9     C11     1.295   .     A
O10    C12     1.293   .     A
O10    Zn13    2.007   .     S
C11    C18     1.422   .     S
C12    C17     1.425   .     S
Zn13   N38     2.037   .     S
Zn14   N37     2.037   .     S
C15    C25     1.390   .     A
C15    C17     1.390   .     A
C15    H31     1.082   .     S
C16    C26     1.389   .     A
C16    H32     1.084   .     S
C16    C18     1.386   .     A
C17    C19     1.398   .     A
C18    C20     1.395   .     A
C19    O39     1.394   .     S
C19    C21     1.404   .     A
C20    O50     1.390   .     S
C20    C22     1.400   .     A
C21    C27     1.399   .     A
C21    C23     1.416   .     A
C22    C28     1.400   .     A
C22    C24     1.415   .     A
C23    C25     1.417   .     A
C23    C726    1.398   1_554 S
C24    C26     1.418   .     A
C24    C725    1.398   .     S
C25    C30     1.415   .     A
C26    C29     1.409   .     A
C27    H33     1.080   .     S
C27    C731    1.387   1_554 S
C28    H34     1.084   .     S
C28    C732    1.394   .     S
C29    N61     1.437   .     S
C29    C729    1.387   .     S
C30    N64     1.437   .     S
C30    C730    1.394   1_554 S
C35    C270    1.364   .     S
C35    N301    1.431   .     S
C36    C503    1.364   1_545 S
C36    N538    1.433   1_545 S
N37    N116    1.282   .     S
N37    N151    1.387   .     S
N38    N193    1.282   1_455 S
N38    N232    1.385   1_455 S
O39    C40     1.423   .     S
C40    C43     1.518   .     S
C40    H42     1.115   .     S
C40    H41     1.111   .     S
C43    H44     1.109   .     S
C43    H45     1.099   .     S
C43    C124    1.526   .     S
C46    H49     1.110   .     S
C46    H47     1.111   .     S
C46    H48     1.108   .     S
C46    C199    1.526   1_455 S
O50    C51     1.423   .     S
C51    H52     1.111   .     S
C51    C54     1.541   .     S
C51    H53     1.106   .     S
C54    H56     1.107   .     S
C54    H55     1.106   .     S
C54    C57     1.518   .     S
C57    H58     1.109   .     S
C57    H137    1.110   .     S
C57    H528    1.108   1_545 S
H59    C213    1.110   1_455 S
H60    C291    1.108   .     S
N61    O63     1.301   .     A
N61    O296    1.302   .     S
O62    N529    1.302   1_545 S
N64    O66     1.301   .     A
N64    O65     1.301   .     A
N67    O68     1.301   .     A
N67    O69     1.299   .     A
N67    C503    1.431   1_545 S
N70    O71     1.299   .     A
N70    O72     1.300   .     A
N70    C270    1.433   .     S
N73    O74     1.297   .     A
N73    O75     1.296   .     A
N73    N193    1.387   1_455 S
N76    O78     1.298   .     A
N76    N116    1.385   .     S
N76    O155    1.300   .     S
O77    N232    1.300   1_455 S
O79    C83     1.281   .     A
O79    Zn91    1.995   .     S
O80    C84     1.284   .     A
O80    Zn92    1.995   .     S
O81    Zn92    2.016   .     S
O81    C83     1.305   .     A
O82    Zn91    2.016   .     S
O82    C84     1.301   .     A
C83    C113    1.422   .     S
C84    C114    1.419   .     S
O85    C89     1.293   .     A
O85    Zn91    2.010   .     S
O86    C90     1.296   .     A
O86    Zn92    2.010   .     S
O87    Zn92    2.007   .     S
O87    C89     1.295   .     A
O88    C90     1.293   .     A
O88    Zn91    2.007   .     S
C89    C96     1.422   .     S
C90    C95     1.425   .     S
Zn91   N116    2.037   .     S
Zn92   N115    2.037   .     S
C93    C103    1.390   .     A
C93    C95     1.390   .     A
C93    H109    1.082   .     S
C94    C104    1.389   .     A
C94    H110    1.084   .     S
C94    C96     1.386   .     A
C95    C97     1.398   .     A
C96    C98     1.395   .     A
C97    O117    1.394   .     S
C97    C99     1.404   .     A
C98    O128    1.390   .     S
C98    C100    1.400   .     A
C99    C105    1.399   .     A
C99    C101    1.416   .     A
C100   C106    1.400   .     A
C100   C102    1.415   .     A
C101   C103    1.417   .     A
C101   C804    1.398   1_554 S
C102   C104    1.418   .     A
C102   C803    1.398   .     S
C103   C108    1.415   .     A
C104   C107    1.409   .     A
C105   H111    1.080   .     S
C105   C809    1.387   1_554 S
C106   H112    1.084   .     S
C106   C810    1.394   .     S
C107   N139    1.437   .     S
C107   C807    1.387   .     S
C108   N142    1.437   .     S
C108   C808    1.394   1_554 S
C113   C348    1.364   .     S
C113   N379    1.431   .     S
C114   C581    1.364   1_545 S
C114   N616    1.433   1_545 S
N115   N194    1.282   .     S
N115   N229    1.387   .     S
O117   C118    1.423   .     S
C118   C121    1.518   .     S
C118   H120    1.115   .     S
C118   H119    1.111   .     S
C121   H122    1.109   .     S
C121   H123    1.099   .     S
C121   C202    1.526   .     S
C124   H127    1.110   .     S
C124   H125    1.111   .     S
C124   H126    1.108   .     S
O128   C129    1.423   .     S
C129   H130    1.111   .     S
C129   C132    1.541   .     S
C129   H131    1.106   .     S
C132   H134    1.107   .     S
C132   H133    1.106   .     S
C132   C135    1.518   .     S
C135   H136    1.109   .     S
C135   H215    1.110   .     S
C135   H606    1.108   1_545 S
H138   C369    1.108   .     S
N139   O141    1.301   .     A
N139   O374    1.302   .     S
O140   N607    1.302   1_545 S
N142   O144    1.301   .     A
N142   O143    1.301   .     A
N145   O146    1.301   .     A
N145   O147    1.299   .     A
N145   C581    1.431   1_545 S
N148   O149    1.299   .     A
N148   O150    1.300   .     A
N148   C348    1.433   .     S
N151   O152    1.297   .     A
N151   O153    1.296   .     A
N154   O156    1.298   .     A
N154   N194    1.385   .     S
N154   O233    1.300   .     S
O157   C161    1.281   .     A
O157   Zn169   1.995   .     S
O158   C162    1.284   .     A
O158   Zn170   1.995   .     S
O159   Zn170   2.016   .     S
O159   C161    1.305   .     A
O160   Zn169   2.016   .     S
O160   C162    1.301   .     A
C161   C191    1.422   .     S
C162   C192    1.419   .     S
O163   C167    1.293   .     A
O163   Zn169   2.010   .     S
O164   C168    1.296   .     A
O164   Zn170   2.010   .     S
O165   Zn170   2.007   .     S
O165   C167    1.295   .     A
O166   C168    1.293   .     A
O166   Zn169   2.007   .     S
C167   C174    1.422   .     S
C168   C173    1.425   .     S
Zn169  N194    2.037   .     S
Zn170  N193    2.037   .     S
C171   C181    1.390   .     A
C171   C173    1.390   .     A
C171   H187    1.082   .     S
C172   C182    1.389   .     A
C172   H188    1.084   .     S
C172   C174    1.386   .     A
C173   C175    1.398   .     A
C174   C176    1.395   .     A
C175   O195    1.394   .     S
C175   C177    1.404   .     A
C176   O206    1.390   .     S
C176   C178    1.400   .     A
C177   C183    1.399   .     A
C177   C179    1.416   .     A
C178   C184    1.400   .     A
C178   C180    1.415   .     A
C179   C181    1.417   .     A
C179   C882    1.398   1_554 S
C180   C182    1.418   .     A
C180   C881    1.398   .     S
C181   C186    1.415   .     A
C182   C185    1.409   .     A
C183   H189    1.080   .     S
C183   C887    1.387   1_554 S
C184   H190    1.084   .     S
C184   C888    1.394   .     S
C185   N217    1.437   .     S
C185   C885    1.387   .     S
C186   N220    1.437   .     S
C186   C886    1.394   1_554 S
C191   C426    1.364   .     S
C191   N457    1.431   .     S
C192   C659    1.364   1_545 S
C192   N694    1.433   1_545 S
N193   N38     1.282   1_655 S
N193   N73     1.387   1_655 S
O195   C196    1.423   .     S
C196   C199    1.518   .     S
C196   H198    1.115   .     S
C196   H197    1.111   .     S
C199   H200    1.109   .     S
C199   H201    1.099   .     S
C199   C46     1.526   1_655 S
C202   H205    1.110   .     S
C202   H203    1.111   .     S
C202   H204    1.108   .     S
O206   C207    1.423   .     S
C207   H208    1.111   .     S
C207   C210    1.541   .     S
C207   H209    1.106   .     S
C210   H212    1.107   .     S
C210   H211    1.106   .     S
C210   C213    1.518   .     S
C213   H214    1.109   .     S
C213   H59     1.110   1_655 S
C213   H684    1.108   1_545 S
H216   C447    1.108   .     S
N217   O219    1.301   .     A
N217   O452    1.302   .     S
O218   N685    1.302   1_545 S
N220   O222    1.301   .     A
N220   O221    1.301   .     A
N223   O224    1.301   .     A
N223   O225    1.299   .     A
N223   C659    1.431   1_545 S
N226   O227    1.299   .     A
N226   O228    1.300   .     A
N226   C426    1.433   .     S
N229   O230    1.297   .     A
N229   O231    1.296   .     A
N232   O234    1.298   .     A
N232   N38     1.385   1_655 S
N232   O77     1.300   1_655 S
O235   C239    1.281   .     A
O235   Zn247   1.995   .     S
O236   C240    1.284   .     A
O236   Zn248   1.995   .     S
O237   Zn248   2.016   .     S
O237   C239    1.305   .     A
O238   Zn247   2.016   .     S
O238   C240    1.301   .     A
C239   C269    1.422   .     S
C240   C270    1.419   .     S
O241   C245    1.293   .     A
O241   Zn247   2.010   .     S
O242   C246    1.296   .     A
O242   Zn248   2.010   .     S
O243   Zn248   2.007   .     S
O243   C245    1.295   .     A
O244   C246    1.293   .     A
O244   Zn247   2.007   .     S
C245   C252    1.422   .     S
C246   C251    1.425   .     S
Zn247  N272    2.037   .     S
Zn248  N271    2.037   .     S
C249   C259    1.390   .     A
C249   C251    1.390   .     A
C249   H265    1.082   .     S
C250   C260    1.389   .     A
C250   H266    1.084   .     S
C250   C252    1.386   .     A
C251   C253    1.398   .     A
C252   C254    1.395   .     A
C253   O273    1.394   .     S
C253   C255    1.404   .     A
C254   O284    1.390   .     S
C254   C256    1.400   .     A
C255   C261    1.399   .     A
C255   C257    1.416   .     A
C256   C262    1.400   .     A
C256   C258    1.415   .     A
C257   C259    1.417   .     A
C257   C960    1.398   1_554 S
C258   C260    1.418   .     A
C258   C959    1.398   .     S
C259   C264    1.415   .     A
C260   C263    1.409   .     A
C261   H267    1.080   .     S
C261   C965    1.387   1_554 S
C262   H268    1.084   .     S
C262   C966    1.394   .     S
C263   N295    1.437   .     S
C263   C963    1.387   .     S
C264   N298    1.437   .     S
C264   C964    1.394   1_554 S
C269   C504    1.364   .     S
C269   N535    1.431   .     S
N271   N350    1.282   .     S
N271   N385    1.387   .     S
N272   N427    1.282   1_455 S
N272   N466    1.385   1_455 S
O273   C274    1.423   .     S
C274   C277    1.518   .     S
C274   H276    1.115   .     S
C274   H275    1.111   .     S
C277   H278    1.109   .     S
C277   H279    1.099   .     S
C277   C358    1.526   .     S
C280   H283    1.110   .     S
C280   H281    1.111   .     S
C280   H282    1.108   .     S
C280   C433    1.526   1_455 S
O284   C285    1.423   .     S
C285   H286    1.111   .     S
C285   C288    1.541   .     S
C285   H287    1.106   .     S
C288   H290    1.107   .     S
C288   H289    1.106   .     S
C288   C291    1.518   .     S
C291   H292    1.109   .     S
C291   H371    1.110   .     S
H293   C447    1.110   1_455 S
H294   C525    1.108   .     S
N295   O297    1.301   .     A
N295   O530    1.302   .     S
N298   O300    1.301   .     A
N298   O299    1.301   .     A
N301   O302    1.301   .     A
N301   O303    1.299   .     A
N304   O305    1.299   .     A
N304   O306    1.300   .     A
N304   C504    1.433   .     S
N307   O308    1.297   .     A
N307   O309    1.296   .     A
N307   N427    1.387   1_455 S
N310   O312    1.298   .     A
N310   N350    1.385   .     S
N310   O389    1.300   .     S
O311   N466    1.300   1_455 S
O313   C317    1.281   .     A
O313   Zn325   1.995   .     S
O314   C318    1.284   .     A
O314   Zn326   1.995   .     S
O315   Zn326   2.016   .     S
O315   C317    1.305   .     A
O316   Zn325   2.016   .     S
O316   C318    1.301   .     A
C317   C347    1.422   .     S
C318   C348    1.419   .     S
O319   C323    1.293   .     A
O319   Zn325   2.010   .     S
O320   C324    1.296   .     A
O320   Zn326   2.010   .     S
O321   Zn326   2.007   .     S
O321   C323    1.295   .     A
O322   C324    1.293   .     A
O322   Zn325   2.007   .     S
C323   C330    1.422   .     S
C324   C329    1.425   .     S
Zn325  N350    2.037   .     S
Zn326  N349    2.037   .     S
C327   C337    1.390   .     A
C327   C329    1.390   .     A
C327   H343    1.082   .     S
C328   C338    1.389   .     A
C328   H344    1.084   .     S
C328   C330    1.386   .     A
C329   C331    1.398   .     A
C330   C332    1.395   .     A
C331   O351    1.394   .     S
C331   C333    1.404   .     A
C332   O362    1.390   .     S
C332   C334    1.400   .     A
C333   C339    1.399   .     A
C333   C335    1.416   .     A
C334   C340    1.400   .     A
C334   C336    1.415   .     A
C335   C337    1.417   .     A
C335   C1038   1.398   1_554 S
C336   C338    1.418   .     A
C336   C1037   1.398   .     S
C337   C342    1.415   .     A
C338   C341    1.409   .     A
C339   H345    1.080   .     S
C339   C1043   1.387   1_554 S
C340   H346    1.084   .     S
C340   C1044   1.394   .     S
C341   N373    1.437   .     S
C341   C1041   1.387   .     S
C342   N376    1.437   .     S
C342   C1042   1.394   1_554 S
C347   C582    1.364   .     S
C347   N613    1.431   .     S
N349   N428    1.282   .     S
N349   N463    1.387   .     S
O351   C352    1.423   .     S
C352   C355    1.518   .     S
C352   H354    1.115   .     S
C352   H353    1.111   .     S
C355   H356    1.109   .     S
C355   H357    1.099   .     S
C355   C436    1.526   .     S
C358   H361    1.110   .     S
C358   H359    1.111   .     S
C358   H360    1.108   .     S
O362   C363    1.423   .     S
C363   H364    1.111   .     S
C363   C366    1.541   .     S
C363   H365    1.106   .     S
C366   H368    1.107   .     S
C366   H367    1.106   .     S
C366   C369    1.518   .     S
C369   H370    1.109   .     S
C369   H449    1.110   .     S
H372   C603    1.108   .     S
N373   O375    1.301   .     A
N373   O608    1.302   .     S
N376   O378    1.301   .     A
N376   O377    1.301   .     A
N379   O380    1.301   .     A
N379   O381    1.299   .     A
N382   O383    1.299   .     A
N382   O384    1.300   .     A
N382   C582    1.433   .     S
N385   O386    1.297   .     A
N385   O387    1.296   .     A
N388   O390    1.298   .     A
N388   N428    1.385   .     S
N388   O467    1.300   .     S
O391   C395    1.281   .     A
O391   Zn403   1.995   .     S
O392   C396    1.284   .     A
O392   Zn404   1.995   .     S
O393   Zn404   2.016   .     S
O393   C395    1.305   .     A
O394   Zn403   2.016   .     S
O394   C396    1.301   .     A
C395   C425    1.422   .     S
C396   C426    1.419   .     S
O397   C401    1.293   .     A
O397   Zn403   2.010   .     S
O398   C402    1.296   .     A
O398   Zn404   2.010   .     S
O399   Zn404   2.007   .     S
O399   C401    1.295   .     A
O400   C402    1.293   .     A
O400   Zn403   2.007   .     S
C401   C408    1.422   .     S
C402   C407    1.425   .     S
Zn403  N428    2.037   .     S
Zn404  N427    2.037   .     S
C405   C415    1.390   .     A
C405   C407    1.390   .     A
C405   H421    1.082   .     S
C406   C416    1.389   .     A
C406   H422    1.084   .     S
C406   C408    1.386   .     A
C407   C409    1.398   .     A
C408   C410    1.395   .     A
C409   O429    1.394   .     S
C409   C411    1.404   .     A
C410   O440    1.390   .     S
C410   C412    1.400   .     A
C411   C417    1.399   .     A
C411   C413    1.416   .     A
C412   C418    1.400   .     A
C412   C414    1.415   .     A
C413   C415    1.417   .     A
C413   C1116   1.398   1_554 S
C414   C416    1.418   .     A
C414   C1115   1.398   .     S
C415   C420    1.415   .     A
C416   C419    1.409   .     A
C417   H423    1.080   .     S
C417   C1121   1.387   1_554 S
C418   H424    1.084   .     S
C418   C1122   1.394   .     S
C419   N451    1.437   .     S
C419   C1119   1.387   .     S
C420   N454    1.437   .     S
C420   C1120   1.394   1_554 S
C425   C660    1.364   .     S
C425   N691    1.431   .     S
N427   N272    1.282   1_655 S
N427   N307    1.387   1_655 S
O429   C430    1.423   .     S
C430   C433    1.518   .     S
C430   H432    1.115   .     S
C430   H431    1.111   .     S
C433   H434    1.109   .     S
C433   H435    1.099   .     S
C433   C280    1.526   1_655 S
C436   H439    1.110   .     S
C436   H437    1.111   .     S
C436   H438    1.108   .     S
O440   C441    1.423   .     S
C441   H442    1.111   .     S
C441   C444    1.541   .     S
C441   H443    1.106   .     S
C444   H446    1.107   .     S
C444   H445    1.106   .     S
C444   C447    1.518   .     S
C447   H448    1.109   .     S
C447   H293    1.110   1_655 S
H450   C681    1.108   .     S
N451   O453    1.301   .     A
N451   O686    1.302   .     S
N454   O456    1.301   .     A
N454   O455    1.301   .     A
N457   O458    1.301   .     A
N457   O459    1.299   .     A
N460   O461    1.299   .     A
N460   O462    1.300   .     A
N460   C660    1.433   .     S
N463   O464    1.297   .     A
N463   O465    1.296   .     A
N466   O468    1.298   .     A
N466   N272    1.385   1_655 S
N466   O311    1.300   1_655 S
O469   C473    1.281   .     A
O469   Zn481   1.995   .     S
O470   C474    1.284   .     A
O470   Zn482   1.995   .     S
O471   Zn482   2.016   .     S
O471   C473    1.305   .     A
O472   Zn481   2.016   .     S
O472   C474    1.301   .     A
C473   C503    1.422   .     S
C474   C504    1.419   .     S
O475   C479    1.293   .     A
O475   Zn481   2.010   .     S
O476   C480    1.296   .     A
O476   Zn482   2.010   .     S
O477   Zn482   2.007   .     S
O477   C479    1.295   .     A
O478   C480    1.293   .     A
O478   Zn481   2.007   .     S
C479   C486    1.422   .     S
C480   C485    1.425   .     S
Zn481  N506    2.037   .     S
Zn482  N505    2.037   .     S
C483   C493    1.390   .     A
C483   C485    1.390   .     A
C483   H499    1.082   .     S
C484   C494    1.389   .     A
C484   H500    1.084   .     S
C484   C486    1.386   .     A
C485   C487    1.398   .     A
C486   C488    1.395   .     A
C487   O507    1.394   .     S
C487   C489    1.404   .     A
C488   O518    1.390   .     S
C488   C490    1.400   .     A
C489   C495    1.399   .     A
C489   C491    1.416   .     A
C490   C496    1.400   .     A
C490   C492    1.415   .     A
C491   C493    1.417   .     A
C491   C1194   1.398   1_554 S
C492   C494    1.418   .     A
C492   C1193   1.398   .     S
C493   C498    1.415   .     A
C494   C497    1.409   .     A
C495   H501    1.080   .     S
C495   C1199   1.387   1_554 S
C496   H502    1.084   .     S
C496   C1200   1.394   .     S
C497   N529    1.437   .     S
C497   C1197   1.387   .     S
C498   N532    1.437   .     S
C498   C1198   1.394   1_554 S
C503   C36     1.364   1_565 S
C503   N67     1.431   1_565 S
N505   N584    1.282   .     S
N505   N619    1.387   .     S
N506   N661    1.282   1_455 S
N506   N700    1.385   1_455 S
O507   C508    1.423   .     S
C508   C511    1.518   .     S
C508   H510    1.115   .     S
C508   H509    1.111   .     S
C511   H512    1.109   .     S
C511   H513    1.099   .     S
C511   C592    1.526   .     S
C514   H517    1.110   .     S
C514   H515    1.111   .     S
C514   H516    1.108   .     S
C514   C667    1.526   1_455 S
O518   C519    1.423   .     S
C519   H520    1.111   .     S
C519   C522    1.541   .     S
C519   H521    1.106   .     S
C522   H524    1.107   .     S
C522   H523    1.106   .     S
C522   C525    1.518   .     S
C525   H526    1.109   .     S
C525   H605    1.110   .     S
H527   C681    1.110   1_455 S
H528   C57     1.108   1_565 S
N529   O531    1.301   .     A
N529   O62     1.302   1_565 S
N532   O534    1.301   .     A
N532   O533    1.301   .     A
N535   O536    1.301   .     A
N535   O537    1.299   .     A
N538   O539    1.299   .     A
N538   O540    1.300   .     A
N538   C36     1.433   1_565 S
N541   O542    1.297   .     A
N541   O543    1.296   .     A
N541   N661    1.387   1_455 S
N544   O546    1.298   .     A
N544   N584    1.385   .     S
N544   O623    1.300   .     S
O545   N700    1.300   1_455 S
O547   C551    1.281   .     A
O547   Zn559   1.995   .     S
O548   C552    1.284   .     A
O548   Zn560   1.995   .     S
O549   Zn560   2.016   .     S
O549   C551    1.305   .     A
O550   Zn559   2.016   .     S
O550   C552    1.301   .     A
C551   C581    1.422   .     S
C552   C582    1.419   .     S
O553   C557    1.293   .     A
O553   Zn559   2.010   .     S
O554   C558    1.296   .     A
O554   Zn560   2.010   .     S
O555   Zn560   2.007   .     S
O555   C557    1.295   .     A
O556   C558    1.293   .     A
O556   Zn559   2.007   .     S
C557   C564    1.422   .     S
C558   C563    1.425   .     S
Zn559  N584    2.037   .     S
Zn560  N583    2.037   .     S
C561   C571    1.390   .     A
C561   C563    1.390   .     A
C561   H577    1.082   .     S
C562   C572    1.389   .     A
C562   H578    1.084   .     S
C562   C564    1.386   .     A
C563   C565    1.398   .     A
C564   C566    1.395   .     A
C565   O585    1.394   .     S
C565   C567    1.404   .     A
C566   O596    1.390   .     S
C566   C568    1.400   .     A
C567   C573    1.399   .     A
C567   C569    1.416   .     A
C568   C574    1.400   .     A
C568   C570    1.415   .     A
C569   C571    1.417   .     A
C569   C1272   1.398   1_554 S
C570   C572    1.418   .     A
C570   C1271   1.398   .     S
C571   C576    1.415   .     A
C572   C575    1.409   .     A
C573   H579    1.080   .     S
C573   C1277   1.387   1_554 S
C574   H580    1.084   .     S
C574   C1278   1.394   .     S
C575   N607    1.437   .     S
C575   C1275   1.387   .     S
C576   N610    1.437   .     S
C576   C1276   1.394   1_554 S
C581   C114    1.364   1_565 S
C581   N145    1.431   1_565 S
N583   N662    1.282   .     S
N583   N697    1.387   .     S
O585   C586    1.423   .     S
C586   C589    1.518   .     S
C586   H588    1.115   .     S
C586   H587    1.111   .     S
C589   H590    1.109   .     S
C589   H591    1.099   .     S
C589   C670    1.526   .     S
C592   H595    1.110   .     S
C592   H593    1.111   .     S
C592   H594    1.108   .     S
O596   C597    1.423   .     S
C597   H598    1.111   .     S
C597   C600    1.541   .     S
C597   H599    1.106   .     S
C600   H602    1.107   .     S
C600   H601    1.106   .     S
C600   C603    1.518   .     S
C603   H604    1.109   .     S
C603   H683    1.110   .     S
H606   C135    1.108   1_565 S
N607   O609    1.301   .     A
N607   O140    1.302   1_565 S
N610   O612    1.301   .     A
N610   O611    1.301   .     A
N613   O614    1.301   .     A
N613   O615    1.299   .     A
N616   O617    1.299   .     A
N616   O618    1.300   .     A
N616   C114    1.433   1_565 S
N619   O620    1.297   .     A
N619   O621    1.296   .     A
N622   O624    1.298   .     A
N622   N662    1.385   .     S
N622   O701    1.300   .     S
O625   C629    1.281   .     A
O625   Zn637   1.995   .     S
O626   C630    1.284   .     A
O626   Zn638   1.995   .     S
O627   Zn638   2.016   .     S
O627   C629    1.305   .     A
O628   Zn637   2.016   .     S
O628   C630    1.301   .     A
C629   C659    1.422   .     S
C630   C660    1.419   .     S
O631   C635    1.293   .     A
O631   Zn637   2.010   .     S
O632   C636    1.296   .     A
O632   Zn638   2.010   .     S
O633   Zn638   2.007   .     S
O633   C635    1.295   .     A
O634   C636    1.293   .     A
O634   Zn637   2.007   .     S
C635   C642    1.422   .     S
C636   C641    1.425   .     S
Zn637  N662    2.037   .     S
Zn638  N661    2.037   .     S
C639   C649    1.390   .     A
C639   C641    1.390   .     A
C639   H655    1.082   .     S
C640   C650    1.389   .     A
C640   H656    1.084   .     S
C640   C642    1.386   .     A
C641   C643    1.398   .     A
C642   C644    1.395   .     A
C643   O663    1.394   .     S
C643   C645    1.404   .     A
C644   O674    1.390   .     S
C644   C646    1.400   .     A
C645   C651    1.399   .     A
C645   C647    1.416   .     A
C646   C652    1.400   .     A
C646   C648    1.415   .     A
C647   C649    1.417   .     A
C647   C1350   1.398   1_554 S
C648   C650    1.418   .     A
C648   C1349   1.398   .     S
C649   C654    1.415   .     A
C650   C653    1.409   .     A
C651   H657    1.080   .     S
C651   C1355   1.387   1_554 S
C652   H658    1.084   .     S
C652   C1356   1.394   .     S
C653   N685    1.437   .     S
C653   C1353   1.387   .     S
C654   N688    1.437   .     S
C654   C1354   1.394   1_554 S
C659   C192    1.364   1_565 S
C659   N223    1.431   1_565 S
N661   N506    1.282   1_655 S
N661   N541    1.387   1_655 S
O663   C664    1.423   .     S
C664   C667    1.518   .     S
C664   H666    1.115   .     S
C664   H665    1.111   .     S
C667   H668    1.109   .     S
C667   H669    1.099   .     S
C667   C514    1.526   1_655 S
C670   H673    1.110   .     S
C670   H671    1.111   .     S
C670   H672    1.108   .     S
O674   C675    1.423   .     S
C675   H676    1.111   .     S
C675   C678    1.541   .     S
C675   H677    1.106   .     S
C678   H680    1.107   .     S
C678   H679    1.106   .     S
C678   C681    1.518   .     S
C681   H682    1.109   .     S
C681   H527    1.110   1_655 S
H684   C213    1.108   1_565 S
N685   O687    1.301   .     A
N685   O218    1.302   1_565 S
N688   O690    1.301   .     A
N688   O689    1.301   .     A
N691   O692    1.301   .     A
N691   O693    1.299   .     A
N694   O695    1.299   .     A
N694   O696    1.300   .     A
N694   C192    1.433   1_565 S
N697   O698    1.297   .     A
N697   O699    1.296   .     A
N700   O702    1.298   .     A
N700   N506    1.385   1_655 S
N700   O545    1.300   1_655 S
O703   C707    1.281   .     A
O703   Zn715   1.995   .     S
O704   C708    1.284   .     A
O704   Zn716   1.995   .     S
O705   Zn716   2.016   .     S
O705   C707    1.305   .     A
O706   Zn715   2.016   .     S
O706   C708    1.301   .     A
C707   C737    1.422   .     S
C708   C738    1.419   .     S
O709   C713    1.293   .     A
O709   Zn715   2.010   .     S
O710   C714    1.296   .     A
O710   Zn716   2.010   .     S
O711   Zn716   2.007   .     S
O711   C713    1.295   .     A
O712   C714    1.293   .     A
O712   Zn715   2.007   .     S
C713   C720    1.422   .     S
C714   C719    1.425   .     S
Zn715  N740    2.037   .     S
Zn716  N739    2.037   .     S
C717   C727    1.390   .     A
C717   C719    1.390   .     A
C717   H733    1.082   .     S
C718   C728    1.389   .     A
C718   H734    1.084   .     S
C718   C720    1.386   .     A
C719   C721    1.398   .     A
C720   C722    1.395   .     A
C721   O741    1.394   .     S
C721   C723    1.404   .     A
C722   O752    1.390   .     S
C722   C724    1.400   .     A
C723   C729    1.399   .     A
C723   C725    1.416   .     A
C724   C730    1.400   .     A
C724   C726    1.415   .     A
C725   C727    1.417   .     A
C726   C728    1.418   .     A
C726   C23     1.398   1_556 S
C727   C732    1.415   .     A
C728   C731    1.409   .     A
C729   H735    1.080   .     S
C730   H736    1.084   .     S
C730   C30     1.394   1_556 S
C731   N763    1.437   .     S
C731   C27     1.387   1_556 S
C732   N766    1.437   .     S
C737   C972    1.364   .     S
C737   N1003   1.431   .     S
C738   C1205   1.364   1_545 S
C738   N1240   1.433   1_545 S
N739   N818    1.282   .     S
N739   N853    1.387   .     S
N740   N895    1.282   1_455 S
N740   N934    1.385   1_455 S
O741   C742    1.423   .     S
C742   C745    1.518   .     S
C742   H744    1.115   .     S
C742   H743    1.111   .     S
C745   H746    1.109   .     S
C745   H747    1.099   .     S
C745   C826    1.526   .     S
C748   H751    1.110   .     S
C748   H749    1.111   .     S
C748   H750    1.108   .     S
C748   C901    1.526   1_455 S
O752   C753    1.423   .     S
C753   H754    1.111   .     S
C753   C756    1.541   .     S
C753   H755    1.106   .     S
C756   H758    1.107   .     S
C756   H757    1.106   .     S
C756   C759    1.518   .     S
C759   H760    1.109   .     S
C759   H839    1.110   .     S
C759   H1230   1.108   1_545 S
H761   C915    1.110   1_455 S
H762   C993    1.108   .     S
N763   O765    1.301   .     A
N763   O998    1.302   .     S
O764   N1231   1.302   1_545 S
N766   O768    1.301   .     A
N766   O767    1.301   .     A
N769   O770    1.301   .     A
N769   O771    1.299   .     A
N769   C1205   1.431   1_545 S
N772   O773    1.299   .     A
N772   O774    1.300   .     A
N772   C972    1.433   .     S
N775   O776    1.297   .     A
N775   O777    1.296   .     A
N775   N895    1.387   1_455 S
N778   O780    1.298   .     A
N778   N818    1.385   .     S
N778   O857    1.300   .     S
O779   N934    1.300   1_455 S
O781   C785    1.281   .     A
O781   Zn793   1.995   .     S
O782   C786    1.284   .     A
O782   Zn794   1.995   .     S
O783   Zn794   2.016   .     S
O783   C785    1.305   .     A
O784   Zn793   2.016   .     S
O784   C786    1.301   .     A
C785   C815    1.422   .     S
C786   C816    1.419   .     S
O787   C791    1.293   .     A
O787   Zn793   2.010   .     S
O788   C792    1.296   .     A
O788   Zn794   2.010   .     S
O789   Zn794   2.007   .     S
O789   C791    1.295   .     A
O790   C792    1.293   .     A
O790   Zn793   2.007   .     S
C791   C798    1.422   .     S
C792   C797    1.425   .     S
Zn793  N818    2.037   .     S
Zn794  N817    2.037   .     S
C795   C805    1.390   .     A
C795   C797    1.390   .     A
C795   H811    1.082   .     S
C796   C806    1.389   .     A
C796   H812    1.084   .     S
C796   C798    1.386   .     A
C797   C799    1.398   .     A
C798   C800    1.395   .     A
C799   O819    1.394   .     S
C799   C801    1.404   .     A
C800   O830    1.390   .     S
C800   C802    1.400   .     A
C801   C807    1.399   .     A
C801   C803    1.416   .     A
C802   C808    1.400   .     A
C802   C804    1.415   .     A
C803   C805    1.417   .     A
C804   C806    1.418   .     A
C804   C101    1.398   1_556 S
C805   C810    1.415   .     A
C806   C809    1.409   .     A
C807   H813    1.080   .     S
C808   H814    1.084   .     S
C808   C108    1.394   1_556 S
C809   N841    1.437   .     S
C809   C105    1.387   1_556 S
C810   N844    1.437   .     S
C815   C1050   1.364   .     S
C815   N1081   1.431   .     S
C816   C1283   1.364   1_545 S
C816   N1318   1.433   1_545 S
N817   N896    1.282   .     S
N817   N931    1.387   .     S
O819   C820    1.423   .     S
C820   C823    1.518   .     S
C820   H822    1.115   .     S
C820   H821    1.111   .     S
C823   H824    1.109   .     S
C823   H825    1.099   .     S
C823   C904    1.526   .     S
C826   H829    1.110   .     S
C826   H827    1.111   .     S
C826   H828    1.108   .     S
O830   C831    1.423   .     S
C831   H832    1.111   .     S
C831   C834    1.541   .     S
C831   H833    1.106   .     S
C834   H836    1.107   .     S
C834   H835    1.106   .     S
C834   C837    1.518   .     S
C837   H838    1.109   .     S
C837   H917    1.110   .     S
C837   H1308   1.108   1_545 S
H840   C1071   1.108   .     S
N841   O843    1.301   .     A
N841   O1076   1.302   .     S
O842   N1309   1.302   1_545 S
N844   O846    1.301   .     A
N844   O845    1.301   .     A
N847   O848    1.301   .     A
N847   O849    1.299   .     A
N847   C1283   1.431   1_545 S
N850   O851    1.299   .     A
N850   O852    1.300   .     A
N850   C1050   1.433   .     S
N853   O854    1.297   .     A
N853   O855    1.296   .     A
N856   O858    1.298   .     A
N856   N896    1.385   .     S
N856   O935    1.300   .     S
O859   C863    1.281   .     A
O859   Zn871   1.995   .     S
O860   C864    1.284   .     A
O860   Zn872   1.995   .     S
O861   Zn872   2.016   .     S
O861   C863    1.305   .     A
O862   Zn871   2.016   .     S
O862   C864    1.301   .     A
C863   C893    1.422   .     S
C864   C894    1.419   .     S
O865   C869    1.293   .     A
O865   Zn871   2.010   .     S
O866   C870    1.296   .     A
O866   Zn872   2.010   .     S
O867   Zn872   2.007   .     S
O867   C869    1.295   .     A
O868   C870    1.293   .     A
O868   Zn871   2.007   .     S
C869   C876    1.422   .     S
C870   C875    1.425   .     S
Zn871  N896    2.037   .     S
Zn872  N895    2.037   .     S
C873   C883    1.390   .     A
C873   C875    1.390   .     A
C873   H889    1.082   .     S
C874   C884    1.389   .     A
C874   H890    1.084   .     S
C874   C876    1.386   .     A
C875   C877    1.398   .     A
C876   C878    1.395   .     A
C877   O897    1.394   .     S
C877   C879    1.404   .     A
C878   O908    1.390   .     S
C878   C880    1.400   .     A
C879   C885    1.399   .     A
C879   C881    1.416   .     A
C880   C886    1.400   .     A
C880   C882    1.415   .     A
C881   C883    1.417   .     A
C882   C884    1.418   .     A
C882   C179    1.398   1_556 S
C883   C888    1.415   .     A
C884   C887    1.409   .     A
C885   H891    1.080   .     S
C886   H892    1.084   .     S
C886   C186    1.394   1_556 S
C887   N919    1.437   .     S
C887   C183    1.387   1_556 S
C888   N922    1.437   .     S
C893   C1128   1.364   .     S
C893   N1159   1.431   .     S
C894   C1361   1.364   1_545 S
C894   N1396   1.433   1_545 S
N895   N740    1.282   1_655 S
N895   N775    1.387   1_655 S
O897   C898    1.423   .     S
C898   C901    1.518   .     S
C898   H900    1.115   .     S
C898   H899    1.111   .     S
C901   H902    1.109   .     S
C901   H903    1.099   .     S
C901   C748    1.526   1_655 S
C904   H907    1.110   .     S
C904   H905    1.111   .     S
C904   H906    1.108   .     S
O908   C909    1.423   .     S
C909   H910    1.111   .     S
C909   C912    1.541   .     S
C909   H911    1.106   .     S
C912   H914    1.107   .     S
C912   H913    1.106   .     S
C912   C915    1.518   .     S
C915   H916    1.109   .     S
C915   H761    1.110   1_655 S
C915   H1386   1.108   1_545 S
H918   C1149   1.108   .     S
N919   O921    1.301   .     A
N919   O1154   1.302   .     S
O920   N1387   1.302   1_545 S
N922   O924    1.301   .     A
N922   O923    1.301   .     A
N925   O926    1.301   .     A
N925   O927    1.299   .     A
N925   C1361   1.431   1_545 S
N928   O929    1.299   .     A
N928   O930    1.300   .     A
N928   C1128   1.433   .     S
N931   O932    1.297   .     A
N931   O933    1.296   .     A
N934   O936    1.298   .     A
N934   N740    1.385   1_655 S
N934   O779    1.300   1_655 S
O937   C941    1.281   .     A
O937   Zn949   1.995   .     S
O938   C942    1.284   .     A
O938   Zn950   1.995   .     S
O939   Zn950   2.016   .     S
O939   C941    1.305   .     A
O940   Zn949   2.016   .     S
O940   C942    1.301   .     A
C941   C971    1.422   .     S
C942   C972    1.419   .     S
O943   C947    1.293   .     A
O943   Zn949   2.010   .     S
O944   C948    1.296   .     A
O944   Zn950   2.010   .     S
O945   Zn950   2.007   .     S
O945   C947    1.295   .     A
O946   C948    1.293   .     A
O946   Zn949   2.007   .     S
C947   C954    1.422   .     S
C948   C953    1.425   .     S
Zn949  N974    2.037   .     S
Zn950  N973    2.037   .     S
C951   C961    1.390   .     A
C951   C953    1.390   .     A
C951   H967    1.082   .     S
C952   C962    1.389   .     A
C952   H968    1.084   .     S
C952   C954    1.386   .     A
C953   C955    1.398   .     A
C954   C956    1.395   .     A
C955   O975    1.394   .     S
C955   C957    1.404   .     A
C956   O986    1.390   .     S
C956   C958    1.400   .     A
C957   C963    1.399   .     A
C957   C959    1.416   .     A
C958   C964    1.400   .     A
C958   C960    1.415   .     A
C959   C961    1.417   .     A
C960   C962    1.418   .     A
C960   C257    1.398   1_556 S
C961   C966    1.415   .     A
C962   C965    1.409   .     A
C963   H969    1.080   .     S
C964   H970    1.084   .     S
C964   C264    1.394   1_556 S
C965   N997    1.437   .     S
C965   C261    1.387   1_556 S
C966   N1000   1.437   .     S
C971   C1206   1.364   .     S
C971   N1237   1.431   .     S
N973   N1052   1.282   .     S
N973   N1087   1.387   .     S
N974   N1129   1.282   1_455 S
N974   N1168   1.385   1_455 S
O975   C976    1.423   .     S
C976   C979    1.518   .     S
C976   H978    1.115   .     S
C976   H977    1.111   .     S
C979   H980    1.109   .     S
C979   H981    1.099   .     S
C979   C1060   1.526   .     S
C982   H985    1.110   .     S
C982   H983    1.111   .     S
C982   H984    1.108   .     S
C982   C1135   1.526   1_455 S
O986   C987    1.423   .     S
C987   H988    1.111   .     S
C987   C990    1.541   .     S
C987   H989    1.106   .     S
C990   H992    1.107   .     S
C990   H991    1.106   .     S
C990   C993    1.518   .     S
C993   H994    1.109   .     S
C993   H1073   1.110   .     S
H995   C1149   1.110   1_455 S
H996   C1227   1.108   .     S
N997   O999    1.301   .     A
N997   O1232   1.302   .     S
N1000  O1002   1.301   .     A
N1000  O1001   1.301   .     A
N1003  O1004   1.301   .     A
N1003  O1005   1.299   .     A
N1006  O1007   1.299   .     A
N1006  O1008   1.300   .     A
N1006  C1206   1.433   .     S
N1009  O1010   1.297   .     A
N1009  O1011   1.296   .     A
N1009  N1129   1.387   1_455 S
N1012  O1014   1.298   .     A
N1012  N1052   1.385   .     S
N1012  O1091   1.300   .     S
O1013  N1168   1.300   1_455 S
O1015  C1019   1.281   .     A
O1015  Zn1027  1.995   .     S
O1016  C1020   1.284   .     A
O1016  Zn1028  1.995   .     S
O1017  Zn1028  2.016   .     S
O1017  C1019   1.305   .     A
O1018  Zn1027  2.016   .     S
O1018  C1020   1.301   .     A
C1019  C1049   1.422   .     S
C1020  C1050   1.419   .     S
O1021  C1025   1.293   .     A
O1021  Zn1027  2.010   .     S
O1022  C1026   1.296   .     A
O1022  Zn1028  2.010   .     S
O1023  Zn1028  2.007   .     S
O1023  C1025   1.295   .     A
O1024  C1026   1.293   .     A
O1024  Zn1027  2.007   .     S
C1025  C1032   1.422   .     S
C1026  C1031   1.425   .     S
Zn1027 N1052   2.037   .     S
Zn1028 N1051   2.037   .     S
C1029  C1039   1.390   .     A
C1029  C1031   1.390   .     A
C1029  H1045   1.082   .     S
C1030  C1040   1.389   .     A
C1030  H1046   1.084   .     S
C1030  C1032   1.386   .     A
C1031  C1033   1.398   .     A
C1032  C1034   1.395   .     A
C1033  O1053   1.394   .     S
C1033  C1035   1.404   .     A
C1034  O1064   1.390   .     S
C1034  C1036   1.400   .     A
C1035  C1041   1.399   .     A
C1035  C1037   1.416   .     A
C1036  C1042   1.400   .     A
C1036  C1038   1.415   .     A
C1037  C1039   1.417   .     A
C1038  C1040   1.418   .     A
C1038  C335    1.398   1_556 S
C1039  C1044   1.415   .     A
C1040  C1043   1.409   .     A
C1041  H1047   1.080   .     S
C1042  H1048   1.084   .     S
C1042  C342    1.394   1_556 S
C1043  N1075   1.437   .     S
C1043  C339    1.387   1_556 S
C1044  N1078   1.437   .     S
C1049  C1284   1.364   .     S
C1049  N1315   1.431   .     S
N1051  N1130   1.282   .     S
N1051  N1165   1.387   .     S
O1053  C1054   1.423   .     S
C1054  C1057   1.518   .     S
C1054  H1056   1.115   .     S
C1054  H1055   1.111   .     S
C1057  H1058   1.109   .     S
C1057  H1059   1.099   .     S
C1057  C1138   1.526   .     S
C1060  H1063   1.110   .     S
C1060  H1061   1.111   .     S
C1060  H1062   1.108   .     S
O1064  C1065   1.423   .     S
C1065  H1066   1.111   .     S
C1065  C1068   1.541   .     S
C1065  H1067   1.106   .     S
C1068  H1070   1.107   .     S
C1068  H1069   1.106   .     S
C1068  C1071   1.518   .     S
C1071  H1072   1.109   .     S
C1071  H1151   1.110   .     S
H1074  C1305   1.108   .     S
N1075  O1077   1.301   .     A
N1075  O1310   1.302   .     S
N1078  O1080   1.301   .     A
N1078  O1079   1.301   .     A
N1081  O1082   1.301   .     A
N1081  O1083   1.299   .     A
N1084  O1085   1.299   .     A
N1084  O1086   1.300   .     A
N1084  C1284   1.433   .     S
N1087  O1088   1.297   .     A
N1087  O1089   1.296   .     A
N1090  O1092   1.298   .     A
N1090  N1130   1.385   .     S
N1090  O1169   1.300   .     S
O1093  C1097   1.281   .     A
O1093  Zn1105  1.995   .     S
O1094  C1098   1.284   .     A
O1094  Zn1106  1.995   .     S
O1095  Zn1106  2.016   .     S
O1095  C1097   1.305   .     A
O1096  Zn1105  2.016   .     S
O1096  C1098   1.301   .     A
C1097  C1127   1.422   .     S
C1098  C1128   1.419   .     S
O1099  C1103   1.293   .     A
O1099  Zn1105  2.010   .     S
O1100  C1104   1.296   .     A
O1100  Zn1106  2.010   .     S
O1101  Zn1106  2.007   .     S
O1101  C1103   1.295   .     A
O1102  C1104   1.293   .     A
O1102  Zn1105  2.007   .     S
C1103  C1110   1.422   .     S
C1104  C1109   1.425   .     S
Zn1105 N1130   2.037   .     S
Zn1106 N1129   2.037   .     S
C1107  C1117   1.390   .     A
C1107  C1109   1.390   .     A
C1107  H1123   1.082   .     S
C1108  C1118   1.389   .     A
C1108  H1124   1.084   .     S
C1108  C1110   1.386   .     A
C1109  C1111   1.398   .     A
C1110  C1112   1.395   .     A
C1111  O1131   1.394   .     S
C1111  C1113   1.404   .     A
C1112  O1142   1.390   .     S
C1112  C1114   1.400   .     A
C1113  C1119   1.399   .     A
C1113  C1115   1.416   .     A
C1114  C1120   1.400   .     A
C1114  C1116   1.415   .     A
C1115  C1117   1.417   .     A
C1116  C1118   1.418   .     A
C1116  C413    1.398   1_556 S
C1117  C1122   1.415   .     A
C1118  C1121   1.409   .     A
C1119  H1125   1.080   .     S
C1120  H1126   1.084   .     S
C1120  C420    1.394   1_556 S
C1121  N1153   1.437   .     S
C1121  C417    1.387   1_556 S
C1122  N1156   1.437   .     S
C1127  C1362   1.364   .     S
C1127  N1393   1.431   .     S
N1129  N974    1.282   1_655 S
N1129  N1009   1.387   1_655 S
O1131  C1132   1.423   .     S
C1132  C1135   1.518   .     S
C1132  H1134   1.115   .     S
C1132  H1133   1.111   .     S
C1135  H1136   1.109   .     S
C1135  H1137   1.099   .     S
C1135  C982    1.526   1_655 S
C1138  H1141   1.110   .     S
C1138  H1139   1.111   .     S
C1138  H1140   1.108   .     S
O1142  C1143   1.423   .     S
C1143  H1144   1.111   .     S
C1143  C1146   1.541   .     S
C1143  H1145   1.106   .     S
C1146  H1148   1.107   .     S
C1146  H1147   1.106   .     S
C1146  C1149   1.518   .     S
C1149  H1150   1.109   .     S
C1149  H995    1.110   1_655 S
H1152  C1383   1.108   .     S
N1153  O1155   1.301   .     A
N1153  O1388   1.302   .     S
N1156  O1158   1.301   .     A
N1156  O1157   1.301   .     A
N1159  O1160   1.301   .     A
N1159  O1161   1.299   .     A
N1162  O1163   1.299   .     A
N1162  O1164   1.300   .     A
N1162  C1362   1.433   .     S
N1165  O1166   1.297   .     A
N1165  O1167   1.296   .     A
N1168  O1170   1.298   .     A
N1168  N974    1.385   1_655 S
N1168  O1013   1.300   1_655 S
O1171  C1175   1.281   .     A
O1171  Zn1183  1.995   .     S
O1172  C1176   1.284   .     A
O1172  Zn1184  1.995   .     S
O1173  Zn1184  2.016   .     S
O1173  C1175   1.305   .     A
O1174  Zn1183  2.016   .     S
O1174  C1176   1.301   .     A
C1175  C1205   1.422   .     S
C1176  C1206   1.419   .     S
O1177  C1181   1.293   .     A
O1177  Zn1183  2.010   .     S
O1178  C1182   1.296   .     A
O1178  Zn1184  2.010   .     S
O1179  Zn1184  2.007   .     S
O1179  C1181   1.295   .     A
O1180  C1182   1.293   .     A
O1180  Zn1183  2.007   .     S
C1181  C1188   1.422   .     S
C1182  C1187   1.425   .     S
Zn1183 N1208   2.037   .     S
Zn1184 N1207   2.037   .     S
C1185  C1195   1.390   .     A
C1185  C1187   1.390   .     A
C1185  H1201   1.082   .     S
C1186  C1196   1.389   .     A
C1186  H1202   1.084   .     S
C1186  C1188   1.386   .     A
C1187  C1189   1.398   .     A
C1188  C1190   1.395   .     A
C1189  O1209   1.394   .     S
C1189  C1191   1.404   .     A
C1190  O1220   1.390   .     S
C1190  C1192   1.400   .     A
C1191  C1197   1.399   .     A
C1191  C1193   1.416   .     A
C1192  C1198   1.400   .     A
C1192  C1194   1.415   .     A
C1193  C1195   1.417   .     A
C1194  C1196   1.418   .     A
C1194  C491    1.398   1_556 S
C1195  C1200   1.415   .     A
C1196  C1199   1.409   .     A
C1197  H1203   1.080   .     S
C1198  H1204   1.084   .     S
C1198  C498    1.394   1_556 S
C1199  N1231   1.437   .     S
C1199  C495    1.387   1_556 S
C1200  N1234   1.437   .     S
C1205  C738    1.364   1_565 S
C1205  N769    1.431   1_565 S
N1207  N1286   1.282   .     S
N1207  N1321   1.387   .     S
N1208  N1363   1.282   1_455 S
N1208  N1402   1.385   1_455 S
O1209  C1210   1.423   .     S
C1210  C1213   1.518   .     S
C1210  H1212   1.115   .     S
C1210  H1211   1.111   .     S
C1213  H1214   1.109   .     S
C1213  H1215   1.099   .     S
C1213  C1294   1.526   .     S
C1216  H1219   1.110   .     S
C1216  H1217   1.111   .     S
C1216  H1218   1.108   .     S
C1216  C1369   1.526   1_455 S
O1220  C1221   1.423   .     S
C1221  H1222   1.111   .     S
C1221  C1224   1.541   .     S
C1221  H1223   1.106   .     S
C1224  H1226   1.107   .     S
C1224  H1225   1.106   .     S
C1224  C1227   1.518   .     S
C1227  H1228   1.109   .     S
C1227  H1307   1.110   .     S
H1229  C1383   1.110   1_455 S
H1230  C759    1.108   1_565 S
N1231  O1233   1.301   .     A
N1231  O764    1.302   1_565 S
N1234  O1236   1.301   .     A
N1234  O1235   1.301   .     A
N1237  O1238   1.301   .     A
N1237  O1239   1.299   .     A
N1240  O1241   1.299   .     A
N1240  O1242   1.300   .     A
N1240  C738    1.433   1_565 S
N1243  O1244   1.297   .     A
N1243  O1245   1.296   .     A
N1243  N1363   1.387   1_455 S
N1246  O1248   1.298   .     A
N1246  N1286   1.385   .     S
N1246  O1325   1.300   .     S
O1247  N1402   1.300   1_455 S
O1249  C1253   1.281   .     A
O1249  Zn1261  1.995   .     S
O1250  C1254   1.284   .     A
O1250  Zn1262  1.995   .     S
O1251  Zn1262  2.016   .     S
O1251  C1253   1.305   .     A
O1252  Zn1261  2.016   .     S
O1252  C1254   1.301   .     A
C1253  C1283   1.422   .     S
C1254  C1284   1.419   .     S
O1255  C1259   1.293   .     A
O1255  Zn1261  2.010   .     S
O1256  C1260   1.296   .     A
O1256  Zn1262  2.010   .     S
O1257  Zn1262  2.007   .     S
O1257  C1259   1.295   .     A
O1258  C1260   1.293   .     A
O1258  Zn1261  2.007   .     S
C1259  C1266   1.422   .     S
C1260  C1265   1.425   .     S
Zn1261 N1286   2.037   .     S
Zn1262 N1285   2.037   .     S
C1263  C1273   1.390   .     A
C1263  C1265   1.390   .     A
C1263  H1279   1.082   .     S
C1264  C1274   1.389   .     A
C1264  H1280   1.084   .     S
C1264  C1266   1.386   .     A
C1265  C1267   1.398   .     A
C1266  C1268   1.395   .     A
C1267  O1287   1.394   .     S
C1267  C1269   1.404   .     A
C1268  O1298   1.390   .     S
C1268  C1270   1.400   .     A
C1269  C1275   1.399   .     A
C1269  C1271   1.416   .     A
C1270  C1276   1.400   .     A
C1270  C1272   1.415   .     A
C1271  C1273   1.417   .     A
C1272  C1274   1.418   .     A
C1272  C569    1.398   1_556 S
C1273  C1278   1.415   .     A
C1274  C1277   1.409   .     A
C1275  H1281   1.080   .     S
C1276  H1282   1.084   .     S
C1276  C576    1.394   1_556 S
C1277  N1309   1.437   .     S
C1277  C573    1.387   1_556 S
C1278  N1312   1.437   .     S
C1283  C816    1.364   1_565 S
C1283  N847    1.431   1_565 S
N1285  N1364   1.282   .     S
N1285  N1399   1.387   .     S
O1287  C1288   1.423   .     S
C1288  C1291   1.518   .     S
C1288  H1290   1.115   .     S
C1288  H1289   1.111   .     S
C1291  H1292   1.109   .     S
C1291  H1293   1.099   .     S
C1291  C1372   1.526   .     S
C1294  H1297   1.110   .     S
C1294  H1295   1.111   .     S
C1294  H1296   1.108   .     S
O1298  C1299   1.423   .     S
C1299  H1300   1.111   .     S
C1299  C1302   1.541   .     S
C1299  H1301   1.106   .     S
C1302  H1304   1.107   .     S
C1302  H1303   1.106   .     S
C1302  C1305   1.518   .     S
C1305  H1306   1.109   .     S
C1305  H1385   1.110   .     S
H1308  C837    1.108   1_565 S
N1309  O1311   1.301   .     A
N1309  O842    1.302   1_565 S
N1312  O1314   1.301   .     A
N1312  O1313   1.301   .     A
N1315  O1316   1.301   .     A
N1315  O1317   1.299   .     A
N1318  O1319   1.299   .     A
N1318  O1320   1.300   .     A
N1318  C816    1.433   1_565 S
N1321  O1322   1.297   .     A
N1321  O1323   1.296   .     A
N1324  O1326   1.298   .     A
N1324  N1364   1.385   .     S
N1324  O1403   1.300   .     S
O1327  C1331   1.281   .     A
O1327  Zn1339  1.995   .     S
O1328  C1332   1.284   .     A
O1328  Zn1340  1.995   .     S
O1329  Zn1340  2.016   .     S
O1329  C1331   1.305   .     A
O1330  Zn1339  2.016   .     S
O1330  C1332   1.301   .     A
C1331  C1361   1.422   .     S
C1332  C1362   1.419   .     S
O1333  C1337   1.293   .     A
O1333  Zn1339  2.010   .     S
O1334  C1338   1.296   .     A
O1334  Zn1340  2.010   .     S
O1335  Zn1340  2.007   .     S
O1335  C1337   1.295   .     A
O1336  C1338   1.293   .     A
O1336  Zn1339  2.007   .     S
C1337  C1344   1.422   .     S
C1338  C1343   1.425   .     S
Zn1339 N1364   2.037   .     S
Zn1340 N1363   2.037   .     S
C1341  C1351   1.390   .     A
C1341  C1343   1.390   .     A
C1341  H1357   1.082   .     S
C1342  C1352   1.389   .     A
C1342  H1358   1.084   .     S
C1342  C1344   1.386   .     A
C1343  C1345   1.398   .     A
C1344  C1346   1.395   .     A
C1345  O1365   1.394   .     S
C1345  C1347   1.404   .     A
C1346  O1376   1.390   .     S
C1346  C1348   1.400   .     A
C1347  C1353   1.399   .     A
C1347  C1349   1.416   .     A
C1348  C1354   1.400   .     A
C1348  C1350   1.415   .     A
C1349  C1351   1.417   .     A
C1350  C1352   1.418   .     A
C1350  C647    1.398   1_556 S
C1351  C1356   1.415   .     A
C1352  C1355   1.409   .     A
C1353  H1359   1.080   .     S
C1354  H1360   1.084   .     S
C1354  C654    1.394   1_556 S
C1355  N1387   1.437   .     S
C1355  C651    1.387   1_556 S
C1356  N1390   1.437   .     S
C1361  C894    1.364   1_565 S
C1361  N925    1.431   1_565 S
N1363  N1208   1.282   1_655 S
N1363  N1243   1.387   1_655 S
O1365  C1366   1.423   .     S
C1366  C1369   1.518   .     S
C1366  H1368   1.115   .     S
C1366  H1367   1.111   .     S
C1369  H1370   1.109   .     S
C1369  H1371   1.099   .     S
C1369  C1216   1.526   1_655 S
C1372  H1375   1.110   .     S
C1372  H1373   1.111   .     S
C1372  H1374   1.108   .     S
O1376  C1377   1.423   .     S
C1377  H1378   1.111   .     S
C1377  C1380   1.541   .     S
C1377  H1379   1.106   .     S
C1380  H1382   1.107   .     S
C1380  H1381   1.106   .     S
C1380  C1383   1.518   .     S
C1383  H1384   1.109   .     S
C1383  H1229   1.110   1_655 S
H1386  C915    1.108   1_565 S
N1387  O1389   1.301   .     A
N1387  O920    1.302   1_565 S
N1390  O1392   1.301   .     A
N1390  O1391   1.301   .     A
N1393  O1394   1.301   .     A
N1393  O1395   1.299   .     A
N1396  O1397   1.299   .     A
N1396  O1398   1.300   .     A
N1396  C894    1.433   1_565 S
N1399  O1400   1.297   .     A
N1399  O1401   1.296   .     A
N1402  O1404   1.298   .     A
N1402  N1208   1.385   1_655 S
N1402  O1247   1.300   1_655 S
