data_str_m2_o1_o16_pcu_sym.108
_audit_creation_date              2020-01-03
_audit_creation_method            'Materials Studio'
_symmetry_space_group_name_H-M    'P1'
_symmetry_Int_Tables_number       1
_symmetry_cell_setting            triclinic
loop_
_symmetry_equiv_pos_as_xyz
  x,y,z
_cell_length_a                    28.5106
_cell_length_b                    32.5033
_cell_length_c                    26.9930
_cell_angle_alpha                 90.2094
_cell_angle_beta                  74.1545
_cell_angle_gamma                 90.0113
loop_
_atom_site_label
_atom_site_type_symbol
_atom_site_fract_x
_atom_site_fract_y
_atom_site_fract_z
_atom_site_U_iso_or_equiv
_atom_site_adp_type
_atom_site_occupancy
O1     O     0.12708   0.22678   0.25000   0.00000  Uiso   1.00
O2     O     0.20627   0.22679   0.25000   0.00000  Uiso   1.00
C3     C     0.16667   0.24599   0.25005   0.00000  Uiso   1.00
O4     O     0.10775   0.16665   0.32549   0.00000  Uiso   1.00
O5     O     0.18694   0.16666   0.32549   0.00000  Uiso   1.00
C6     C     0.14186   0.16066   0.34884   0.00000  Uiso   1.00
Cu7    Cu    0.11978   0.16666   0.25000   0.00000  Uiso   1.00
Cu8    Cu    0.21355   0.16667   0.25000   0.00000  Uiso   1.00
O9     O     0.12706   0.10654   0.24999   0.00000  Uiso   1.00
O10    O     0.20625   0.10655   0.24999   0.00000  Uiso   1.00
O11    O     0.14640   0.16667   0.17451   0.00000  Uiso   1.00
O12    O     0.22559   0.16668   0.17451   0.00000  Uiso   1.00
C13    C     0.16667   0.08734   0.24995   0.00000  Uiso   1.00
C14    C     0.19210   0.16476   0.15016   0.00000  Uiso   1.00
C15    C     0.26902   0.16000   0.01340   0.00000  Uiso   1.00
H16    H     0.28185   0.17315   0.08569   0.00000  Uiso   1.00
H17    H     0.30683   0.16563   0.49302   0.00000  Uiso   1.00
C18    C     0.20590   0.15894   0.09380   0.00000  Uiso   1.00
C19    C     0.08298   0.13126   0.42563   0.00000  Uiso   1.00
C20    C     0.07135   0.11355   0.47455   0.00000  Uiso   1.00
C21    C     0.10555   0.11521   0.00313   0.00000  Uiso   1.00
C22    C     0.15197   0.13319   0.48307   0.00000  Uiso   1.00
C23    C     0.16696   0.14034   0.42939   0.00000  Uiso   1.00
C24    C     0.18534   0.14221   0.01306   0.00000  Uiso   1.00
C25    C     0.23513   0.14936   0.48674   0.00000  Uiso   1.00
C26    C     0.25107   0.14561   0.43357   0.00000  Uiso   1.00
C27    C     0.21773   0.14071   0.40532   0.00000  Uiso   1.00
C28    C     0.17095   0.14746   0.06744   0.00000  Uiso   1.00
C29    C     0.25466   0.16453   0.06632   0.00000  Uiso   1.00
C30    C     0.13057   0.14475   0.40218   0.00000  Uiso   1.00
H31    H     0.05558   0.13223   0.40467   0.00000  Uiso   1.00
H32    H     0.09665   0.09906   0.03906   0.00000  Uiso   1.00
H33    H     0.23362   0.13487   0.36500   0.00000  Uiso   1.00
C34    C     0.20913   0.31207   0.25064   0.00000  Uiso   1.00
H35    H     0.24232   0.29608   0.25113   0.00000  Uiso   1.00
C36    C     0.20913   0.02131   0.25059   0.00000  Uiso   1.00
H37    H     0.24233   0.03733   0.25106   0.00000  Uiso   1.00
C38    C     0.16666   0.04274   0.24998   0.00000  Uiso   1.00
C39    C     0.12419   0.02128   0.24942   0.00000  Uiso   1.00
H40    H     0.09100   0.03728   0.24892   0.00000  Uiso   1.00
C41    C     0.12418   0.31205   0.24947   0.00000  Uiso   1.00
H42    H     0.09098   0.29603   0.24902   0.00000  Uiso   1.00
C43    C     0.16666   0.29061   0.25006   0.00000  Uiso   1.00
C44    C     0.30277   0.19816   0.27235   0.00000  Uiso   1.00
C45    C     0.01910   0.19823   0.27216   0.00000  Uiso   1.00
N46    N     0.04931   0.16666   0.24998   0.00000  Uiso   1.00
C47    C     0.03014   0.13467   0.22895   0.00000  Uiso   1.00
H48    H     0.05270   0.10861   0.21297   0.00000  Uiso   1.00
C49    C     0.31408   0.13492   0.22832   0.00000  Uiso   1.00
H50    H     0.30002   0.10952   0.21074   0.00000  Uiso   1.00
N51    N     0.28402   0.16669   0.24999   0.00000  Uiso   1.00
H52    H     0.27946   0.22330   0.29054   0.00000  Uiso   1.00
H53    H     0.03308   0.22345   0.29014   0.00000  Uiso   1.00
H54    H     0.28954   0.14757   0.41343   0.00000  Uiso   1.00
N55    N     0.12095   0.14321   0.09592   0.00000  Uiso   1.00
O56    O     0.10695   0.11054   0.12375   0.00000  Uiso   1.00
O57    O     0.08991   0.17251   0.09568   0.00000  Uiso   1.00
N58    N     0.02525   0.09326   0.49485   0.00000  Uiso   1.00
O59    O     0.00990   0.08424   0.04355   0.00000  Uiso   1.00
O60    O     0.33256   0.08199   0.46434   0.00000  Uiso   1.00
O61    O     0.46042   0.22678   0.25000   0.00000  Uiso   1.00
O62    O     0.53961   0.22679   0.25000   0.00000  Uiso   1.00
C63    C     0.50000   0.24599   0.25005   0.00000  Uiso   1.00
O64    O     0.44108   0.16665   0.32549   0.00000  Uiso   1.00
O65    O     0.52027   0.16666   0.32549   0.00000  Uiso   1.00
C66    C     0.47519   0.16066   0.34884   0.00000  Uiso   1.00
Cu67   Cu    0.45311   0.16666   0.25000   0.00000  Uiso   1.00
Cu68   Cu    0.54689   0.16667   0.25000   0.00000  Uiso   1.00
O69    O     0.46039   0.10654   0.24999   0.00000  Uiso   1.00
O70    O     0.53958   0.10655   0.24999   0.00000  Uiso   1.00
O71    O     0.47973   0.16667   0.17451   0.00000  Uiso   1.00
O72    O     0.55892   0.16668   0.17451   0.00000  Uiso   1.00
C73    C     0.50000   0.08734   0.24995   0.00000  Uiso   1.00
C74    C     0.52543   0.16476   0.15016   0.00000  Uiso   1.00
C75    C     0.60236   0.16000   0.01340   0.00000  Uiso   1.00
H76    H     0.61519   0.17315   0.08569   0.00000  Uiso   1.00
H77    H     0.64017   0.16563   0.49302   0.00000  Uiso   1.00
C78    C     0.53924   0.15894   0.09380   0.00000  Uiso   1.00
C79    C     0.41631   0.13126   0.42563   0.00000  Uiso   1.00
C80    C     0.40468   0.11355   0.47455   0.00000  Uiso   1.00
C81    C     0.43888   0.11521   0.00313   0.00000  Uiso   1.00
C82    C     0.48531   0.13319   0.48307   0.00000  Uiso   1.00
C83    C     0.50029   0.14034   0.42939   0.00000  Uiso   1.00
C84    C     0.51867   0.14221   0.01306   0.00000  Uiso   1.00
C85    C     0.56846   0.14936   0.48674   0.00000  Uiso   1.00
C86    C     0.58440   0.14561   0.43357   0.00000  Uiso   1.00
C87    C     0.55107   0.14071   0.40532   0.00000  Uiso   1.00
C88    C     0.50428   0.14746   0.06744   0.00000  Uiso   1.00
C89    C     0.58799   0.16453   0.06632   0.00000  Uiso   1.00
C90    C     0.46390   0.14475   0.40218   0.00000  Uiso   1.00
H91    H     0.38891   0.13223   0.40467   0.00000  Uiso   1.00
H92    H     0.42999   0.09906   0.03906   0.00000  Uiso   1.00
H93    H     0.56696   0.13487   0.36500   0.00000  Uiso   1.00
C94    C     0.54246   0.31207   0.25064   0.00000  Uiso   1.00
H95    H     0.57566   0.29608   0.25113   0.00000  Uiso   1.00
C96    C     0.54246   0.02131   0.25059   0.00000  Uiso   1.00
H97    H     0.57566   0.03733   0.25106   0.00000  Uiso   1.00
C98    C     0.50000   0.04274   0.24998   0.00000  Uiso   1.00
C99    C     0.45752   0.02128   0.24942   0.00000  Uiso   1.00
H100   H     0.42433   0.03728   0.24892   0.00000  Uiso   1.00
C101   C     0.45752   0.31205   0.24947   0.00000  Uiso   1.00
H102   H     0.42431   0.29603   0.24902   0.00000  Uiso   1.00
C103   C     0.49999   0.29061   0.25006   0.00000  Uiso   1.00
C104   C     0.63610   0.19816   0.27235   0.00000  Uiso   1.00
C105   C     0.35243   0.19823   0.27216   0.00000  Uiso   1.00
N106   N     0.38265   0.16666   0.24998   0.00000  Uiso   1.00
C107   C     0.36348   0.13467   0.22895   0.00000  Uiso   1.00
H108   H     0.38603   0.10861   0.21297   0.00000  Uiso   1.00
C109   C     0.64742   0.13492   0.22832   0.00000  Uiso   1.00
H110   H     0.63335   0.10952   0.21074   0.00000  Uiso   1.00
N111   N     0.61735   0.16669   0.24999   0.00000  Uiso   1.00
H112   H     0.61279   0.22330   0.29054   0.00000  Uiso   1.00
H113   H     0.36641   0.22345   0.29014   0.00000  Uiso   1.00
H114   H     0.62287   0.14757   0.41343   0.00000  Uiso   1.00
N115   N     0.45429   0.14321   0.09592   0.00000  Uiso   1.00
O116   O     0.44028   0.11054   0.12375   0.00000  Uiso   1.00
O117   O     0.42325   0.17251   0.09568   0.00000  Uiso   1.00
N118   N     0.35859   0.09326   0.49485   0.00000  Uiso   1.00
O119   O     0.34324   0.08424   0.04355   0.00000  Uiso   1.00
O120   O     0.66590   0.08199   0.46434   0.00000  Uiso   1.00
O121   O     0.79375   0.22678   0.25000   0.00000  Uiso   1.00
O122   O     0.87294   0.22679   0.25000   0.00000  Uiso   1.00
C123   C     0.83333   0.24599   0.25005   0.00000  Uiso   1.00
O124   O     0.77441   0.16665   0.32549   0.00000  Uiso   1.00
O125   O     0.85360   0.16666   0.32549   0.00000  Uiso   1.00
C126   C     0.80852   0.16066   0.34884   0.00000  Uiso   1.00
Cu127  Cu    0.78645   0.16666   0.25000   0.00000  Uiso   1.00
Cu128  Cu    0.88022   0.16667   0.25000   0.00000  Uiso   1.00
O129   O     0.79373   0.10654   0.24999   0.00000  Uiso   1.00
O130   O     0.87292   0.10655   0.24999   0.00000  Uiso   1.00
O131   O     0.81306   0.16667   0.17451   0.00000  Uiso   1.00
O132   O     0.89225   0.16668   0.17451   0.00000  Uiso   1.00
C133   C     0.83333   0.08734   0.24995   0.00000  Uiso   1.00
C134   C     0.85876   0.16476   0.15016   0.00000  Uiso   1.00
C135   C     0.93569   0.16000   0.01340   0.00000  Uiso   1.00
H136   H     0.94852   0.17315   0.08569   0.00000  Uiso   1.00
H137   H     0.97350   0.16563   0.49302   0.00000  Uiso   1.00
C138   C     0.87257   0.15894   0.09380   0.00000  Uiso   1.00
C139   C     0.74965   0.13126   0.42563   0.00000  Uiso   1.00
C140   C     0.73801   0.11355   0.47455   0.00000  Uiso   1.00
C141   C     0.77222   0.11521   0.00313   0.00000  Uiso   1.00
C142   C     0.81864   0.13319   0.48307   0.00000  Uiso   1.00
C143   C     0.83362   0.14034   0.42939   0.00000  Uiso   1.00
C144   C     0.85201   0.14221   0.01306   0.00000  Uiso   1.00
C145   C     0.90180   0.14936   0.48674   0.00000  Uiso   1.00
C146   C     0.91774   0.14561   0.43357   0.00000  Uiso   1.00
C147   C     0.88440   0.14071   0.40532   0.00000  Uiso   1.00
C148   C     0.83761   0.14746   0.06744   0.00000  Uiso   1.00
C149   C     0.92132   0.16453   0.06632   0.00000  Uiso   1.00
C150   C     0.79724   0.14475   0.40218   0.00000  Uiso   1.00
H151   H     0.72224   0.13223   0.40467   0.00000  Uiso   1.00
H152   H     0.76332   0.09906   0.03906   0.00000  Uiso   1.00
H153   H     0.90029   0.13487   0.36500   0.00000  Uiso   1.00
C154   C     0.87579   0.31207   0.25064   0.00000  Uiso   1.00
H155   H     0.90899   0.29608   0.25113   0.00000  Uiso   1.00
C156   C     0.87580   0.02131   0.25059   0.00000  Uiso   1.00
H157   H     0.90900   0.03733   0.25106   0.00000  Uiso   1.00
C158   C     0.83333   0.04274   0.24998   0.00000  Uiso   1.00
C159   C     0.79086   0.02128   0.24942   0.00000  Uiso   1.00
H160   H     0.75766   0.03728   0.24892   0.00000  Uiso   1.00
C161   C     0.79085   0.31205   0.24947   0.00000  Uiso   1.00
H162   H     0.75765   0.29603   0.24902   0.00000  Uiso   1.00
C163   C     0.83332   0.29061   0.25006   0.00000  Uiso   1.00
C164   C     0.96943   0.19816   0.27235   0.00000  Uiso   1.00
C165   C     0.68576   0.19823   0.27216   0.00000  Uiso   1.00
N166   N     0.71598   0.16666   0.24998   0.00000  Uiso   1.00
C167   C     0.69681   0.13467   0.22895   0.00000  Uiso   1.00
H168   H     0.71936   0.10861   0.21297   0.00000  Uiso   1.00
C169   C     0.98075   0.13492   0.22832   0.00000  Uiso   1.00
H170   H     0.96668   0.10952   0.21074   0.00000  Uiso   1.00
N171   N     0.95069   0.16669   0.24999   0.00000  Uiso   1.00
H172   H     0.94613   0.22330   0.29054   0.00000  Uiso   1.00
H173   H     0.69975   0.22345   0.29014   0.00000  Uiso   1.00
H174   H     0.95620   0.14757   0.41343   0.00000  Uiso   1.00
N175   N     0.78762   0.14321   0.09592   0.00000  Uiso   1.00
O176   O     0.77361   0.11054   0.12375   0.00000  Uiso   1.00
O177   O     0.75658   0.17251   0.09568   0.00000  Uiso   1.00
N178   N     0.69192   0.09326   0.49485   0.00000  Uiso   1.00
O179   O     0.67657   0.08424   0.04355   0.00000  Uiso   1.00
O180   O     0.99923   0.08199   0.46434   0.00000  Uiso   1.00
O181   O     0.12708   0.56011   0.25000   0.00000  Uiso   1.00
O182   O     0.20627   0.56012   0.25000   0.00000  Uiso   1.00
C183   C     0.16667   0.57932   0.25005   0.00000  Uiso   1.00
O184   O     0.10775   0.49998   0.32549   0.00000  Uiso   1.00
O185   O     0.18694   0.49999   0.32549   0.00000  Uiso   1.00
C186   C     0.14186   0.49399   0.34884   0.00000  Uiso   1.00
Cu187  Cu    0.11978   0.49999   0.25000   0.00000  Uiso   1.00
Cu188  Cu    0.21355   0.50001   0.25000   0.00000  Uiso   1.00
O189   O     0.12706   0.43988   0.24999   0.00000  Uiso   1.00
O190   O     0.20625   0.43989   0.24999   0.00000  Uiso   1.00
O191   O     0.14640   0.50001   0.17451   0.00000  Uiso   1.00
O192   O     0.22559   0.50002   0.17451   0.00000  Uiso   1.00
C193   C     0.16667   0.42068   0.24995   0.00000  Uiso   1.00
C194   C     0.19210   0.49809   0.15016   0.00000  Uiso   1.00
C195   C     0.26902   0.49334   0.01340   0.00000  Uiso   1.00
H196   H     0.28185   0.50649   0.08569   0.00000  Uiso   1.00
H197   H     0.30683   0.49896   0.49302   0.00000  Uiso   1.00
C198   C     0.20590   0.49228   0.09380   0.00000  Uiso   1.00
C199   C     0.08298   0.46459   0.42563   0.00000  Uiso   1.00
C200   C     0.07135   0.44689   0.47455   0.00000  Uiso   1.00
C201   C     0.10555   0.44854   0.00313   0.00000  Uiso   1.00
C202   C     0.15197   0.46652   0.48307   0.00000  Uiso   1.00
C203   C     0.16696   0.47368   0.42939   0.00000  Uiso   1.00
C204   C     0.18534   0.47554   0.01306   0.00000  Uiso   1.00
C205   C     0.23513   0.48269   0.48674   0.00000  Uiso   1.00
C206   C     0.25107   0.47894   0.43357   0.00000  Uiso   1.00
C207   C     0.21773   0.47405   0.40532   0.00000  Uiso   1.00
C208   C     0.17095   0.48079   0.06744   0.00000  Uiso   1.00
C209   C     0.25466   0.49786   0.06632   0.00000  Uiso   1.00
C210   C     0.13057   0.47809   0.40218   0.00000  Uiso   1.00
H211   H     0.05558   0.46557   0.40467   0.00000  Uiso   1.00
H212   H     0.09665   0.43239   0.03906   0.00000  Uiso   1.00
H213   H     0.23362   0.46820   0.36500   0.00000  Uiso   1.00
C214   C     0.20913   0.64541   0.25064   0.00000  Uiso   1.00
H215   H     0.24232   0.62941   0.25113   0.00000  Uiso   1.00
C216   C     0.20913   0.35464   0.25059   0.00000  Uiso   1.00
H217   H     0.24233   0.37066   0.25106   0.00000  Uiso   1.00
C218   C     0.16666   0.37607   0.24998   0.00000  Uiso   1.00
C219   C     0.12419   0.35461   0.24942   0.00000  Uiso   1.00
H220   H     0.09100   0.37061   0.24892   0.00000  Uiso   1.00
C221   C     0.12418   0.64538   0.24947   0.00000  Uiso   1.00
H222   H     0.09098   0.62936   0.24902   0.00000  Uiso   1.00
C223   C     0.16666   0.62394   0.25006   0.00000  Uiso   1.00
C224   C     0.30277   0.53150   0.27235   0.00000  Uiso   1.00
C225   C     0.01910   0.53157   0.27216   0.00000  Uiso   1.00
N226   N     0.04931   0.49999   0.24998   0.00000  Uiso   1.00
C227   C     0.03014   0.46800   0.22895   0.00000  Uiso   1.00
H228   H     0.05270   0.44194   0.21297   0.00000  Uiso   1.00
C229   C     0.31408   0.46825   0.22832   0.00000  Uiso   1.00
H230   H     0.30002   0.44285   0.21074   0.00000  Uiso   1.00
N231   N     0.28402   0.50002   0.24999   0.00000  Uiso   1.00
H232   H     0.27946   0.55663   0.29054   0.00000  Uiso   1.00
H233   H     0.03308   0.55678   0.29014   0.00000  Uiso   1.00
H234   H     0.28954   0.48090   0.41343   0.00000  Uiso   1.00
N235   N     0.12095   0.47654   0.09592   0.00000  Uiso   1.00
O236   O     0.10695   0.44388   0.12375   0.00000  Uiso   1.00
O237   O     0.08991   0.50584   0.09568   0.00000  Uiso   1.00
N238   N     0.02525   0.42660   0.49485   0.00000  Uiso   1.00
O239   O     0.00990   0.41758   0.04355   0.00000  Uiso   1.00
O240   O     0.33256   0.41533   0.46434   0.00000  Uiso   1.00
O241   O     0.46042   0.56011   0.25000   0.00000  Uiso   1.00
O242   O     0.53961   0.56012   0.25000   0.00000  Uiso   1.00
C243   C     0.50000   0.57932   0.25005   0.00000  Uiso   1.00
O244   O     0.44108   0.49998   0.32549   0.00000  Uiso   1.00
O245   O     0.52027   0.49999   0.32549   0.00000  Uiso   1.00
C246   C     0.47519   0.49399   0.34884   0.00000  Uiso   1.00
Cu247  Cu    0.45311   0.49999   0.25000   0.00000  Uiso   1.00
Cu248  Cu    0.54689   0.50001   0.25000   0.00000  Uiso   1.00
O249   O     0.46039   0.43988   0.24999   0.00000  Uiso   1.00
O250   O     0.53958   0.43989   0.24999   0.00000  Uiso   1.00
O251   O     0.47973   0.50001   0.17451   0.00000  Uiso   1.00
O252   O     0.55892   0.50002   0.17451   0.00000  Uiso   1.00
C253   C     0.50000   0.42068   0.24995   0.00000  Uiso   1.00
C254   C     0.52543   0.49809   0.15016   0.00000  Uiso   1.00
C255   C     0.60236   0.49334   0.01340   0.00000  Uiso   1.00
H256   H     0.61519   0.50649   0.08569   0.00000  Uiso   1.00
H257   H     0.64017   0.49896   0.49302   0.00000  Uiso   1.00
C258   C     0.53924   0.49228   0.09380   0.00000  Uiso   1.00
C259   C     0.41631   0.46459   0.42563   0.00000  Uiso   1.00
C260   C     0.40468   0.44689   0.47455   0.00000  Uiso   1.00
C261   C     0.43888   0.44854   0.00313   0.00000  Uiso   1.00
C262   C     0.48531   0.46652   0.48307   0.00000  Uiso   1.00
C263   C     0.50029   0.47368   0.42939   0.00000  Uiso   1.00
C264   C     0.51867   0.47554   0.01306   0.00000  Uiso   1.00
C265   C     0.56846   0.48269   0.48674   0.00000  Uiso   1.00
C266   C     0.58440   0.47894   0.43357   0.00000  Uiso   1.00
C267   C     0.55107   0.47405   0.40532   0.00000  Uiso   1.00
C268   C     0.50428   0.48079   0.06744   0.00000  Uiso   1.00
C269   C     0.58799   0.49786   0.06632   0.00000  Uiso   1.00
C270   C     0.46390   0.47809   0.40218   0.00000  Uiso   1.00
H271   H     0.38891   0.46557   0.40467   0.00000  Uiso   1.00
H272   H     0.42999   0.43239   0.03906   0.00000  Uiso   1.00
H273   H     0.56696   0.46820   0.36500   0.00000  Uiso   1.00
C274   C     0.54246   0.64541   0.25064   0.00000  Uiso   1.00
H275   H     0.57566   0.62941   0.25113   0.00000  Uiso   1.00
C276   C     0.54246   0.35464   0.25059   0.00000  Uiso   1.00
H277   H     0.57566   0.37066   0.25106   0.00000  Uiso   1.00
C278   C     0.50000   0.37607   0.24998   0.00000  Uiso   1.00
C279   C     0.45752   0.35461   0.24942   0.00000  Uiso   1.00
H280   H     0.42433   0.37061   0.24892   0.00000  Uiso   1.00
C281   C     0.45752   0.64538   0.24947   0.00000  Uiso   1.00
H282   H     0.42431   0.62936   0.24902   0.00000  Uiso   1.00
C283   C     0.49999   0.62394   0.25006   0.00000  Uiso   1.00
C284   C     0.63610   0.53150   0.27235   0.00000  Uiso   1.00
C285   C     0.35243   0.53157   0.27216   0.00000  Uiso   1.00
N286   N     0.38265   0.49999   0.24998   0.00000  Uiso   1.00
C287   C     0.36348   0.46800   0.22895   0.00000  Uiso   1.00
H288   H     0.38603   0.44194   0.21297   0.00000  Uiso   1.00
C289   C     0.64742   0.46825   0.22832   0.00000  Uiso   1.00
H290   H     0.63335   0.44285   0.21074   0.00000  Uiso   1.00
N291   N     0.61735   0.50002   0.24999   0.00000  Uiso   1.00
H292   H     0.61279   0.55663   0.29054   0.00000  Uiso   1.00
H293   H     0.36641   0.55678   0.29014   0.00000  Uiso   1.00
H294   H     0.62287   0.48090   0.41343   0.00000  Uiso   1.00
N295   N     0.45429   0.47654   0.09592   0.00000  Uiso   1.00
O296   O     0.44028   0.44388   0.12375   0.00000  Uiso   1.00
O297   O     0.42325   0.50584   0.09568   0.00000  Uiso   1.00
N298   N     0.35859   0.42660   0.49485   0.00000  Uiso   1.00
O299   O     0.34324   0.41758   0.04355   0.00000  Uiso   1.00
O300   O     0.66590   0.41533   0.46434   0.00000  Uiso   1.00
O301   O     0.79375   0.56011   0.25000   0.00000  Uiso   1.00
O302   O     0.87294   0.56012   0.25000   0.00000  Uiso   1.00
C303   C     0.83333   0.57932   0.25005   0.00000  Uiso   1.00
O304   O     0.77441   0.49998   0.32549   0.00000  Uiso   1.00
O305   O     0.85360   0.49999   0.32549   0.00000  Uiso   1.00
C306   C     0.80852   0.49399   0.34884   0.00000  Uiso   1.00
Cu307  Cu    0.78645   0.49999   0.25000   0.00000  Uiso   1.00
Cu308  Cu    0.88022   0.50001   0.25000   0.00000  Uiso   1.00
O309   O     0.79373   0.43988   0.24999   0.00000  Uiso   1.00
O310   O     0.87292   0.43989   0.24999   0.00000  Uiso   1.00
O311   O     0.81306   0.50001   0.17451   0.00000  Uiso   1.00
O312   O     0.89225   0.50002   0.17451   0.00000  Uiso   1.00
C313   C     0.83333   0.42068   0.24995   0.00000  Uiso   1.00
C314   C     0.85876   0.49809   0.15016   0.00000  Uiso   1.00
C315   C     0.93569   0.49334   0.01340   0.00000  Uiso   1.00
H316   H     0.94852   0.50649   0.08569   0.00000  Uiso   1.00
H317   H     0.97350   0.49896   0.49302   0.00000  Uiso   1.00
C318   C     0.87257   0.49228   0.09380   0.00000  Uiso   1.00
C319   C     0.74965   0.46459   0.42563   0.00000  Uiso   1.00
C320   C     0.73801   0.44689   0.47455   0.00000  Uiso   1.00
C321   C     0.77222   0.44854   0.00313   0.00000  Uiso   1.00
C322   C     0.81864   0.46652   0.48307   0.00000  Uiso   1.00
C323   C     0.83362   0.47368   0.42939   0.00000  Uiso   1.00
C324   C     0.85201   0.47554   0.01306   0.00000  Uiso   1.00
C325   C     0.90180   0.48269   0.48674   0.00000  Uiso   1.00
C326   C     0.91774   0.47894   0.43357   0.00000  Uiso   1.00
C327   C     0.88440   0.47405   0.40532   0.00000  Uiso   1.00
C328   C     0.83761   0.48079   0.06744   0.00000  Uiso   1.00
C329   C     0.92132   0.49786   0.06632   0.00000  Uiso   1.00
C330   C     0.79724   0.47809   0.40218   0.00000  Uiso   1.00
H331   H     0.72224   0.46557   0.40467   0.00000  Uiso   1.00
H332   H     0.76332   0.43239   0.03906   0.00000  Uiso   1.00
H333   H     0.90029   0.46820   0.36500   0.00000  Uiso   1.00
C334   C     0.87579   0.64541   0.25064   0.00000  Uiso   1.00
H335   H     0.90899   0.62941   0.25113   0.00000  Uiso   1.00
C336   C     0.87580   0.35464   0.25059   0.00000  Uiso   1.00
H337   H     0.90900   0.37066   0.25106   0.00000  Uiso   1.00
C338   C     0.83333   0.37607   0.24998   0.00000  Uiso   1.00
C339   C     0.79086   0.35461   0.24942   0.00000  Uiso   1.00
H340   H     0.75766   0.37061   0.24892   0.00000  Uiso   1.00
C341   C     0.79085   0.64538   0.24947   0.00000  Uiso   1.00
H342   H     0.75765   0.62936   0.24902   0.00000  Uiso   1.00
C343   C     0.83332   0.62394   0.25006   0.00000  Uiso   1.00
C344   C     0.96943   0.53150   0.27235   0.00000  Uiso   1.00
C345   C     0.68576   0.53157   0.27216   0.00000  Uiso   1.00
N346   N     0.71598   0.49999   0.24998   0.00000  Uiso   1.00
C347   C     0.69681   0.46800   0.22895   0.00000  Uiso   1.00
H348   H     0.71936   0.44194   0.21297   0.00000  Uiso   1.00
C349   C     0.98075   0.46825   0.22832   0.00000  Uiso   1.00
H350   H     0.96668   0.44285   0.21074   0.00000  Uiso   1.00
N351   N     0.95069   0.50002   0.24999   0.00000  Uiso   1.00
H352   H     0.94613   0.55663   0.29054   0.00000  Uiso   1.00
H353   H     0.69975   0.55678   0.29014   0.00000  Uiso   1.00
H354   H     0.95620   0.48090   0.41343   0.00000  Uiso   1.00
N355   N     0.78762   0.47654   0.09592   0.00000  Uiso   1.00
O356   O     0.77361   0.44388   0.12375   0.00000  Uiso   1.00
O357   O     0.75658   0.50584   0.09568   0.00000  Uiso   1.00
N358   N     0.69192   0.42660   0.49485   0.00000  Uiso   1.00
O359   O     0.67657   0.41758   0.04355   0.00000  Uiso   1.00
O360   O     0.99923   0.41533   0.46434   0.00000  Uiso   1.00
O361   O     0.12708   0.89345   0.25000   0.00000  Uiso   1.00
O362   O     0.20627   0.89346   0.25000   0.00000  Uiso   1.00
C363   C     0.16667   0.91266   0.25005   0.00000  Uiso   1.00
O364   O     0.10775   0.83332   0.32549   0.00000  Uiso   1.00
O365   O     0.18694   0.83333   0.32549   0.00000  Uiso   1.00
C366   C     0.14186   0.82732   0.34884   0.00000  Uiso   1.00
Cu367  Cu    0.11978   0.83333   0.25000   0.00000  Uiso   1.00
Cu368  Cu    0.21355   0.83334   0.25000   0.00000  Uiso   1.00
O369   O     0.12706   0.77321   0.24999   0.00000  Uiso   1.00
O370   O     0.20625   0.77322   0.24999   0.00000  Uiso   1.00
O371   O     0.14640   0.83334   0.17451   0.00000  Uiso   1.00
O372   O     0.22559   0.83335   0.17451   0.00000  Uiso   1.00
C373   C     0.16667   0.75401   0.24995   0.00000  Uiso   1.00
C374   C     0.19210   0.83143   0.15016   0.00000  Uiso   1.00
C375   C     0.26902   0.82667   0.01340   0.00000  Uiso   1.00
H376   H     0.28185   0.83982   0.08569   0.00000  Uiso   1.00
H377   H     0.30683   0.83229   0.49302   0.00000  Uiso   1.00
C378   C     0.20590   0.82561   0.09380   0.00000  Uiso   1.00
C379   C     0.08298   0.79792   0.42563   0.00000  Uiso   1.00
C380   C     0.07135   0.78022   0.47455   0.00000  Uiso   1.00
C381   C     0.10555   0.78187   0.00313   0.00000  Uiso   1.00
C382   C     0.15197   0.79986   0.48307   0.00000  Uiso   1.00
C383   C     0.16696   0.80701   0.42939   0.00000  Uiso   1.00
C384   C     0.18534   0.80888   0.01306   0.00000  Uiso   1.00
C385   C     0.23513   0.81602   0.48674   0.00000  Uiso   1.00
C386   C     0.25107   0.81227   0.43357   0.00000  Uiso   1.00
C387   C     0.21773   0.80738   0.40532   0.00000  Uiso   1.00
C388   C     0.17095   0.81413   0.06744   0.00000  Uiso   1.00
C389   C     0.25466   0.83120   0.06632   0.00000  Uiso   1.00
C390   C     0.13057   0.81142   0.40218   0.00000  Uiso   1.00
H391   H     0.05558   0.79890   0.40467   0.00000  Uiso   1.00
H392   H     0.09665   0.76572   0.03906   0.00000  Uiso   1.00
H393   H     0.23362   0.80153   0.36500   0.00000  Uiso   1.00
C394   C     0.20913   0.97874   0.25064   0.00000  Uiso   1.00
H395   H     0.24232   0.96274   0.25113   0.00000  Uiso   1.00
C396   C     0.20913   0.68797   0.25059   0.00000  Uiso   1.00
H397   H     0.24233   0.70399   0.25106   0.00000  Uiso   1.00
C398   C     0.16666   0.70941   0.24998   0.00000  Uiso   1.00
C399   C     0.12419   0.68794   0.24942   0.00000  Uiso   1.00
H400   H     0.09100   0.70394   0.24892   0.00000  Uiso   1.00
C401   C     0.12418   0.97871   0.24947   0.00000  Uiso   1.00
H402   H     0.09098   0.96269   0.24902   0.00000  Uiso   1.00
C403   C     0.16666   0.95727   0.25006   0.00000  Uiso   1.00
C404   C     0.30277   0.86483   0.27235   0.00000  Uiso   1.00
C405   C     0.01910   0.86490   0.27216   0.00000  Uiso   1.00
N406   N     0.04931   0.83332   0.24998   0.00000  Uiso   1.00
C407   C     0.03014   0.80133   0.22895   0.00000  Uiso   1.00
H408   H     0.05270   0.77528   0.21297   0.00000  Uiso   1.00
C409   C     0.31408   0.80159   0.22832   0.00000  Uiso   1.00
H410   H     0.30002   0.77619   0.21074   0.00000  Uiso   1.00
N411   N     0.28402   0.83335   0.24999   0.00000  Uiso   1.00
H412   H     0.27946   0.88997   0.29054   0.00000  Uiso   1.00
H413   H     0.03308   0.89012   0.29014   0.00000  Uiso   1.00
H414   H     0.28954   0.81424   0.41343   0.00000  Uiso   1.00
N415   N     0.12095   0.80988   0.09592   0.00000  Uiso   1.00
O416   O     0.10695   0.77721   0.12375   0.00000  Uiso   1.00
O417   O     0.08991   0.83917   0.09568   0.00000  Uiso   1.00
N418   N     0.02525   0.75993   0.49485   0.00000  Uiso   1.00
O419   O     0.00990   0.75091   0.04355   0.00000  Uiso   1.00
O420   O     0.33256   0.74866   0.46434   0.00000  Uiso   1.00
O421   O     0.46042   0.89345   0.25000   0.00000  Uiso   1.00
O422   O     0.53961   0.89346   0.25000   0.00000  Uiso   1.00
C423   C     0.50000   0.91266   0.25005   0.00000  Uiso   1.00
O424   O     0.44108   0.83332   0.32549   0.00000  Uiso   1.00
O425   O     0.52027   0.83333   0.32549   0.00000  Uiso   1.00
C426   C     0.47519   0.82732   0.34884   0.00000  Uiso   1.00
Cu427  Cu    0.45311   0.83333   0.25000   0.00000  Uiso   1.00
Cu428  Cu    0.54689   0.83334   0.25000   0.00000  Uiso   1.00
O429   O     0.46039   0.77321   0.24999   0.00000  Uiso   1.00
O430   O     0.53958   0.77322   0.24999   0.00000  Uiso   1.00
O431   O     0.47973   0.83334   0.17451   0.00000  Uiso   1.00
O432   O     0.55892   0.83335   0.17451   0.00000  Uiso   1.00
C433   C     0.50000   0.75401   0.24995   0.00000  Uiso   1.00
C434   C     0.52543   0.83143   0.15016   0.00000  Uiso   1.00
C435   C     0.60236   0.82667   0.01340   0.00000  Uiso   1.00
H436   H     0.61519   0.83982   0.08569   0.00000  Uiso   1.00
H437   H     0.64017   0.83229   0.49302   0.00000  Uiso   1.00
C438   C     0.53924   0.82561   0.09380   0.00000  Uiso   1.00
C439   C     0.41631   0.79792   0.42563   0.00000  Uiso   1.00
C440   C     0.40468   0.78022   0.47455   0.00000  Uiso   1.00
C441   C     0.43888   0.78187   0.00313   0.00000  Uiso   1.00
C442   C     0.48531   0.79986   0.48307   0.00000  Uiso   1.00
C443   C     0.50029   0.80701   0.42939   0.00000  Uiso   1.00
C444   C     0.51867   0.80888   0.01306   0.00000  Uiso   1.00
C445   C     0.56846   0.81602   0.48674   0.00000  Uiso   1.00
C446   C     0.58440   0.81227   0.43357   0.00000  Uiso   1.00
C447   C     0.55107   0.80738   0.40532   0.00000  Uiso   1.00
C448   C     0.50428   0.81413   0.06744   0.00000  Uiso   1.00
C449   C     0.58799   0.83120   0.06632   0.00000  Uiso   1.00
C450   C     0.46390   0.81142   0.40218   0.00000  Uiso   1.00
H451   H     0.38891   0.79890   0.40467   0.00000  Uiso   1.00
H452   H     0.42999   0.76572   0.03906   0.00000  Uiso   1.00
H453   H     0.56696   0.80153   0.36500   0.00000  Uiso   1.00
C454   C     0.54246   0.97874   0.25064   0.00000  Uiso   1.00
H455   H     0.57566   0.96274   0.25113   0.00000  Uiso   1.00
C456   C     0.54246   0.68797   0.25059   0.00000  Uiso   1.00
H457   H     0.57566   0.70399   0.25106   0.00000  Uiso   1.00
C458   C     0.50000   0.70941   0.24998   0.00000  Uiso   1.00
C459   C     0.45752   0.68794   0.24942   0.00000  Uiso   1.00
H460   H     0.42433   0.70394   0.24892   0.00000  Uiso   1.00
C461   C     0.45752   0.97871   0.24947   0.00000  Uiso   1.00
H462   H     0.42431   0.96269   0.24902   0.00000  Uiso   1.00
C463   C     0.49999   0.95727   0.25006   0.00000  Uiso   1.00
C464   C     0.63610   0.86483   0.27235   0.00000  Uiso   1.00
C465   C     0.35243   0.86490   0.27216   0.00000  Uiso   1.00
N466   N     0.38265   0.83332   0.24998   0.00000  Uiso   1.00
C467   C     0.36348   0.80133   0.22895   0.00000  Uiso   1.00
H468   H     0.38603   0.77528   0.21297   0.00000  Uiso   1.00
C469   C     0.64742   0.80159   0.22832   0.00000  Uiso   1.00
H470   H     0.63335   0.77619   0.21074   0.00000  Uiso   1.00
N471   N     0.61735   0.83335   0.24999   0.00000  Uiso   1.00
H472   H     0.61279   0.88997   0.29054   0.00000  Uiso   1.00
H473   H     0.36641   0.89012   0.29014   0.00000  Uiso   1.00
H474   H     0.62287   0.81424   0.41343   0.00000  Uiso   1.00
N475   N     0.45429   0.80988   0.09592   0.00000  Uiso   1.00
O476   O     0.44028   0.77721   0.12375   0.00000  Uiso   1.00
O477   O     0.42325   0.83917   0.09568   0.00000  Uiso   1.00
N478   N     0.35859   0.75993   0.49485   0.00000  Uiso   1.00
O479   O     0.34324   0.75091   0.04355   0.00000  Uiso   1.00
O480   O     0.66590   0.74866   0.46434   0.00000  Uiso   1.00
O481   O     0.79375   0.89345   0.25000   0.00000  Uiso   1.00
O482   O     0.87294   0.89346   0.25000   0.00000  Uiso   1.00
C483   C     0.83333   0.91266   0.25005   0.00000  Uiso   1.00
O484   O     0.77441   0.83332   0.32549   0.00000  Uiso   1.00
O485   O     0.85360   0.83333   0.32549   0.00000  Uiso   1.00
C486   C     0.80852   0.82732   0.34884   0.00000  Uiso   1.00
Cu487  Cu    0.78645   0.83333   0.25000   0.00000  Uiso   1.00
Cu488  Cu    0.88022   0.83334   0.25000   0.00000  Uiso   1.00
O489   O     0.79373   0.77321   0.24999   0.00000  Uiso   1.00
O490   O     0.87292   0.77322   0.24999   0.00000  Uiso   1.00
O491   O     0.81306   0.83334   0.17451   0.00000  Uiso   1.00
O492   O     0.89225   0.83335   0.17451   0.00000  Uiso   1.00
C493   C     0.83333   0.75401   0.24995   0.00000  Uiso   1.00
C494   C     0.85876   0.83143   0.15016   0.00000  Uiso   1.00
C495   C     0.93569   0.82667   0.01340   0.00000  Uiso   1.00
H496   H     0.94852   0.83982   0.08569   0.00000  Uiso   1.00
H497   H     0.97350   0.83229   0.49302   0.00000  Uiso   1.00
C498   C     0.87257   0.82561   0.09380   0.00000  Uiso   1.00
C499   C     0.74965   0.79792   0.42563   0.00000  Uiso   1.00
C500   C     0.73801   0.78022   0.47455   0.00000  Uiso   1.00
C501   C     0.77222   0.78187   0.00313   0.00000  Uiso   1.00
C502   C     0.81864   0.79986   0.48307   0.00000  Uiso   1.00
C503   C     0.83362   0.80701   0.42939   0.00000  Uiso   1.00
C504   C     0.85201   0.80888   0.01306   0.00000  Uiso   1.00
C505   C     0.90180   0.81602   0.48674   0.00000  Uiso   1.00
C506   C     0.91774   0.81227   0.43357   0.00000  Uiso   1.00
C507   C     0.88440   0.80738   0.40532   0.00000  Uiso   1.00
C508   C     0.83761   0.81413   0.06744   0.00000  Uiso   1.00
C509   C     0.92132   0.83120   0.06632   0.00000  Uiso   1.00
C510   C     0.79724   0.81142   0.40218   0.00000  Uiso   1.00
H511   H     0.72224   0.79890   0.40467   0.00000  Uiso   1.00
H512   H     0.76332   0.76572   0.03906   0.00000  Uiso   1.00
H513   H     0.90029   0.80153   0.36500   0.00000  Uiso   1.00
C514   C     0.87579   0.97874   0.25064   0.00000  Uiso   1.00
H515   H     0.90899   0.96274   0.25113   0.00000  Uiso   1.00
C516   C     0.87580   0.68797   0.25059   0.00000  Uiso   1.00
H517   H     0.90900   0.70399   0.25106   0.00000  Uiso   1.00
C518   C     0.83333   0.70941   0.24998   0.00000  Uiso   1.00
C519   C     0.79086   0.68794   0.24942   0.00000  Uiso   1.00
H520   H     0.75766   0.70394   0.24892   0.00000  Uiso   1.00
C521   C     0.79085   0.97871   0.24947   0.00000  Uiso   1.00
H522   H     0.75765   0.96269   0.24902   0.00000  Uiso   1.00
C523   C     0.83332   0.95727   0.25006   0.00000  Uiso   1.00
C524   C     0.96943   0.86483   0.27235   0.00000  Uiso   1.00
C525   C     0.68576   0.86490   0.27216   0.00000  Uiso   1.00
N526   N     0.71598   0.83332   0.24998   0.00000  Uiso   1.00
C527   C     0.69681   0.80133   0.22895   0.00000  Uiso   1.00
H528   H     0.71936   0.77528   0.21297   0.00000  Uiso   1.00
C529   C     0.98075   0.80159   0.22832   0.00000  Uiso   1.00
H530   H     0.96668   0.77619   0.21074   0.00000  Uiso   1.00
N531   N     0.95069   0.83335   0.24999   0.00000  Uiso   1.00
H532   H     0.94613   0.88997   0.29054   0.00000  Uiso   1.00
H533   H     0.69975   0.89012   0.29014   0.00000  Uiso   1.00
H534   H     0.95620   0.81424   0.41343   0.00000  Uiso   1.00
N535   N     0.78762   0.80988   0.09592   0.00000  Uiso   1.00
O536   O     0.77361   0.77721   0.12375   0.00000  Uiso   1.00
O537   O     0.75658   0.83917   0.09568   0.00000  Uiso   1.00
N538   N     0.69192   0.75993   0.49485   0.00000  Uiso   1.00
O539   O     0.67657   0.75091   0.04355   0.00000  Uiso   1.00
O540   O     0.99923   0.74866   0.46434   0.00000  Uiso   1.00
O541   O     0.12708   0.22678   0.75000   0.00000  Uiso   1.00
O542   O     0.20627   0.22679   0.75000   0.00000  Uiso   1.00
C543   C     0.16667   0.24599   0.75005   0.00000  Uiso   1.00
O544   O     0.10775   0.16665   0.82549   0.00000  Uiso   1.00
O545   O     0.18694   0.16666   0.82549   0.00000  Uiso   1.00
C546   C     0.14186   0.16066   0.84884   0.00000  Uiso   1.00
Cu547  Cu    0.11978   0.16666   0.75000   0.00000  Uiso   1.00
Cu548  Cu    0.21355   0.16667   0.75000   0.00000  Uiso   1.00
O549   O     0.12706   0.10654   0.74999   0.00000  Uiso   1.00
O550   O     0.20625   0.10655   0.74999   0.00000  Uiso   1.00
O551   O     0.14640   0.16667   0.67451   0.00000  Uiso   1.00
O552   O     0.22559   0.16668   0.67451   0.00000  Uiso   1.00
C553   C     0.16667   0.08734   0.74995   0.00000  Uiso   1.00
C554   C     0.19210   0.16476   0.65016   0.00000  Uiso   1.00
C555   C     0.26902   0.16000   0.51340   0.00000  Uiso   1.00
H556   H     0.28185   0.17315   0.58569   0.00000  Uiso   1.00
H557   H     0.30683   0.16563   0.99302   0.00000  Uiso   1.00
C558   C     0.20590   0.15894   0.59380   0.00000  Uiso   1.00
C559   C     0.08298   0.13126   0.92563   0.00000  Uiso   1.00
C560   C     0.07135   0.11355   0.97455   0.00000  Uiso   1.00
C561   C     0.10555   0.11521   0.50313   0.00000  Uiso   1.00
C562   C     0.15197   0.13319   0.98307   0.00000  Uiso   1.00
C563   C     0.16696   0.14034   0.92939   0.00000  Uiso   1.00
C564   C     0.18534   0.14221   0.51306   0.00000  Uiso   1.00
C565   C     0.23513   0.14936   0.98674   0.00000  Uiso   1.00
C566   C     0.25107   0.14561   0.93357   0.00000  Uiso   1.00
C567   C     0.21773   0.14071   0.90532   0.00000  Uiso   1.00
C568   C     0.17095   0.14746   0.56744   0.00000  Uiso   1.00
C569   C     0.25466   0.16453   0.56632   0.00000  Uiso   1.00
C570   C     0.13057   0.14475   0.90218   0.00000  Uiso   1.00
H571   H     0.05558   0.13223   0.90467   0.00000  Uiso   1.00
H572   H     0.09665   0.09906   0.53906   0.00000  Uiso   1.00
H573   H     0.23362   0.13487   0.86500   0.00000  Uiso   1.00
C574   C     0.20913   0.31207   0.75064   0.00000  Uiso   1.00
H575   H     0.24232   0.29608   0.75113   0.00000  Uiso   1.00
C576   C     0.20913   0.02131   0.75059   0.00000  Uiso   1.00
H577   H     0.24233   0.03733   0.75106   0.00000  Uiso   1.00
C578   C     0.16666   0.04274   0.74998   0.00000  Uiso   1.00
C579   C     0.12419   0.02128   0.74942   0.00000  Uiso   1.00
H580   H     0.09100   0.03728   0.74892   0.00000  Uiso   1.00
C581   C     0.12418   0.31205   0.74947   0.00000  Uiso   1.00
H582   H     0.09098   0.29603   0.74902   0.00000  Uiso   1.00
C583   C     0.16666   0.29061   0.75006   0.00000  Uiso   1.00
C584   C     0.30277   0.19816   0.77235   0.00000  Uiso   1.00
C585   C     0.01910   0.19823   0.77216   0.00000  Uiso   1.00
N586   N     0.04931   0.16666   0.74998   0.00000  Uiso   1.00
C587   C     0.03014   0.13467   0.72895   0.00000  Uiso   1.00
H588   H     0.05270   0.10861   0.71297   0.00000  Uiso   1.00
C589   C     0.31408   0.13492   0.72832   0.00000  Uiso   1.00
H590   H     0.30002   0.10952   0.71074   0.00000  Uiso   1.00
N591   N     0.28402   0.16669   0.74999   0.00000  Uiso   1.00
H592   H     0.27946   0.22330   0.79054   0.00000  Uiso   1.00
H593   H     0.03308   0.22345   0.79014   0.00000  Uiso   1.00
H594   H     0.28954   0.14757   0.91343   0.00000  Uiso   1.00
N595   N     0.12095   0.14321   0.59592   0.00000  Uiso   1.00
O596   O     0.10695   0.11054   0.62375   0.00000  Uiso   1.00
O597   O     0.08991   0.17251   0.59568   0.00000  Uiso   1.00
N598   N     0.02525   0.09326   0.99485   0.00000  Uiso   1.00
O599   O     0.00990   0.08424   0.54355   0.00000  Uiso   1.00
O600   O     0.33256   0.08199   0.96434   0.00000  Uiso   1.00
O601   O     0.46042   0.22678   0.75000   0.00000  Uiso   1.00
O602   O     0.53961   0.22679   0.75000   0.00000  Uiso   1.00
C603   C     0.50000   0.24599   0.75005   0.00000  Uiso   1.00
O604   O     0.44108   0.16665   0.82549   0.00000  Uiso   1.00
O605   O     0.52027   0.16666   0.82549   0.00000  Uiso   1.00
C606   C     0.47519   0.16066   0.84884   0.00000  Uiso   1.00
Cu607  Cu    0.45311   0.16666   0.75000   0.00000  Uiso   1.00
Cu608  Cu    0.54689   0.16667   0.75000   0.00000  Uiso   1.00
O609   O     0.46039   0.10654   0.74999   0.00000  Uiso   1.00
O610   O     0.53958   0.10655   0.74999   0.00000  Uiso   1.00
O611   O     0.47973   0.16667   0.67451   0.00000  Uiso   1.00
O612   O     0.55892   0.16668   0.67451   0.00000  Uiso   1.00
C613   C     0.50000   0.08734   0.74995   0.00000  Uiso   1.00
C614   C     0.52543   0.16476   0.65016   0.00000  Uiso   1.00
C615   C     0.60236   0.16000   0.51340   0.00000  Uiso   1.00
H616   H     0.61519   0.17315   0.58569   0.00000  Uiso   1.00
H617   H     0.64017   0.16563   0.99302   0.00000  Uiso   1.00
C618   C     0.53924   0.15894   0.59380   0.00000  Uiso   1.00
C619   C     0.41631   0.13126   0.92563   0.00000  Uiso   1.00
C620   C     0.40468   0.11355   0.97455   0.00000  Uiso   1.00
C621   C     0.43888   0.11521   0.50313   0.00000  Uiso   1.00
C622   C     0.48531   0.13319   0.98307   0.00000  Uiso   1.00
C623   C     0.50029   0.14034   0.92939   0.00000  Uiso   1.00
C624   C     0.51867   0.14221   0.51306   0.00000  Uiso   1.00
C625   C     0.56846   0.14936   0.98674   0.00000  Uiso   1.00
C626   C     0.58440   0.14561   0.93357   0.00000  Uiso   1.00
C627   C     0.55107   0.14071   0.90532   0.00000  Uiso   1.00
C628   C     0.50428   0.14746   0.56744   0.00000  Uiso   1.00
C629   C     0.58799   0.16453   0.56632   0.00000  Uiso   1.00
C630   C     0.46390   0.14475   0.90218   0.00000  Uiso   1.00
H631   H     0.38891   0.13223   0.90467   0.00000  Uiso   1.00
H632   H     0.42999   0.09906   0.53906   0.00000  Uiso   1.00
H633   H     0.56696   0.13487   0.86500   0.00000  Uiso   1.00
C634   C     0.54246   0.31207   0.75064   0.00000  Uiso   1.00
H635   H     0.57566   0.29608   0.75113   0.00000  Uiso   1.00
C636   C     0.54246   0.02131   0.75059   0.00000  Uiso   1.00
H637   H     0.57566   0.03733   0.75106   0.00000  Uiso   1.00
C638   C     0.50000   0.04274   0.74998   0.00000  Uiso   1.00
C639   C     0.45752   0.02128   0.74942   0.00000  Uiso   1.00
H640   H     0.42433   0.03728   0.74892   0.00000  Uiso   1.00
C641   C     0.45752   0.31205   0.74947   0.00000  Uiso   1.00
H642   H     0.42431   0.29603   0.74902   0.00000  Uiso   1.00
C643   C     0.49999   0.29061   0.75006   0.00000  Uiso   1.00
C644   C     0.63610   0.19816   0.77235   0.00000  Uiso   1.00
C645   C     0.35243   0.19823   0.77216   0.00000  Uiso   1.00
N646   N     0.38265   0.16666   0.74998   0.00000  Uiso   1.00
C647   C     0.36348   0.13467   0.72895   0.00000  Uiso   1.00
H648   H     0.38603   0.10861   0.71297   0.00000  Uiso   1.00
C649   C     0.64742   0.13492   0.72832   0.00000  Uiso   1.00
H650   H     0.63335   0.10952   0.71074   0.00000  Uiso   1.00
N651   N     0.61735   0.16669   0.74999   0.00000  Uiso   1.00
H652   H     0.61279   0.22330   0.79054   0.00000  Uiso   1.00
H653   H     0.36641   0.22345   0.79014   0.00000  Uiso   1.00
H654   H     0.62287   0.14757   0.91343   0.00000  Uiso   1.00
N655   N     0.45429   0.14321   0.59592   0.00000  Uiso   1.00
O656   O     0.44028   0.11054   0.62375   0.00000  Uiso   1.00
O657   O     0.42325   0.17251   0.59568   0.00000  Uiso   1.00
N658   N     0.35859   0.09326   0.99485   0.00000  Uiso   1.00
O659   O     0.34324   0.08424   0.54355   0.00000  Uiso   1.00
O660   O     0.66590   0.08199   0.96434   0.00000  Uiso   1.00
O661   O     0.79375   0.22678   0.75000   0.00000  Uiso   1.00
O662   O     0.87294   0.22679   0.75000   0.00000  Uiso   1.00
C663   C     0.83333   0.24599   0.75005   0.00000  Uiso   1.00
O664   O     0.77441   0.16665   0.82549   0.00000  Uiso   1.00
O665   O     0.85360   0.16666   0.82549   0.00000  Uiso   1.00
C666   C     0.80852   0.16066   0.84884   0.00000  Uiso   1.00
Cu667  Cu    0.78645   0.16666   0.75000   0.00000  Uiso   1.00
Cu668  Cu    0.88022   0.16667   0.75000   0.00000  Uiso   1.00
O669   O     0.79373   0.10654   0.74999   0.00000  Uiso   1.00
O670   O     0.87292   0.10655   0.74999   0.00000  Uiso   1.00
O671   O     0.81306   0.16667   0.67451   0.00000  Uiso   1.00
O672   O     0.89225   0.16668   0.67451   0.00000  Uiso   1.00
C673   C     0.83333   0.08734   0.74995   0.00000  Uiso   1.00
C674   C     0.85876   0.16476   0.65016   0.00000  Uiso   1.00
C675   C     0.93569   0.16000   0.51340   0.00000  Uiso   1.00
H676   H     0.94852   0.17315   0.58569   0.00000  Uiso   1.00
H677   H     0.97350   0.16563   0.99302   0.00000  Uiso   1.00
C678   C     0.87257   0.15894   0.59380   0.00000  Uiso   1.00
C679   C     0.74965   0.13126   0.92563   0.00000  Uiso   1.00
C680   C     0.73801   0.11355   0.97455   0.00000  Uiso   1.00
C681   C     0.77222   0.11521   0.50313   0.00000  Uiso   1.00
C682   C     0.81864   0.13319   0.98307   0.00000  Uiso   1.00
C683   C     0.83362   0.14034   0.92939   0.00000  Uiso   1.00
C684   C     0.85201   0.14221   0.51306   0.00000  Uiso   1.00
C685   C     0.90180   0.14936   0.98674   0.00000  Uiso   1.00
C686   C     0.91774   0.14561   0.93357   0.00000  Uiso   1.00
C687   C     0.88440   0.14071   0.90532   0.00000  Uiso   1.00
C688   C     0.83761   0.14746   0.56744   0.00000  Uiso   1.00
C689   C     0.92132   0.16453   0.56632   0.00000  Uiso   1.00
C690   C     0.79724   0.14475   0.90218   0.00000  Uiso   1.00
H691   H     0.72224   0.13223   0.90467   0.00000  Uiso   1.00
H692   H     0.76332   0.09906   0.53906   0.00000  Uiso   1.00
H693   H     0.90029   0.13487   0.86500   0.00000  Uiso   1.00
C694   C     0.87579   0.31207   0.75064   0.00000  Uiso   1.00
H695   H     0.90899   0.29608   0.75113   0.00000  Uiso   1.00
C696   C     0.87580   0.02131   0.75059   0.00000  Uiso   1.00
H697   H     0.90900   0.03733   0.75106   0.00000  Uiso   1.00
C698   C     0.83333   0.04274   0.74998   0.00000  Uiso   1.00
C699   C     0.79086   0.02128   0.74942   0.00000  Uiso   1.00
H700   H     0.75766   0.03728   0.74892   0.00000  Uiso   1.00
C701   C     0.79085   0.31205   0.74947   0.00000  Uiso   1.00
H702   H     0.75765   0.29603   0.74902   0.00000  Uiso   1.00
C703   C     0.83332   0.29061   0.75006   0.00000  Uiso   1.00
C704   C     0.96943   0.19816   0.77235   0.00000  Uiso   1.00
C705   C     0.68576   0.19823   0.77216   0.00000  Uiso   1.00
N706   N     0.71598   0.16666   0.74998   0.00000  Uiso   1.00
C707   C     0.69681   0.13467   0.72895   0.00000  Uiso   1.00
H708   H     0.71936   0.10861   0.71297   0.00000  Uiso   1.00
C709   C     0.98075   0.13492   0.72832   0.00000  Uiso   1.00
H710   H     0.96668   0.10952   0.71074   0.00000  Uiso   1.00
N711   N     0.95069   0.16669   0.74999   0.00000  Uiso   1.00
H712   H     0.94613   0.22330   0.79054   0.00000  Uiso   1.00
H713   H     0.69975   0.22345   0.79014   0.00000  Uiso   1.00
H714   H     0.95620   0.14757   0.91343   0.00000  Uiso   1.00
N715   N     0.78762   0.14321   0.59592   0.00000  Uiso   1.00
O716   O     0.77361   0.11054   0.62375   0.00000  Uiso   1.00
O717   O     0.75658   0.17251   0.59568   0.00000  Uiso   1.00
N718   N     0.69192   0.09326   0.99485   0.00000  Uiso   1.00
O719   O     0.67657   0.08424   0.54355   0.00000  Uiso   1.00
O720   O     0.99923   0.08199   0.96434   0.00000  Uiso   1.00
O721   O     0.12708   0.56011   0.75000   0.00000  Uiso   1.00
O722   O     0.20627   0.56012   0.75000   0.00000  Uiso   1.00
C723   C     0.16667   0.57932   0.75005   0.00000  Uiso   1.00
O724   O     0.10775   0.49998   0.82549   0.00000  Uiso   1.00
O725   O     0.18694   0.49999   0.82549   0.00000  Uiso   1.00
C726   C     0.14186   0.49399   0.84884   0.00000  Uiso   1.00
Cu727  Cu    0.11978   0.49999   0.75000   0.00000  Uiso   1.00
Cu728  Cu    0.21355   0.50001   0.75000   0.00000  Uiso   1.00
O729   O     0.12706   0.43988   0.74999   0.00000  Uiso   1.00
O730   O     0.20625   0.43989   0.74999   0.00000  Uiso   1.00
O731   O     0.14640   0.50001   0.67451   0.00000  Uiso   1.00
O732   O     0.22559   0.50002   0.67451   0.00000  Uiso   1.00
C733   C     0.16667   0.42068   0.74995   0.00000  Uiso   1.00
C734   C     0.19210   0.49809   0.65016   0.00000  Uiso   1.00
C735   C     0.26902   0.49334   0.51340   0.00000  Uiso   1.00
H736   H     0.28185   0.50649   0.58569   0.00000  Uiso   1.00
H737   H     0.30683   0.49896   0.99302   0.00000  Uiso   1.00
C738   C     0.20590   0.49228   0.59380   0.00000  Uiso   1.00
C739   C     0.08298   0.46459   0.92563   0.00000  Uiso   1.00
C740   C     0.07135   0.44689   0.97455   0.00000  Uiso   1.00
C741   C     0.10555   0.44854   0.50313   0.00000  Uiso   1.00
C742   C     0.15197   0.46652   0.98307   0.00000  Uiso   1.00
C743   C     0.16696   0.47368   0.92939   0.00000  Uiso   1.00
C744   C     0.18534   0.47554   0.51306   0.00000  Uiso   1.00
C745   C     0.23513   0.48269   0.98674   0.00000  Uiso   1.00
C746   C     0.25107   0.47894   0.93357   0.00000  Uiso   1.00
C747   C     0.21773   0.47405   0.90532   0.00000  Uiso   1.00
C748   C     0.17095   0.48079   0.56744   0.00000  Uiso   1.00
C749   C     0.25466   0.49786   0.56632   0.00000  Uiso   1.00
C750   C     0.13057   0.47809   0.90218   0.00000  Uiso   1.00
H751   H     0.05558   0.46557   0.90467   0.00000  Uiso   1.00
H752   H     0.09665   0.43239   0.53906   0.00000  Uiso   1.00
H753   H     0.23362   0.46820   0.86500   0.00000  Uiso   1.00
C754   C     0.20913   0.64541   0.75064   0.00000  Uiso   1.00
H755   H     0.24232   0.62941   0.75113   0.00000  Uiso   1.00
C756   C     0.20913   0.35464   0.75059   0.00000  Uiso   1.00
H757   H     0.24233   0.37066   0.75106   0.00000  Uiso   1.00
C758   C     0.16666   0.37607   0.74998   0.00000  Uiso   1.00
C759   C     0.12419   0.35461   0.74942   0.00000  Uiso   1.00
H760   H     0.09100   0.37061   0.74892   0.00000  Uiso   1.00
C761   C     0.12418   0.64538   0.74947   0.00000  Uiso   1.00
H762   H     0.09098   0.62936   0.74902   0.00000  Uiso   1.00
C763   C     0.16666   0.62394   0.75006   0.00000  Uiso   1.00
C764   C     0.30277   0.53150   0.77235   0.00000  Uiso   1.00
C765   C     0.01910   0.53157   0.77216   0.00000  Uiso   1.00
N766   N     0.04931   0.49999   0.74998   0.00000  Uiso   1.00
C767   C     0.03014   0.46800   0.72895   0.00000  Uiso   1.00
H768   H     0.05270   0.44194   0.71297   0.00000  Uiso   1.00
C769   C     0.31408   0.46825   0.72832   0.00000  Uiso   1.00
H770   H     0.30002   0.44285   0.71074   0.00000  Uiso   1.00
N771   N     0.28402   0.50002   0.74999   0.00000  Uiso   1.00
H772   H     0.27946   0.55663   0.79054   0.00000  Uiso   1.00
H773   H     0.03308   0.55678   0.79014   0.00000  Uiso   1.00
H774   H     0.28954   0.48090   0.91343   0.00000  Uiso   1.00
N775   N     0.12095   0.47654   0.59592   0.00000  Uiso   1.00
O776   O     0.10695   0.44388   0.62375   0.00000  Uiso   1.00
O777   O     0.08991   0.50584   0.59568   0.00000  Uiso   1.00
N778   N     0.02525   0.42660   0.99485   0.00000  Uiso   1.00
O779   O     0.00990   0.41758   0.54355   0.00000  Uiso   1.00
O780   O     0.33256   0.41533   0.96434   0.00000  Uiso   1.00
O781   O     0.46042   0.56011   0.75000   0.00000  Uiso   1.00
O782   O     0.53961   0.56012   0.75000   0.00000  Uiso   1.00
C783   C     0.50000   0.57932   0.75005   0.00000  Uiso   1.00
O784   O     0.44108   0.49998   0.82549   0.00000  Uiso   1.00
O785   O     0.52027   0.49999   0.82549   0.00000  Uiso   1.00
C786   C     0.47519   0.49399   0.84884   0.00000  Uiso   1.00
Cu787  Cu    0.45311   0.49999   0.75000   0.00000  Uiso   1.00
Cu788  Cu    0.54689   0.50001   0.75000   0.00000  Uiso   1.00
O789   O     0.46039   0.43988   0.74999   0.00000  Uiso   1.00
O790   O     0.53958   0.43989   0.74999   0.00000  Uiso   1.00
O791   O     0.47973   0.50001   0.67451   0.00000  Uiso   1.00
O792   O     0.55892   0.50002   0.67451   0.00000  Uiso   1.00
C793   C     0.50000   0.42068   0.74995   0.00000  Uiso   1.00
C794   C     0.52543   0.49809   0.65016   0.00000  Uiso   1.00
C795   C     0.60236   0.49334   0.51340   0.00000  Uiso   1.00
H796   H     0.61519   0.50649   0.58569   0.00000  Uiso   1.00
H797   H     0.64017   0.49896   0.99302   0.00000  Uiso   1.00
C798   C     0.53924   0.49228   0.59380   0.00000  Uiso   1.00
C799   C     0.41631   0.46459   0.92563   0.00000  Uiso   1.00
C800   C     0.40468   0.44689   0.97455   0.00000  Uiso   1.00
C801   C     0.43888   0.44854   0.50313   0.00000  Uiso   1.00
C802   C     0.48531   0.46652   0.98307   0.00000  Uiso   1.00
C803   C     0.50029   0.47368   0.92939   0.00000  Uiso   1.00
C804   C     0.51867   0.47554   0.51306   0.00000  Uiso   1.00
C805   C     0.56846   0.48269   0.98674   0.00000  Uiso   1.00
C806   C     0.58440   0.47894   0.93357   0.00000  Uiso   1.00
C807   C     0.55107   0.47405   0.90532   0.00000  Uiso   1.00
C808   C     0.50428   0.48079   0.56744   0.00000  Uiso   1.00
C809   C     0.58799   0.49786   0.56632   0.00000  Uiso   1.00
C810   C     0.46390   0.47809   0.90218   0.00000  Uiso   1.00
H811   H     0.38891   0.46557   0.90467   0.00000  Uiso   1.00
H812   H     0.42999   0.43239   0.53906   0.00000  Uiso   1.00
H813   H     0.56696   0.46820   0.86500   0.00000  Uiso   1.00
C814   C     0.54246   0.64541   0.75064   0.00000  Uiso   1.00
H815   H     0.57566   0.62941   0.75113   0.00000  Uiso   1.00
C816   C     0.54246   0.35464   0.75059   0.00000  Uiso   1.00
H817   H     0.57566   0.37066   0.75106   0.00000  Uiso   1.00
C818   C     0.50000   0.37607   0.74998   0.00000  Uiso   1.00
C819   C     0.45752   0.35461   0.74942   0.00000  Uiso   1.00
H820   H     0.42433   0.37061   0.74892   0.00000  Uiso   1.00
C821   C     0.45752   0.64538   0.74947   0.00000  Uiso   1.00
H822   H     0.42431   0.62936   0.74902   0.00000  Uiso   1.00
C823   C     0.49999   0.62394   0.75006   0.00000  Uiso   1.00
C824   C     0.63610   0.53150   0.77235   0.00000  Uiso   1.00
C825   C     0.35243   0.53157   0.77216   0.00000  Uiso   1.00
N826   N     0.38265   0.49999   0.74998   0.00000  Uiso   1.00
C827   C     0.36348   0.46800   0.72895   0.00000  Uiso   1.00
H828   H     0.38603   0.44194   0.71297   0.00000  Uiso   1.00
C829   C     0.64742   0.46825   0.72832   0.00000  Uiso   1.00
H830   H     0.63335   0.44285   0.71074   0.00000  Uiso   1.00
N831   N     0.61735   0.50002   0.74999   0.00000  Uiso   1.00
H832   H     0.61279   0.55663   0.79054   0.00000  Uiso   1.00
H833   H     0.36641   0.55678   0.79014   0.00000  Uiso   1.00
H834   H     0.62287   0.48090   0.91343   0.00000  Uiso   1.00
N835   N     0.45429   0.47654   0.59592   0.00000  Uiso   1.00
O836   O     0.44028   0.44388   0.62375   0.00000  Uiso   1.00
O837   O     0.42325   0.50584   0.59568   0.00000  Uiso   1.00
N838   N     0.35859   0.42660   0.99485   0.00000  Uiso   1.00
O839   O     0.34324   0.41758   0.54355   0.00000  Uiso   1.00
O840   O     0.66590   0.41533   0.96434   0.00000  Uiso   1.00
O841   O     0.79375   0.56011   0.75000   0.00000  Uiso   1.00
O842   O     0.87294   0.56012   0.75000   0.00000  Uiso   1.00
C843   C     0.83333   0.57932   0.75005   0.00000  Uiso   1.00
O844   O     0.77441   0.49998   0.82549   0.00000  Uiso   1.00
O845   O     0.85360   0.49999   0.82549   0.00000  Uiso   1.00
C846   C     0.80852   0.49399   0.84884   0.00000  Uiso   1.00
Cu847  Cu    0.78645   0.49999   0.75000   0.00000  Uiso   1.00
Cu848  Cu    0.88022   0.50001   0.75000   0.00000  Uiso   1.00
O849   O     0.79373   0.43988   0.74999   0.00000  Uiso   1.00
O850   O     0.87292   0.43989   0.74999   0.00000  Uiso   1.00
O851   O     0.81306   0.50001   0.67451   0.00000  Uiso   1.00
O852   O     0.89225   0.50002   0.67451   0.00000  Uiso   1.00
C853   C     0.83333   0.42068   0.74995   0.00000  Uiso   1.00
C854   C     0.85876   0.49809   0.65016   0.00000  Uiso   1.00
C855   C     0.93569   0.49334   0.51340   0.00000  Uiso   1.00
H856   H     0.94852   0.50649   0.58569   0.00000  Uiso   1.00
H857   H     0.97350   0.49896   0.99302   0.00000  Uiso   1.00
C858   C     0.87257   0.49228   0.59380   0.00000  Uiso   1.00
C859   C     0.74965   0.46459   0.92563   0.00000  Uiso   1.00
C860   C     0.73801   0.44689   0.97455   0.00000  Uiso   1.00
C861   C     0.77222   0.44854   0.50313   0.00000  Uiso   1.00
C862   C     0.81864   0.46652   0.98307   0.00000  Uiso   1.00
C863   C     0.83362   0.47368   0.92939   0.00000  Uiso   1.00
C864   C     0.85201   0.47554   0.51306   0.00000  Uiso   1.00
C865   C     0.90180   0.48269   0.98674   0.00000  Uiso   1.00
C866   C     0.91774   0.47894   0.93357   0.00000  Uiso   1.00
C867   C     0.88440   0.47405   0.90532   0.00000  Uiso   1.00
C868   C     0.83761   0.48079   0.56744   0.00000  Uiso   1.00
C869   C     0.92132   0.49786   0.56632   0.00000  Uiso   1.00
C870   C     0.79724   0.47809   0.90218   0.00000  Uiso   1.00
H871   H     0.72224   0.46557   0.90467   0.00000  Uiso   1.00
H872   H     0.76332   0.43239   0.53906   0.00000  Uiso   1.00
H873   H     0.90029   0.46820   0.86500   0.00000  Uiso   1.00
C874   C     0.87579   0.64541   0.75064   0.00000  Uiso   1.00
H875   H     0.90899   0.62941   0.75113   0.00000  Uiso   1.00
C876   C     0.87580   0.35464   0.75059   0.00000  Uiso   1.00
H877   H     0.90900   0.37066   0.75106   0.00000  Uiso   1.00
C878   C     0.83333   0.37607   0.74998   0.00000  Uiso   1.00
C879   C     0.79086   0.35461   0.74942   0.00000  Uiso   1.00
H880   H     0.75766   0.37061   0.74892   0.00000  Uiso   1.00
C881   C     0.79085   0.64538   0.74947   0.00000  Uiso   1.00
H882   H     0.75765   0.62936   0.74902   0.00000  Uiso   1.00
C883   C     0.83332   0.62394   0.75006   0.00000  Uiso   1.00
C884   C     0.96943   0.53150   0.77235   0.00000  Uiso   1.00
C885   C     0.68576   0.53157   0.77216   0.00000  Uiso   1.00
N886   N     0.71598   0.49999   0.74998   0.00000  Uiso   1.00
C887   C     0.69681   0.46800   0.72895   0.00000  Uiso   1.00
H888   H     0.71936   0.44194   0.71297   0.00000  Uiso   1.00
C889   C     0.98075   0.46825   0.72832   0.00000  Uiso   1.00
H890   H     0.96668   0.44285   0.71074   0.00000  Uiso   1.00
N891   N     0.95069   0.50002   0.74999   0.00000  Uiso   1.00
H892   H     0.94613   0.55663   0.79054   0.00000  Uiso   1.00
H893   H     0.69975   0.55678   0.79014   0.00000  Uiso   1.00
H894   H     0.95620   0.48090   0.91343   0.00000  Uiso   1.00
N895   N     0.78762   0.47654   0.59592   0.00000  Uiso   1.00
O896   O     0.77361   0.44388   0.62375   0.00000  Uiso   1.00
O897   O     0.75658   0.50584   0.59568   0.00000  Uiso   1.00
N898   N     0.69192   0.42660   0.99485   0.00000  Uiso   1.00
O899   O     0.67657   0.41758   0.54355   0.00000  Uiso   1.00
O900   O     0.99923   0.41533   0.96434   0.00000  Uiso   1.00
O901   O     0.12708   0.89345   0.75000   0.00000  Uiso   1.00
O902   O     0.20627   0.89346   0.75000   0.00000  Uiso   1.00
C903   C     0.16667   0.91266   0.75005   0.00000  Uiso   1.00
O904   O     0.10775   0.83332   0.82549   0.00000  Uiso   1.00
O905   O     0.18694   0.83333   0.82549   0.00000  Uiso   1.00
C906   C     0.14186   0.82732   0.84884   0.00000  Uiso   1.00
Cu907  Cu    0.11978   0.83333   0.75000   0.00000  Uiso   1.00
Cu908  Cu    0.21355   0.83334   0.75000   0.00000  Uiso   1.00
O909   O     0.12706   0.77321   0.74999   0.00000  Uiso   1.00
O910   O     0.20625   0.77322   0.74999   0.00000  Uiso   1.00
O911   O     0.14640   0.83334   0.67451   0.00000  Uiso   1.00
O912   O     0.22559   0.83335   0.67451   0.00000  Uiso   1.00
C913   C     0.16667   0.75401   0.74995   0.00000  Uiso   1.00
C914   C     0.19210   0.83143   0.65016   0.00000  Uiso   1.00
C915   C     0.26902   0.82667   0.51340   0.00000  Uiso   1.00
H916   H     0.28185   0.83982   0.58569   0.00000  Uiso   1.00
H917   H     0.30683   0.83229   0.99302   0.00000  Uiso   1.00
C918   C     0.20590   0.82561   0.59380   0.00000  Uiso   1.00
C919   C     0.08298   0.79792   0.92563   0.00000  Uiso   1.00
C920   C     0.07135   0.78022   0.97455   0.00000  Uiso   1.00
C921   C     0.10555   0.78187   0.50313   0.00000  Uiso   1.00
C922   C     0.15197   0.79986   0.98307   0.00000  Uiso   1.00
C923   C     0.16696   0.80701   0.92939   0.00000  Uiso   1.00
C924   C     0.18534   0.80888   0.51306   0.00000  Uiso   1.00
C925   C     0.23513   0.81602   0.98674   0.00000  Uiso   1.00
C926   C     0.25107   0.81227   0.93357   0.00000  Uiso   1.00
C927   C     0.21773   0.80738   0.90532   0.00000  Uiso   1.00
C928   C     0.17095   0.81413   0.56744   0.00000  Uiso   1.00
C929   C     0.25466   0.83120   0.56632   0.00000  Uiso   1.00
C930   C     0.13057   0.81142   0.90218   0.00000  Uiso   1.00
H931   H     0.05558   0.79890   0.90467   0.00000  Uiso   1.00
H932   H     0.09665   0.76572   0.53906   0.00000  Uiso   1.00
H933   H     0.23362   0.80153   0.86500   0.00000  Uiso   1.00
C934   C     0.20913   0.97874   0.75064   0.00000  Uiso   1.00
H935   H     0.24232   0.96274   0.75113   0.00000  Uiso   1.00
C936   C     0.20913   0.68797   0.75059   0.00000  Uiso   1.00
H937   H     0.24233   0.70399   0.75106   0.00000  Uiso   1.00
C938   C     0.16666   0.70941   0.74998   0.00000  Uiso   1.00
C939   C     0.12419   0.68794   0.74942   0.00000  Uiso   1.00
H940   H     0.09100   0.70394   0.74892   0.00000  Uiso   1.00
C941   C     0.12418   0.97871   0.74947   0.00000  Uiso   1.00
H942   H     0.09098   0.96269   0.74902   0.00000  Uiso   1.00
C943   C     0.16666   0.95727   0.75006   0.00000  Uiso   1.00
C944   C     0.30277   0.86483   0.77235   0.00000  Uiso   1.00
C945   C     0.01910   0.86490   0.77216   0.00000  Uiso   1.00
N946   N     0.04931   0.83332   0.74998   0.00000  Uiso   1.00
C947   C     0.03014   0.80133   0.72895   0.00000  Uiso   1.00
H948   H     0.05270   0.77528   0.71297   0.00000  Uiso   1.00
C949   C     0.31408   0.80159   0.72832   0.00000  Uiso   1.00
H950   H     0.30002   0.77619   0.71074   0.00000  Uiso   1.00
N951   N     0.28402   0.83335   0.74999   0.00000  Uiso   1.00
H952   H     0.27946   0.88997   0.79054   0.00000  Uiso   1.00
H953   H     0.03308   0.89012   0.79014   0.00000  Uiso   1.00
H954   H     0.28954   0.81424   0.91343   0.00000  Uiso   1.00
N955   N     0.12095   0.80988   0.59592   0.00000  Uiso   1.00
O956   O     0.10695   0.77721   0.62375   0.00000  Uiso   1.00
O957   O     0.08991   0.83917   0.59568   0.00000  Uiso   1.00
N958   N     0.02525   0.75993   0.99485   0.00000  Uiso   1.00
O959   O     0.00990   0.75091   0.54355   0.00000  Uiso   1.00
O960   O     0.33256   0.74866   0.96434   0.00000  Uiso   1.00
O961   O     0.46042   0.89345   0.75000   0.00000  Uiso   1.00
O962   O     0.53961   0.89346   0.75000   0.00000  Uiso   1.00
C963   C     0.50000   0.91266   0.75005   0.00000  Uiso   1.00
O964   O     0.44108   0.83332   0.82549   0.00000  Uiso   1.00
O965   O     0.52027   0.83333   0.82549   0.00000  Uiso   1.00
C966   C     0.47519   0.82732   0.84884   0.00000  Uiso   1.00
Cu967  Cu    0.45311   0.83333   0.75000   0.00000  Uiso   1.00
Cu968  Cu    0.54689   0.83334   0.75000   0.00000  Uiso   1.00
O969   O     0.46039   0.77321   0.74999   0.00000  Uiso   1.00
O970   O     0.53958   0.77322   0.74999   0.00000  Uiso   1.00
O971   O     0.47973   0.83334   0.67451   0.00000  Uiso   1.00
O972   O     0.55892   0.83335   0.67451   0.00000  Uiso   1.00
C973   C     0.50000   0.75401   0.74995   0.00000  Uiso   1.00
C974   C     0.52543   0.83143   0.65016   0.00000  Uiso   1.00
C975   C     0.60236   0.82667   0.51340   0.00000  Uiso   1.00
H976   H     0.61519   0.83982   0.58569   0.00000  Uiso   1.00
H977   H     0.64017   0.83229   0.99302   0.00000  Uiso   1.00
C978   C     0.53924   0.82561   0.59380   0.00000  Uiso   1.00
C979   C     0.41631   0.79792   0.92563   0.00000  Uiso   1.00
C980   C     0.40468   0.78022   0.97455   0.00000  Uiso   1.00
C981   C     0.43888   0.78187   0.50313   0.00000  Uiso   1.00
C982   C     0.48531   0.79986   0.98307   0.00000  Uiso   1.00
C983   C     0.50029   0.80701   0.92939   0.00000  Uiso   1.00
C984   C     0.51867   0.80888   0.51306   0.00000  Uiso   1.00
C985   C     0.56846   0.81602   0.98674   0.00000  Uiso   1.00
C986   C     0.58440   0.81227   0.93357   0.00000  Uiso   1.00
C987   C     0.55107   0.80738   0.90532   0.00000  Uiso   1.00
C988   C     0.50428   0.81413   0.56744   0.00000  Uiso   1.00
C989   C     0.58799   0.83120   0.56632   0.00000  Uiso   1.00
C990   C     0.46390   0.81142   0.90218   0.00000  Uiso   1.00
H991   H     0.38891   0.79890   0.90467   0.00000  Uiso   1.00
H992   H     0.42999   0.76572   0.53906   0.00000  Uiso   1.00
H993   H     0.56696   0.80153   0.86500   0.00000  Uiso   1.00
C994   C     0.54246   0.97874   0.75064   0.00000  Uiso   1.00
H995   H     0.57566   0.96274   0.75113   0.00000  Uiso   1.00
C996   C     0.54246   0.68797   0.75059   0.00000  Uiso   1.00
H997   H     0.57566   0.70399   0.75106   0.00000  Uiso   1.00
C998   C     0.50000   0.70941   0.74998   0.00000  Uiso   1.00
C999   C     0.45752   0.68794   0.74942   0.00000  Uiso   1.00
H1000  H     0.42433   0.70394   0.74892   0.00000  Uiso   1.00
C1001  C     0.45752   0.97871   0.74947   0.00000  Uiso   1.00
H1002  H     0.42431   0.96269   0.74902   0.00000  Uiso   1.00
C1003  C     0.49999   0.95727   0.75006   0.00000  Uiso   1.00
C1004  C     0.63610   0.86483   0.77235   0.00000  Uiso   1.00
C1005  C     0.35243   0.86490   0.77216   0.00000  Uiso   1.00
N1006  N     0.38265   0.83332   0.74998   0.00000  Uiso   1.00
C1007  C     0.36348   0.80133   0.72895   0.00000  Uiso   1.00
H1008  H     0.38603   0.77528   0.71297   0.00000  Uiso   1.00
C1009  C     0.64742   0.80159   0.72832   0.00000  Uiso   1.00
H1010  H     0.63335   0.77619   0.71074   0.00000  Uiso   1.00
N1011  N     0.61735   0.83335   0.74999   0.00000  Uiso   1.00
H1012  H     0.61279   0.88997   0.79054   0.00000  Uiso   1.00
H1013  H     0.36641   0.89012   0.79014   0.00000  Uiso   1.00
H1014  H     0.62287   0.81424   0.91343   0.00000  Uiso   1.00
N1015  N     0.45429   0.80988   0.59592   0.00000  Uiso   1.00
O1016  O     0.44028   0.77721   0.62375   0.00000  Uiso   1.00
O1017  O     0.42325   0.83917   0.59568   0.00000  Uiso   1.00
N1018  N     0.35859   0.75993   0.99485   0.00000  Uiso   1.00
O1019  O     0.34324   0.75091   0.54355   0.00000  Uiso   1.00
O1020  O     0.66590   0.74866   0.96434   0.00000  Uiso   1.00
O1021  O     0.79375   0.89345   0.75000   0.00000  Uiso   1.00
O1022  O     0.87294   0.89346   0.75000   0.00000  Uiso   1.00
C1023  C     0.83333   0.91266   0.75005   0.00000  Uiso   1.00
O1024  O     0.77441   0.83332   0.82549   0.00000  Uiso   1.00
O1025  O     0.85360   0.83333   0.82549   0.00000  Uiso   1.00
C1026  C     0.80852   0.82732   0.84884   0.00000  Uiso   1.00
Cu1027 Cu    0.78645   0.83333   0.75000   0.00000  Uiso   1.00
Cu1028 Cu    0.88022   0.83334   0.75000   0.00000  Uiso   1.00
O1029  O     0.79373   0.77321   0.74999   0.00000  Uiso   1.00
O1030  O     0.87292   0.77322   0.74999   0.00000  Uiso   1.00
O1031  O     0.81306   0.83334   0.67451   0.00000  Uiso   1.00
O1032  O     0.89225   0.83335   0.67451   0.00000  Uiso   1.00
C1033  C     0.83333   0.75401   0.74995   0.00000  Uiso   1.00
C1034  C     0.85876   0.83143   0.65016   0.00000  Uiso   1.00
C1035  C     0.93569   0.82667   0.51340   0.00000  Uiso   1.00
H1036  H     0.94852   0.83982   0.58569   0.00000  Uiso   1.00
H1037  H     0.97350   0.83229   0.99302   0.00000  Uiso   1.00
C1038  C     0.87257   0.82561   0.59380   0.00000  Uiso   1.00
C1039  C     0.74965   0.79792   0.92563   0.00000  Uiso   1.00
C1040  C     0.73801   0.78022   0.97455   0.00000  Uiso   1.00
C1041  C     0.77222   0.78187   0.50313   0.00000  Uiso   1.00
C1042  C     0.81864   0.79986   0.98307   0.00000  Uiso   1.00
C1043  C     0.83362   0.80701   0.92939   0.00000  Uiso   1.00
C1044  C     0.85201   0.80888   0.51306   0.00000  Uiso   1.00
C1045  C     0.90180   0.81602   0.98674   0.00000  Uiso   1.00
C1046  C     0.91774   0.81227   0.93357   0.00000  Uiso   1.00
C1047  C     0.88440   0.80738   0.90532   0.00000  Uiso   1.00
C1048  C     0.83761   0.81413   0.56744   0.00000  Uiso   1.00
C1049  C     0.92132   0.83120   0.56632   0.00000  Uiso   1.00
C1050  C     0.79724   0.81142   0.90218   0.00000  Uiso   1.00
H1051  H     0.72224   0.79890   0.90467   0.00000  Uiso   1.00
H1052  H     0.76332   0.76572   0.53906   0.00000  Uiso   1.00
H1053  H     0.90029   0.80153   0.86500   0.00000  Uiso   1.00
C1054  C     0.87579   0.97874   0.75064   0.00000  Uiso   1.00
H1055  H     0.90899   0.96274   0.75113   0.00000  Uiso   1.00
C1056  C     0.87580   0.68797   0.75059   0.00000  Uiso   1.00
H1057  H     0.90900   0.70399   0.75106   0.00000  Uiso   1.00
C1058  C     0.83333   0.70941   0.74998   0.00000  Uiso   1.00
C1059  C     0.79086   0.68794   0.74942   0.00000  Uiso   1.00
H1060  H     0.75766   0.70394   0.74892   0.00000  Uiso   1.00
C1061  C     0.79085   0.97871   0.74947   0.00000  Uiso   1.00
H1062  H     0.75765   0.96269   0.74902   0.00000  Uiso   1.00
C1063  C     0.83332   0.95727   0.75006   0.00000  Uiso   1.00
C1064  C     0.96943   0.86483   0.77235   0.00000  Uiso   1.00
C1065  C     0.68576   0.86490   0.77216   0.00000  Uiso   1.00
N1066  N     0.71598   0.83332   0.74998   0.00000  Uiso   1.00
C1067  C     0.69681   0.80133   0.72895   0.00000  Uiso   1.00
H1068  H     0.71936   0.77528   0.71297   0.00000  Uiso   1.00
C1069  C     0.98075   0.80159   0.72832   0.00000  Uiso   1.00
H1070  H     0.96668   0.77619   0.71074   0.00000  Uiso   1.00
N1071  N     0.95069   0.83335   0.74999   0.00000  Uiso   1.00
H1072  H     0.94613   0.88997   0.79054   0.00000  Uiso   1.00
H1073  H     0.69975   0.89012   0.79014   0.00000  Uiso   1.00
H1074  H     0.95620   0.81424   0.91343   0.00000  Uiso   1.00
N1075  N     0.78762   0.80988   0.59592   0.00000  Uiso   1.00
O1076  O     0.77361   0.77721   0.62375   0.00000  Uiso   1.00
O1077  O     0.75658   0.83917   0.59568   0.00000  Uiso   1.00
N1078  N     0.69192   0.75993   0.99485   0.00000  Uiso   1.00
O1079  O     0.67657   0.75091   0.54355   0.00000  Uiso   1.00
O1080  O     0.99923   0.74866   0.96434   0.00000  Uiso   1.00
loop_
_geom_bond_atom_site_label_1
_geom_bond_atom_site_label_2
_geom_bond_distance
_geom_bond_site_symmetry_2
_ccdc_geom_bond_type
O1     Cu7     1.965   .     S
O1     C3      1.290   .     A
O2     C3      1.290   .     A
O2     Cu8     1.965   .     S
C3     C43     1.450   .     S
O4     Cu7     1.972   .     S
O4     C6      1.310   .     A
O5     Cu8     1.971   .     S
O5     C6      1.283   .     A
C6     C30     1.482   .     S
Cu7    N46     2.009   .     S
Cu7    Cu8     2.674   .     S
Cu7    O11     1.971   .     S
Cu7    O9      1.965   .     S
Cu8    O12     1.972   .     S
Cu8    N51     2.009   .     S
Cu8    O10     1.965   .     S
O9     C13     1.290   .     A
O10    C13     1.290   .     A
O11    C14     1.291   .     A
O12    C14     1.300   .     A
C13    C38     1.450   .     S
C14    C18     1.475   .     S
C15    C29     1.382   .     A
C15    H557    1.084   1_554 S
C15    C565    1.396   1_554 S
H16    C29     1.083   .     S
H17    C555    1.084   .     S
C18    C29     1.398   .     A
C18    C28     1.423   .     A
C19    C20     1.397   .     A
C19    H31     1.083   .     S
C19    C30     1.402   .     A
C20    N58     1.439   .     S
C20    C561    1.400   .     S
C21    H32     1.072   .     S
C21    C560    1.400   1_554 S
C21    C562    1.413   1_554 S
C22    C23     1.414   .     A
C22    C561    1.413   .     S
C22    C564    1.437   .     S
C23    C27     1.416   .     A
C23    C30     1.433   .     A
C24    C28     1.422   .     A
C24    C562    1.437   1_554 S
C24    C565    1.423   1_554 S
C25    C26     1.387   .     A
C25    C555    1.396   .     S
C25    C564    1.423   .     S
C26    C27     1.380   .     A
C26    H54     1.085   .     S
C27    H33     1.075   .     S
C28    N55     1.430   .     S
C34    H35     1.083   .     S
C34    C43     1.401   .     A
C34    C216    1.383   .     S
C36    C38     1.401   .     A
C36    H37     1.083   .     S
C36    C394    1.383   1_545 S
C38    C39     1.401   .     A
C39    H40     1.083   .     S
C39    C401    1.383   1_545 S
C41    H42     1.083   .     S
C41    C43     1.401   .     A
C41    C219    1.383   .     S
C44    H52     1.081   .     S
C44    N51     1.367   .     A
C44    C105    1.415   .     S
C45    H53     1.081   .     S
C45    N46     1.367   .     A
C45    C164    1.415   1_455 S
N46    C47     1.366   .     A
C47    H48     1.078   .     S
C47    C169    1.413   1_455 S
C49    N51     1.366   .     A
C49    H50     1.081   .     S
C49    C107    1.413   .     S
N55    O56     1.301   .     A
N55    O57     1.301   .     A
N58    O599    1.302   .     S
N58    O180    1.302   1_455 S
O59    N598    1.302   1_554 S
O60    N118    1.302   .     S
O61    Cu67    1.965   .     S
O61    C63     1.290   .     A
O62    C63     1.290   .     A
O62    Cu68    1.965   .     S
C63    C103    1.450   .     S
O64    Cu67    1.972   .     S
O64    C66     1.310   .     A
O65    Cu68    1.971   .     S
O65    C66     1.283   .     A
C66    C90     1.482   .     S
Cu67   N106    2.009   .     S
Cu67   Cu68    2.674   .     S
Cu67   O71     1.971   .     S
Cu67   O69     1.965   .     S
Cu68   O72     1.972   .     S
Cu68   N111    2.009   .     S
Cu68   O70     1.965   .     S
O69    C73     1.290   .     A
O70    C73     1.290   .     A
O71    C74     1.291   .     A
O72    C74     1.300   .     A
C73    C98     1.450   .     S
C74    C78     1.475   .     S
C75    C89     1.382   .     A
C75    H617    1.084   1_554 S
C75    C625    1.396   1_554 S
H76    C89     1.083   .     S
H77    C615    1.084   .     S
C78    C89     1.398   .     A
C78    C88     1.423   .     A
C79    C80     1.397   .     A
C79    H91     1.083   .     S
C79    C90     1.402   .     A
C80    N118    1.439   .     S
C80    C621    1.400   .     S
C81    H92     1.072   .     S
C81    C620    1.400   1_554 S
C81    C622    1.413   1_554 S
C82    C83     1.414   .     A
C82    C621    1.413   .     S
C82    C624    1.437   .     S
C83    C87     1.416   .     A
C83    C90     1.433   .     A
C84    C88     1.422   .     A
C84    C622    1.437   1_554 S
C84    C625    1.423   1_554 S
C85    C86     1.387   .     A
C85    C615    1.396   .     S
C85    C624    1.423   .     S
C86    C87     1.380   .     A
C86    H114    1.085   .     S
C87    H93     1.075   .     S
C88    N115    1.430   .     S
C94    H95     1.083   .     S
C94    C103    1.401   .     A
C94    C276    1.383   .     S
C96    C98     1.401   .     A
C96    H97     1.083   .     S
C96    C454    1.383   1_545 S
C98    C99     1.401   .     A
C99    H100    1.083   .     S
C99    C461    1.383   1_545 S
C101   H102    1.083   .     S
C101   C103    1.401   .     A
C101   C279    1.383   .     S
C104   H112    1.081   .     S
C104   N111    1.367   .     A
C104   C165    1.415   .     S
C105   H113    1.081   .     S
C105   N106    1.367   .     A
N106   C107    1.366   .     A
C107   H108    1.078   .     S
C109   N111    1.366   .     A
C109   H110    1.081   .     S
C109   C167    1.413   .     S
N115   O116    1.301   .     A
N115   O117    1.301   .     A
N118   O659    1.302   .     S
O119   N658    1.302   1_554 S
O120   N178    1.302   .     S
O121   Cu127   1.965   .     S
O121   C123    1.290   .     A
O122   C123    1.290   .     A
O122   Cu128   1.965   .     S
C123   C163    1.450   .     S
O124   Cu127   1.972   .     S
O124   C126    1.310   .     A
O125   Cu128   1.971   .     S
O125   C126    1.283   .     A
C126   C150    1.482   .     S
Cu127  N166    2.009   .     S
Cu127  Cu128   2.674   .     S
Cu127  O131    1.971   .     S
Cu127  O129    1.965   .     S
Cu128  O132    1.972   .     S
Cu128  N171    2.009   .     S
Cu128  O130    1.965   .     S
O129   C133    1.290   .     A
O130   C133    1.290   .     A
O131   C134    1.291   .     A
O132   C134    1.300   .     A
C133   C158    1.450   .     S
C134   C138    1.475   .     S
C135   C149    1.382   .     A
C135   H677    1.084   1_554 S
C135   C685    1.396   1_554 S
H136   C149    1.083   .     S
H137   C675    1.084   .     S
C138   C149    1.398   .     A
C138   C148    1.423   .     A
C139   C140    1.397   .     A
C139   H151    1.083   .     S
C139   C150    1.402   .     A
C140   N178    1.439   .     S
C140   C681    1.400   .     S
C141   H152    1.072   .     S
C141   C680    1.400   1_554 S
C141   C682    1.413   1_554 S
C142   C143    1.414   .     A
C142   C681    1.413   .     S
C142   C684    1.437   .     S
C143   C147    1.416   .     A
C143   C150    1.433   .     A
C144   C148    1.422   .     A
C144   C682    1.437   1_554 S
C144   C685    1.423   1_554 S
C145   C146    1.387   .     A
C145   C675    1.396   .     S
C145   C684    1.423   .     S
C146   C147    1.380   .     A
C146   H174    1.085   .     S
C147   H153    1.075   .     S
C148   N175    1.430   .     S
C154   H155    1.083   .     S
C154   C163    1.401   .     A
C154   C336    1.383   .     S
C156   C158    1.401   .     A
C156   H157    1.083   .     S
C156   C514    1.383   1_545 S
C158   C159    1.401   .     A
C159   H160    1.083   .     S
C159   C521    1.383   1_545 S
C161   H162    1.083   .     S
C161   C163    1.401   .     A
C161   C339    1.383   .     S
C164   H172    1.081   .     S
C164   N171    1.367   .     A
C164   C45     1.415   1_655 S
C165   H173    1.081   .     S
C165   N166    1.367   .     A
N166   C167    1.366   .     A
C167   H168    1.078   .     S
C169   N171    1.366   .     A
C169   H170    1.081   .     S
C169   C47     1.413   1_655 S
N175   O176    1.301   .     A
N175   O177    1.301   .     A
N178   O719    1.302   .     S
O179   N718    1.302   1_554 S
O180   N58     1.302   1_655 S
O181   Cu187   1.965   .     S
O181   C183    1.290   .     A
O182   C183    1.290   .     A
O182   Cu188   1.965   .     S
C183   C223    1.450   .     S
O184   Cu187   1.972   .     S
O184   C186    1.310   .     A
O185   Cu188   1.971   .     S
O185   C186    1.283   .     A
C186   C210    1.482   .     S
Cu187  N226    2.009   .     S
Cu187  Cu188   2.674   .     S
Cu187  O191    1.971   .     S
Cu187  O189    1.965   .     S
Cu188  O192    1.972   .     S
Cu188  N231    2.009   .     S
Cu188  O190    1.965   .     S
O189   C193    1.290   .     A
O190   C193    1.290   .     A
O191   C194    1.291   .     A
O192   C194    1.300   .     A
C193   C218    1.450   .     S
C194   C198    1.475   .     S
C195   C209    1.382   .     A
C195   H737    1.084   1_554 S
C195   C745    1.396   1_554 S
H196   C209    1.083   .     S
H197   C735    1.084   .     S
C198   C209    1.398   .     A
C198   C208    1.423   .     A
C199   C200    1.397   .     A
C199   H211    1.083   .     S
C199   C210    1.402   .     A
C200   N238    1.439   .     S
C200   C741    1.400   .     S
C201   H212    1.072   .     S
C201   C740    1.400   1_554 S
C201   C742    1.413   1_554 S
C202   C203    1.414   .     A
C202   C741    1.413   .     S
C202   C744    1.437   .     S
C203   C207    1.416   .     A
C203   C210    1.433   .     A
C204   C208    1.422   .     A
C204   C742    1.437   1_554 S
C204   C745    1.423   1_554 S
C205   C206    1.387   .     A
C205   C735    1.396   .     S
C205   C744    1.423   .     S
C206   C207    1.380   .     A
C206   H234    1.085   .     S
C207   H213    1.075   .     S
C208   N235    1.430   .     S
C214   H215    1.083   .     S
C214   C223    1.401   .     A
C214   C396    1.383   .     S
C216   C218    1.401   .     A
C216   H217    1.083   .     S
C218   C219    1.401   .     A
C219   H220    1.083   .     S
C221   H222    1.083   .     S
C221   C223    1.401   .     A
C221   C399    1.383   .     S
C224   H232    1.081   .     S
C224   N231    1.367   .     A
C224   C285    1.415   .     S
C225   H233    1.081   .     S
C225   N226    1.367   .     A
C225   C344    1.415   1_455 S
N226   C227    1.366   .     A
C227   H228    1.078   .     S
C227   C349    1.413   1_455 S
C229   N231    1.366   .     A
C229   H230    1.081   .     S
C229   C287    1.413   .     S
N235   O236    1.301   .     A
N235   O237    1.301   .     A
N238   O779    1.302   .     S
N238   O360    1.302   1_455 S
O239   N778    1.302   1_554 S
O240   N298    1.302   .     S
O241   Cu247   1.965   .     S
O241   C243    1.290   .     A
O242   C243    1.290   .     A
O242   Cu248   1.965   .     S
C243   C283    1.450   .     S
O244   Cu247   1.972   .     S
O244   C246    1.310   .     A
O245   Cu248   1.971   .     S
O245   C246    1.283   .     A
C246   C270    1.482   .     S
Cu247  N286    2.009   .     S
Cu247  Cu248   2.674   .     S
Cu247  O251    1.971   .     S
Cu247  O249    1.965   .     S
Cu248  O252    1.972   .     S
Cu248  N291    2.009   .     S
Cu248  O250    1.965   .     S
O249   C253    1.290   .     A
O250   C253    1.290   .     A
O251   C254    1.291   .     A
O252   C254    1.300   .     A
C253   C278    1.450   .     S
C254   C258    1.475   .     S
C255   C269    1.382   .     A
C255   H797    1.084   1_554 S
C255   C805    1.396   1_554 S
H256   C269    1.083   .     S
H257   C795    1.084   .     S
C258   C269    1.398   .     A
C258   C268    1.423   .     A
C259   C260    1.397   .     A
C259   H271    1.083   .     S
C259   C270    1.402   .     A
C260   N298    1.439   .     S
C260   C801    1.400   .     S
C261   H272    1.072   .     S
C261   C800    1.400   1_554 S
C261   C802    1.413   1_554 S
C262   C263    1.414   .     A
C262   C801    1.413   .     S
C262   C804    1.437   .     S
C263   C267    1.416   .     A
C263   C270    1.433   .     A
C264   C268    1.422   .     A
C264   C802    1.437   1_554 S
C264   C805    1.423   1_554 S
C265   C266    1.387   .     A
C265   C795    1.396   .     S
C265   C804    1.423   .     S
C266   C267    1.380   .     A
C266   H294    1.085   .     S
C267   H273    1.075   .     S
C268   N295    1.430   .     S
C274   H275    1.083   .     S
C274   C283    1.401   .     A
C274   C456    1.383   .     S
C276   C278    1.401   .     A
C276   H277    1.083   .     S
C278   C279    1.401   .     A
C279   H280    1.083   .     S
C281   H282    1.083   .     S
C281   C283    1.401   .     A
C281   C459    1.383   .     S
C284   H292    1.081   .     S
C284   N291    1.367   .     A
C284   C345    1.415   .     S
C285   H293    1.081   .     S
C285   N286    1.367   .     A
N286   C287    1.366   .     A
C287   H288    1.078   .     S
C289   N291    1.366   .     A
C289   H290    1.081   .     S
C289   C347    1.413   .     S
N295   O296    1.301   .     A
N295   O297    1.301   .     A
N298   O839    1.302   .     S
O299   N838    1.302   1_554 S
O300   N358    1.302   .     S
O301   Cu307   1.965   .     S
O301   C303    1.290   .     A
O302   C303    1.290   .     A
O302   Cu308   1.965   .     S
C303   C343    1.450   .     S
O304   Cu307   1.972   .     S
O304   C306    1.310   .     A
O305   Cu308   1.971   .     S
O305   C306    1.283   .     A
C306   C330    1.482   .     S
Cu307  N346    2.009   .     S
Cu307  Cu308   2.674   .     S
Cu307  O311    1.971   .     S
Cu307  O309    1.965   .     S
Cu308  O312    1.972   .     S
Cu308  N351    2.009   .     S
Cu308  O310    1.965   .     S
O309   C313    1.290   .     A
O310   C313    1.290   .     A
O311   C314    1.291   .     A
O312   C314    1.300   .     A
C313   C338    1.450   .     S
C314   C318    1.475   .     S
C315   C329    1.382   .     A
C315   H857    1.084   1_554 S
C315   C865    1.396   1_554 S
H316   C329    1.083   .     S
H317   C855    1.084   .     S
C318   C329    1.398   .     A
C318   C328    1.423   .     A
C319   C320    1.397   .     A
C319   H331    1.083   .     S
C319   C330    1.402   .     A
C320   N358    1.439   .     S
C320   C861    1.400   .     S
C321   H332    1.072   .     S
C321   C860    1.400   1_554 S
C321   C862    1.413   1_554 S
C322   C323    1.414   .     A
C322   C861    1.413   .     S
C322   C864    1.437   .     S
C323   C327    1.416   .     A
C323   C330    1.433   .     A
C324   C328    1.422   .     A
C324   C862    1.437   1_554 S
C324   C865    1.423   1_554 S
C325   C326    1.387   .     A
C325   C855    1.396   .     S
C325   C864    1.423   .     S
C326   C327    1.380   .     A
C326   H354    1.085   .     S
C327   H333    1.075   .     S
C328   N355    1.430   .     S
C334   H335    1.083   .     S
C334   C343    1.401   .     A
C334   C516    1.383   .     S
C336   C338    1.401   .     A
C336   H337    1.083   .     S
C338   C339    1.401   .     A
C339   H340    1.083   .     S
C341   H342    1.083   .     S
C341   C343    1.401   .     A
C341   C519    1.383   .     S
C344   H352    1.081   .     S
C344   N351    1.367   .     A
C344   C225    1.415   1_655 S
C345   H353    1.081   .     S
C345   N346    1.367   .     A
N346   C347    1.366   .     A
C347   H348    1.078   .     S
C349   N351    1.366   .     A
C349   H350    1.081   .     S
C349   C227    1.413   1_655 S
N355   O356    1.301   .     A
N355   O357    1.301   .     A
N358   O899    1.302   .     S
O359   N898    1.302   1_554 S
O360   N238    1.302   1_655 S
O361   Cu367   1.965   .     S
O361   C363    1.290   .     A
O362   C363    1.290   .     A
O362   Cu368   1.965   .     S
C363   C403    1.450   .     S
O364   Cu367   1.972   .     S
O364   C366    1.310   .     A
O365   Cu368   1.971   .     S
O365   C366    1.283   .     A
C366   C390    1.482   .     S
Cu367  N406    2.009   .     S
Cu367  Cu368   2.674   .     S
Cu367  O371    1.971   .     S
Cu367  O369    1.965   .     S
Cu368  O372    1.972   .     S
Cu368  N411    2.009   .     S
Cu368  O370    1.965   .     S
O369   C373    1.290   .     A
O370   C373    1.290   .     A
O371   C374    1.291   .     A
O372   C374    1.300   .     A
C373   C398    1.450   .     S
C374   C378    1.475   .     S
C375   C389    1.382   .     A
C375   H917    1.084   1_554 S
C375   C925    1.396   1_554 S
H376   C389    1.083   .     S
H377   C915    1.084   .     S
C378   C389    1.398   .     A
C378   C388    1.423   .     A
C379   C380    1.397   .     A
C379   H391    1.083   .     S
C379   C390    1.402   .     A
C380   N418    1.439   .     S
C380   C921    1.400   .     S
C381   H392    1.072   .     S
C381   C920    1.400   1_554 S
C381   C922    1.413   1_554 S
C382   C383    1.414   .     A
C382   C921    1.413   .     S
C382   C924    1.437   .     S
C383   C387    1.416   .     A
C383   C390    1.433   .     A
C384   C388    1.422   .     A
C384   C922    1.437   1_554 S
C384   C925    1.423   1_554 S
C385   C386    1.387   .     A
C385   C915    1.396   .     S
C385   C924    1.423   .     S
C386   C387    1.380   .     A
C386   H414    1.085   .     S
C387   H393    1.075   .     S
C388   N415    1.430   .     S
C394   H395    1.083   .     S
C394   C403    1.401   .     A
C394   C36     1.383   1_565 S
C396   C398    1.401   .     A
C396   H397    1.083   .     S
C398   C399    1.401   .     A
C399   H400    1.083   .     S
C401   H402    1.083   .     S
C401   C403    1.401   .     A
C401   C39     1.383   1_565 S
C404   H412    1.081   .     S
C404   N411    1.367   .     A
C404   C465    1.415   .     S
C405   H413    1.081   .     S
C405   N406    1.367   .     A
C405   C524    1.415   1_455 S
N406   C407    1.366   .     A
C407   H408    1.078   .     S
C407   C529    1.413   1_455 S
C409   N411    1.366   .     A
C409   H410    1.081   .     S
C409   C467    1.413   .     S
N415   O416    1.301   .     A
N415   O417    1.301   .     A
N418   O959    1.302   .     S
N418   O540    1.302   1_455 S
O419   N958    1.302   1_554 S
O420   N478    1.302   .     S
O421   Cu427   1.965   .     S
O421   C423    1.290   .     A
O422   C423    1.290   .     A
O422   Cu428   1.965   .     S
C423   C463    1.450   .     S
O424   Cu427   1.972   .     S
O424   C426    1.310   .     A
O425   Cu428   1.971   .     S
O425   C426    1.283   .     A
C426   C450    1.482   .     S
Cu427  N466    2.009   .     S
Cu427  Cu428   2.674   .     S
Cu427  O431    1.971   .     S
Cu427  O429    1.965   .     S
Cu428  O432    1.972   .     S
Cu428  N471    2.009   .     S
Cu428  O430    1.965   .     S
O429   C433    1.290   .     A
O430   C433    1.290   .     A
O431   C434    1.291   .     A
O432   C434    1.300   .     A
C433   C458    1.450   .     S
C434   C438    1.475   .     S
C435   C449    1.382   .     A
C435   H977    1.084   1_554 S
C435   C985    1.396   1_554 S
H436   C449    1.083   .     S
H437   C975    1.084   .     S
C438   C449    1.398   .     A
C438   C448    1.423   .     A
C439   C440    1.397   .     A
C439   H451    1.083   .     S
C439   C450    1.402   .     A
C440   N478    1.439   .     S
C440   C981    1.400   .     S
C441   H452    1.072   .     S
C441   C980    1.400   1_554 S
C441   C982    1.413   1_554 S
C442   C443    1.414   .     A
C442   C981    1.413   .     S
C442   C984    1.437   .     S
C443   C447    1.416   .     A
C443   C450    1.433   .     A
C444   C448    1.422   .     A
C444   C982    1.437   1_554 S
C444   C985    1.423   1_554 S
C445   C446    1.387   .     A
C445   C975    1.396   .     S
C445   C984    1.423   .     S
C446   C447    1.380   .     A
C446   H474    1.085   .     S
C447   H453    1.075   .     S
C448   N475    1.430   .     S
C454   H455    1.083   .     S
C454   C463    1.401   .     A
C454   C96     1.383   1_565 S
C456   C458    1.401   .     A
C456   H457    1.083   .     S
C458   C459    1.401   .     A
C459   H460    1.083   .     S
C461   H462    1.083   .     S
C461   C463    1.401   .     A
C461   C99     1.383   1_565 S
C464   H472    1.081   .     S
C464   N471    1.367   .     A
C464   C525    1.415   .     S
C465   H473    1.081   .     S
C465   N466    1.367   .     A
N466   C467    1.366   .     A
C467   H468    1.078   .     S
C469   N471    1.366   .     A
C469   H470    1.081   .     S
C469   C527    1.413   .     S
N475   O476    1.301   .     A
N475   O477    1.301   .     A
N478   O1019   1.302   .     S
O479   N1018   1.302   1_554 S
O480   N538    1.302   .     S
O481   Cu487   1.965   .     S
O481   C483    1.290   .     A
O482   C483    1.290   .     A
O482   Cu488   1.965   .     S
C483   C523    1.450   .     S
O484   Cu487   1.972   .     S
O484   C486    1.310   .     A
O485   Cu488   1.971   .     S
O485   C486    1.283   .     A
C486   C510    1.482   .     S
Cu487  N526    2.009   .     S
Cu487  Cu488   2.674   .     S
Cu487  O491    1.971   .     S
Cu487  O489    1.965   .     S
Cu488  O492    1.972   .     S
Cu488  N531    2.009   .     S
Cu488  O490    1.965   .     S
O489   C493    1.290   .     A
O490   C493    1.290   .     A
O491   C494    1.291   .     A
O492   C494    1.300   .     A
C493   C518    1.450   .     S
C494   C498    1.475   .     S
C495   C509    1.382   .     A
C495   H1037   1.084   1_554 S
C495   C1045   1.396   1_554 S
H496   C509    1.083   .     S
H497   C1035   1.084   .     S
C498   C509    1.398   .     A
C498   C508    1.423   .     A
C499   C500    1.397   .     A
C499   H511    1.083   .     S
C499   C510    1.402   .     A
C500   N538    1.439   .     S
C500   C1041   1.400   .     S
C501   H512    1.072   .     S
C501   C1040   1.400   1_554 S
C501   C1042   1.413   1_554 S
C502   C503    1.414   .     A
C502   C1041   1.413   .     S
C502   C1044   1.437   .     S
C503   C507    1.416   .     A
C503   C510    1.433   .     A
C504   C508    1.422   .     A
C504   C1042   1.437   1_554 S
C504   C1045   1.423   1_554 S
C505   C506    1.387   .     A
C505   C1035   1.396   .     S
C505   C1044   1.423   .     S
C506   C507    1.380   .     A
C506   H534    1.085   .     S
C507   H513    1.075   .     S
C508   N535    1.430   .     S
C514   H515    1.083   .     S
C514   C523    1.401   .     A
C514   C156    1.383   1_565 S
C516   C518    1.401   .     A
C516   H517    1.083   .     S
C518   C519    1.401   .     A
C519   H520    1.083   .     S
C521   H522    1.083   .     S
C521   C523    1.401   .     A
C521   C159    1.383   1_565 S
C524   H532    1.081   .     S
C524   N531    1.367   .     A
C524   C405    1.415   1_655 S
C525   H533    1.081   .     S
C525   N526    1.367   .     A
N526   C527    1.366   .     A
C527   H528    1.078   .     S
C529   N531    1.366   .     A
C529   H530    1.081   .     S
C529   C407    1.413   1_655 S
N535   O536    1.301   .     A
N535   O537    1.301   .     A
N538   O1079   1.302   .     S
O539   N1078   1.302   1_554 S
O540   N418    1.302   1_655 S
O541   Cu547   1.965   .     S
O541   C543    1.290   .     A
O542   C543    1.290   .     A
O542   Cu548   1.965   .     S
C543   C583    1.450   .     S
O544   Cu547   1.972   .     S
O544   C546    1.310   .     A
O545   Cu548   1.971   .     S
O545   C546    1.283   .     A
C546   C570    1.482   .     S
Cu547  N586    2.009   .     S
Cu547  Cu548   2.674   .     S
Cu547  O551    1.971   .     S
Cu547  O549    1.965   .     S
Cu548  O552    1.972   .     S
Cu548  N591    2.009   .     S
Cu548  O550    1.965   .     S
O549   C553    1.290   .     A
O550   C553    1.290   .     A
O551   C554    1.291   .     A
O552   C554    1.300   .     A
C553   C578    1.450   .     S
C554   C558    1.475   .     S
C555   C569    1.382   .     A
H556   C569    1.083   .     S
H557   C15     1.084   1_556 S
C558   C569    1.398   .     A
C558   C568    1.423   .     A
C559   C560    1.397   .     A
C559   H571    1.083   .     S
C559   C570    1.402   .     A
C560   N598    1.439   .     S
C560   C21     1.400   1_556 S
C561   H572    1.072   .     S
C562   C563    1.414   .     A
C562   C21     1.413   1_556 S
C562   C24     1.437   1_556 S
C563   C567    1.416   .     A
C563   C570    1.433   .     A
C564   C568    1.422   .     A
C565   C566    1.387   .     A
C565   C15     1.396   1_556 S
C565   C24     1.423   1_556 S
C566   C567    1.380   .     A
C566   H594    1.085   .     S
C567   H573    1.075   .     S
C568   N595    1.430   .     S
C574   H575    1.083   .     S
C574   C583    1.401   .     A
C574   C756    1.383   .     S
C576   C578    1.401   .     A
C576   H577    1.083   .     S
C576   C934    1.383   1_545 S
C578   C579    1.401   .     A
C579   H580    1.083   .     S
C579   C941    1.383   1_545 S
C581   H582    1.083   .     S
C581   C583    1.401   .     A
C581   C759    1.383   .     S
C584   H592    1.081   .     S
C584   N591    1.367   .     A
C584   C645    1.415   .     S
C585   H593    1.081   .     S
C585   N586    1.367   .     A
C585   C704    1.415   1_455 S
N586   C587    1.366   .     A
C587   H588    1.078   .     S
C587   C709    1.413   1_455 S
C589   N591    1.366   .     A
C589   H590    1.081   .     S
C589   C647    1.413   .     S
N595   O596    1.301   .     A
N595   O597    1.301   .     A
N598   O59     1.302   1_556 S
N598   O720    1.302   1_455 S
O600   N658    1.302   .     S
O601   Cu607   1.965   .     S
O601   C603    1.290   .     A
O602   C603    1.290   .     A
O602   Cu608   1.965   .     S
C603   C643    1.450   .     S
O604   Cu607   1.972   .     S
O604   C606    1.310   .     A
O605   Cu608   1.971   .     S
O605   C606    1.283   .     A
C606   C630    1.482   .     S
Cu607  N646    2.009   .     S
Cu607  Cu608   2.674   .     S
Cu607  O611    1.971   .     S
Cu607  O609    1.965   .     S
Cu608  O612    1.972   .     S
Cu608  N651    2.009   .     S
Cu608  O610    1.965   .     S
O609   C613    1.290   .     A
O610   C613    1.290   .     A
O611   C614    1.291   .     A
O612   C614    1.300   .     A
C613   C638    1.450   .     S
C614   C618    1.475   .     S
C615   C629    1.382   .     A
H616   C629    1.083   .     S
H617   C75     1.084   1_556 S
C618   C629    1.398   .     A
C618   C628    1.423   .     A
C619   C620    1.397   .     A
C619   H631    1.083   .     S
C619   C630    1.402   .     A
C620   N658    1.439   .     S
C620   C81     1.400   1_556 S
C621   H632    1.072   .     S
C622   C623    1.414   .     A
C622   C81     1.413   1_556 S
C622   C84     1.437   1_556 S
C623   C627    1.416   .     A
C623   C630    1.433   .     A
C624   C628    1.422   .     A
C625   C626    1.387   .     A
C625   C75     1.396   1_556 S
C625   C84     1.423   1_556 S
C626   C627    1.380   .     A
C626   H654    1.085   .     S
C627   H633    1.075   .     S
C628   N655    1.430   .     S
C634   H635    1.083   .     S
C634   C643    1.401   .     A
C634   C816    1.383   .     S
C636   C638    1.401   .     A
C636   H637    1.083   .     S
C636   C994    1.383   1_545 S
C638   C639    1.401   .     A
C639   H640    1.083   .     S
C639   C1001   1.383   1_545 S
C641   H642    1.083   .     S
C641   C643    1.401   .     A
C641   C819    1.383   .     S
C644   H652    1.081   .     S
C644   N651    1.367   .     A
C644   C705    1.415   .     S
C645   H653    1.081   .     S
C645   N646    1.367   .     A
N646   C647    1.366   .     A
C647   H648    1.078   .     S
C649   N651    1.366   .     A
C649   H650    1.081   .     S
C649   C707    1.413   .     S
N655   O656    1.301   .     A
N655   O657    1.301   .     A
N658   O119    1.302   1_556 S
O660   N718    1.302   .     S
O661   Cu667   1.965   .     S
O661   C663    1.290   .     A
O662   C663    1.290   .     A
O662   Cu668   1.965   .     S
C663   C703    1.450   .     S
O664   Cu667   1.972   .     S
O664   C666    1.310   .     A
O665   Cu668   1.971   .     S
O665   C666    1.283   .     A
C666   C690    1.482   .     S
Cu667  N706    2.009   .     S
Cu667  Cu668   2.674   .     S
Cu667  O671    1.971   .     S
Cu667  O669    1.965   .     S
Cu668  O672    1.972   .     S
Cu668  N711    2.009   .     S
Cu668  O670    1.965   .     S
O669   C673    1.290   .     A
O670   C673    1.290   .     A
O671   C674    1.291   .     A
O672   C674    1.300   .     A
C673   C698    1.450   .     S
C674   C678    1.475   .     S
C675   C689    1.382   .     A
H676   C689    1.083   .     S
H677   C135    1.084   1_556 S
C678   C689    1.398   .     A
C678   C688    1.423   .     A
C679   C680    1.397   .     A
C679   H691    1.083   .     S
C679   C690    1.402   .     A
C680   N718    1.439   .     S
C680   C141    1.400   1_556 S
C681   H692    1.072   .     S
C682   C683    1.414   .     A
C682   C141    1.413   1_556 S
C682   C144    1.437   1_556 S
C683   C687    1.416   .     A
C683   C690    1.433   .     A
C684   C688    1.422   .     A
C685   C686    1.387   .     A
C685   C135    1.396   1_556 S
C685   C144    1.423   1_556 S
C686   C687    1.380   .     A
C686   H714    1.085   .     S
C687   H693    1.075   .     S
C688   N715    1.430   .     S
C694   H695    1.083   .     S
C694   C703    1.401   .     A
C694   C876    1.383   .     S
C696   C698    1.401   .     A
C696   H697    1.083   .     S
C696   C1054   1.383   1_545 S
C698   C699    1.401   .     A
C699   H700    1.083   .     S
C699   C1061   1.383   1_545 S
C701   H702    1.083   .     S
C701   C703    1.401   .     A
C701   C879    1.383   .     S
C704   H712    1.081   .     S
C704   N711    1.367   .     A
C704   C585    1.415   1_655 S
C705   H713    1.081   .     S
C705   N706    1.367   .     A
N706   C707    1.366   .     A
C707   H708    1.078   .     S
C709   N711    1.366   .     A
C709   H710    1.081   .     S
C709   C587    1.413   1_655 S
N715   O716    1.301   .     A
N715   O717    1.301   .     A
N718   O179    1.302   1_556 S
O720   N598    1.302   1_655 S
O721   Cu727   1.965   .     S
O721   C723    1.290   .     A
O722   C723    1.290   .     A
O722   Cu728   1.965   .     S
C723   C763    1.450   .     S
O724   Cu727   1.972   .     S
O724   C726    1.310   .     A
O725   Cu728   1.971   .     S
O725   C726    1.283   .     A
C726   C750    1.482   .     S
Cu727  N766    2.009   .     S
Cu727  Cu728   2.674   .     S
Cu727  O731    1.971   .     S
Cu727  O729    1.965   .     S
Cu728  O732    1.972   .     S
Cu728  N771    2.009   .     S
Cu728  O730    1.965   .     S
O729   C733    1.290   .     A
O730   C733    1.290   .     A
O731   C734    1.291   .     A
O732   C734    1.300   .     A
C733   C758    1.450   .     S
C734   C738    1.475   .     S
C735   C749    1.382   .     A
H736   C749    1.083   .     S
H737   C195    1.084   1_556 S
C738   C749    1.398   .     A
C738   C748    1.423   .     A
C739   C740    1.397   .     A
C739   H751    1.083   .     S
C739   C750    1.402   .     A
C740   N778    1.439   .     S
C740   C201    1.400   1_556 S
C741   H752    1.072   .     S
C742   C743    1.414   .     A
C742   C201    1.413   1_556 S
C742   C204    1.437   1_556 S
C743   C747    1.416   .     A
C743   C750    1.433   .     A
C744   C748    1.422   .     A
C745   C746    1.387   .     A
C745   C195    1.396   1_556 S
C745   C204    1.423   1_556 S
C746   C747    1.380   .     A
C746   H774    1.085   .     S
C747   H753    1.075   .     S
C748   N775    1.430   .     S
C754   H755    1.083   .     S
C754   C763    1.401   .     A
C754   C936    1.383   .     S
C756   C758    1.401   .     A
C756   H757    1.083   .     S
C758   C759    1.401   .     A
C759   H760    1.083   .     S
C761   H762    1.083   .     S
C761   C763    1.401   .     A
C761   C939    1.383   .     S
C764   H772    1.081   .     S
C764   N771    1.367   .     A
C764   C825    1.415   .     S
C765   H773    1.081   .     S
C765   N766    1.367   .     A
C765   C884    1.415   1_455 S
N766   C767    1.366   .     A
C767   H768    1.078   .     S
C767   C889    1.413   1_455 S
C769   N771    1.366   .     A
C769   H770    1.081   .     S
C769   C827    1.413   .     S
N775   O776    1.301   .     A
N775   O777    1.301   .     A
N778   O239    1.302   1_556 S
N778   O900    1.302   1_455 S
O780   N838    1.302   .     S
O781   Cu787   1.965   .     S
O781   C783    1.290   .     A
O782   C783    1.290   .     A
O782   Cu788   1.965   .     S
C783   C823    1.450   .     S
O784   Cu787   1.972   .     S
O784   C786    1.310   .     A
O785   Cu788   1.971   .     S
O785   C786    1.283   .     A
C786   C810    1.482   .     S
Cu787  N826    2.009   .     S
Cu787  Cu788   2.674   .     S
Cu787  O791    1.971   .     S
Cu787  O789    1.965   .     S
Cu788  O792    1.972   .     S
Cu788  N831    2.009   .     S
Cu788  O790    1.965   .     S
O789   C793    1.290   .     A
O790   C793    1.290   .     A
O791   C794    1.291   .     A
O792   C794    1.300   .     A
C793   C818    1.450   .     S
C794   C798    1.475   .     S
C795   C809    1.382   .     A
H796   C809    1.083   .     S
H797   C255    1.084   1_556 S
C798   C809    1.398   .     A
C798   C808    1.423   .     A
C799   C800    1.397   .     A
C799   H811    1.083   .     S
C799   C810    1.402   .     A
C800   N838    1.439   .     S
C800   C261    1.400   1_556 S
C801   H812    1.072   .     S
C802   C803    1.414   .     A
C802   C261    1.413   1_556 S
C802   C264    1.437   1_556 S
C803   C807    1.416   .     A
C803   C810    1.433   .     A
C804   C808    1.422   .     A
C805   C806    1.387   .     A
C805   C255    1.396   1_556 S
C805   C264    1.423   1_556 S
C806   C807    1.380   .     A
C806   H834    1.085   .     S
C807   H813    1.075   .     S
C808   N835    1.430   .     S
C814   H815    1.083   .     S
C814   C823    1.401   .     A
C814   C996    1.383   .     S
C816   C818    1.401   .     A
C816   H817    1.083   .     S
C818   C819    1.401   .     A
C819   H820    1.083   .     S
C821   H822    1.083   .     S
C821   C823    1.401   .     A
C821   C999    1.383   .     S
C824   H832    1.081   .     S
C824   N831    1.367   .     A
C824   C885    1.415   .     S
C825   H833    1.081   .     S
C825   N826    1.367   .     A
N826   C827    1.366   .     A
C827   H828    1.078   .     S
C829   N831    1.366   .     A
C829   H830    1.081   .     S
C829   C887    1.413   .     S
N835   O836    1.301   .     A
N835   O837    1.301   .     A
N838   O299    1.302   1_556 S
O840   N898    1.302   .     S
O841   Cu847   1.965   .     S
O841   C843    1.290   .     A
O842   C843    1.290   .     A
O842   Cu848   1.965   .     S
C843   C883    1.450   .     S
O844   Cu847   1.972   .     S
O844   C846    1.310   .     A
O845   Cu848   1.971   .     S
O845   C846    1.283   .     A
C846   C870    1.482   .     S
Cu847  N886    2.009   .     S
Cu847  Cu848   2.674   .     S
Cu847  O851    1.971   .     S
Cu847  O849    1.965   .     S
Cu848  O852    1.972   .     S
Cu848  N891    2.009   .     S
Cu848  O850    1.965   .     S
O849   C853    1.290   .     A
O850   C853    1.290   .     A
O851   C854    1.291   .     A
O852   C854    1.300   .     A
C853   C878    1.450   .     S
C854   C858    1.475   .     S
C855   C869    1.382   .     A
H856   C869    1.083   .     S
H857   C315    1.084   1_556 S
C858   C869    1.398   .     A
C858   C868    1.423   .     A
C859   C860    1.397   .     A
C859   H871    1.083   .     S
C859   C870    1.402   .     A
C860   N898    1.439   .     S
C860   C321    1.400   1_556 S
C861   H872    1.072   .     S
C862   C863    1.414   .     A
C862   C321    1.413   1_556 S
C862   C324    1.437   1_556 S
C863   C867    1.416   .     A
C863   C870    1.433   .     A
C864   C868    1.422   .     A
C865   C866    1.387   .     A
C865   C315    1.396   1_556 S
C865   C324    1.423   1_556 S
C866   C867    1.380   .     A
C866   H894    1.085   .     S
C867   H873    1.075   .     S
C868   N895    1.430   .     S
C874   H875    1.083   .     S
C874   C883    1.401   .     A
C874   C1056   1.383   .     S
C876   C878    1.401   .     A
C876   H877    1.083   .     S
C878   C879    1.401   .     A
C879   H880    1.083   .     S
C881   H882    1.083   .     S
C881   C883    1.401   .     A
C881   C1059   1.383   .     S
C884   H892    1.081   .     S
C884   N891    1.367   .     A
C884   C765    1.415   1_655 S
C885   H893    1.081   .     S
C885   N886    1.367   .     A
N886   C887    1.366   .     A
C887   H888    1.078   .     S
C889   N891    1.366   .     A
C889   H890    1.081   .     S
C889   C767    1.413   1_655 S
N895   O896    1.301   .     A
N895   O897    1.301   .     A
N898   O359    1.302   1_556 S
O900   N778    1.302   1_655 S
O901   Cu907   1.965   .     S
O901   C903    1.290   .     A
O902   C903    1.290   .     A
O902   Cu908   1.965   .     S
C903   C943    1.450   .     S
O904   Cu907   1.972   .     S
O904   C906    1.310   .     A
O905   Cu908   1.971   .     S
O905   C906    1.283   .     A
C906   C930    1.482   .     S
Cu907  N946    2.009   .     S
Cu907  Cu908   2.674   .     S
Cu907  O911    1.971   .     S
Cu907  O909    1.965   .     S
Cu908  O912    1.972   .     S
Cu908  N951    2.009   .     S
Cu908  O910    1.965   .     S
O909   C913    1.290   .     A
O910   C913    1.290   .     A
O911   C914    1.291   .     A
O912   C914    1.300   .     A
C913   C938    1.450   .     S
C914   C918    1.475   .     S
C915   C929    1.382   .     A
H916   C929    1.083   .     S
H917   C375    1.084   1_556 S
C918   C929    1.398   .     A
C918   C928    1.423   .     A
C919   C920    1.397   .     A
C919   H931    1.083   .     S
C919   C930    1.402   .     A
C920   N958    1.439   .     S
C920   C381    1.400   1_556 S
C921   H932    1.072   .     S
C922   C923    1.414   .     A
C922   C381    1.413   1_556 S
C922   C384    1.437   1_556 S
C923   C927    1.416   .     A
C923   C930    1.433   .     A
C924   C928    1.422   .     A
C925   C926    1.387   .     A
C925   C375    1.396   1_556 S
C925   C384    1.423   1_556 S
C926   C927    1.380   .     A
C926   H954    1.085   .     S
C927   H933    1.075   .     S
C928   N955    1.430   .     S
C934   H935    1.083   .     S
C934   C943    1.401   .     A
C934   C576    1.383   1_565 S
C936   C938    1.401   .     A
C936   H937    1.083   .     S
C938   C939    1.401   .     A
C939   H940    1.083   .     S
C941   H942    1.083   .     S
C941   C943    1.401   .     A
C941   C579    1.383   1_565 S
C944   H952    1.081   .     S
C944   N951    1.367   .     A
C944   C1005   1.415   .     S
C945   H953    1.081   .     S
C945   N946    1.367   .     A
C945   C1064   1.415   1_455 S
N946   C947    1.366   .     A
C947   H948    1.078   .     S
C947   C1069   1.413   1_455 S
C949   N951    1.366   .     A
C949   H950    1.081   .     S
C949   C1007   1.413   .     S
N955   O956    1.301   .     A
N955   O957    1.301   .     A
N958   O419    1.302   1_556 S
N958   O1080   1.302   1_455 S
O960   N1018   1.302   .     S
O961   Cu967   1.965   .     S
O961   C963    1.290   .     A
O962   C963    1.290   .     A
O962   Cu968   1.965   .     S
C963   C1003   1.450   .     S
O964   Cu967   1.972   .     S
O964   C966    1.310   .     A
O965   Cu968   1.971   .     S
O965   C966    1.283   .     A
C966   C990    1.482   .     S
Cu967  N1006   2.009   .     S
Cu967  Cu968   2.674   .     S
Cu967  O971    1.971   .     S
Cu967  O969    1.965   .     S
Cu968  O972    1.972   .     S
Cu968  N1011   2.009   .     S
Cu968  O970    1.965   .     S
O969   C973    1.290   .     A
O970   C973    1.290   .     A
O971   C974    1.291   .     A
O972   C974    1.300   .     A
C973   C998    1.450   .     S
C974   C978    1.475   .     S
C975   C989    1.382   .     A
H976   C989    1.083   .     S
H977   C435    1.084   1_556 S
C978   C989    1.398   .     A
C978   C988    1.423   .     A
C979   C980    1.397   .     A
C979   H991    1.083   .     S
C979   C990    1.402   .     A
C980   N1018   1.439   .     S
C980   C441    1.400   1_556 S
C981   H992    1.072   .     S
C982   C983    1.414   .     A
C982   C441    1.413   1_556 S
C982   C444    1.437   1_556 S
C983   C987    1.416   .     A
C983   C990    1.433   .     A
C984   C988    1.422   .     A
C985   C986    1.387   .     A
C985   C435    1.396   1_556 S
C985   C444    1.423   1_556 S
C986   C987    1.380   .     A
C986   H1014   1.085   .     S
C987   H993    1.075   .     S
C988   N1015   1.430   .     S
C994   H995    1.083   .     S
C994   C1003   1.401   .     A
C994   C636    1.383   1_565 S
C996   C998    1.401   .     A
C996   H997    1.083   .     S
C998   C999    1.401   .     A
C999   H1000   1.083   .     S
C1001  H1002   1.083   .     S
C1001  C1003   1.401   .     A
C1001  C639    1.383   1_565 S
C1004  H1012   1.081   .     S
C1004  N1011   1.367   .     A
C1004  C1065   1.415   .     S
C1005  H1013   1.081   .     S
C1005  N1006   1.367   .     A
N1006  C1007   1.366   .     A
C1007  H1008   1.078   .     S
C1009  N1011   1.366   .     A
C1009  H1010   1.081   .     S
C1009  C1067   1.413   .     S
N1015  O1016   1.301   .     A
N1015  O1017   1.301   .     A
N1018  O479    1.302   1_556 S
O1020  N1078   1.302   .     S
O1021  Cu1027  1.965   .     S
O1021  C1023   1.290   .     A
O1022  C1023   1.290   .     A
O1022  Cu1028  1.965   .     S
C1023  C1063   1.450   .     S
O1024  Cu1027  1.972   .     S
O1024  C1026   1.310   .     A
O1025  Cu1028  1.971   .     S
O1025  C1026   1.283   .     A
C1026  C1050   1.482   .     S
Cu1027 N1066   2.009   .     S
Cu1027 Cu1028  2.674   .     S
Cu1027 O1031   1.971   .     S
Cu1027 O1029   1.965   .     S
Cu1028 O1032   1.972   .     S
Cu1028 N1071   2.009   .     S
Cu1028 O1030   1.965   .     S
O1029  C1033   1.290   .     A
O1030  C1033   1.290   .     A
O1031  C1034   1.291   .     A
O1032  C1034   1.300   .     A
C1033  C1058   1.450   .     S
C1034  C1038   1.475   .     S
C1035  C1049   1.382   .     A
H1036  C1049   1.083   .     S
H1037  C495    1.084   1_556 S
C1038  C1049   1.398   .     A
C1038  C1048   1.423   .     A
C1039  C1040   1.397   .     A
C1039  H1051   1.083   .     S
C1039  C1050   1.402   .     A
C1040  N1078   1.439   .     S
C1040  C501    1.400   1_556 S
C1041  H1052   1.072   .     S
C1042  C1043   1.414   .     A
C1042  C501    1.413   1_556 S
C1042  C504    1.437   1_556 S
C1043  C1047   1.416   .     A
C1043  C1050   1.433   .     A
C1044  C1048   1.422   .     A
C1045  C1046   1.387   .     A
C1045  C495    1.396   1_556 S
C1045  C504    1.423   1_556 S
C1046  C1047   1.380   .     A
C1046  H1074   1.085   .     S
C1047  H1053   1.075   .     S
C1048  N1075   1.430   .     S
C1054  H1055   1.083   .     S
C1054  C1063   1.401   .     A
C1054  C696    1.383   1_565 S
C1056  C1058   1.401   .     A
C1056  H1057   1.083   .     S
C1058  C1059   1.401   .     A
C1059  H1060   1.083   .     S
C1061  H1062   1.083   .     S
C1061  C1063   1.401   .     A
C1061  C699    1.383   1_565 S
C1064  H1072   1.081   .     S
C1064  N1071   1.367   .     A
C1064  C945    1.415   1_655 S
C1065  H1073   1.081   .     S
C1065  N1066   1.367   .     A
N1066  C1067   1.366   .     A
C1067  H1068   1.078   .     S
C1069  N1071   1.366   .     A
C1069  H1070   1.081   .     S
C1069  C947    1.413   1_655 S
N1075  O1076   1.301   .     A
N1075  O1077   1.301   .     A
N1078  O539    1.302   1_556 S
O1080  N958    1.302   1_655 S
