data_str_m3_o2_o5_pcu_sym.126
_audit_creation_date              2020-01-03
_audit_creation_method            'Materials Studio'
_symmetry_space_group_name_H-M    'P1'
_symmetry_Int_Tables_number       1
_symmetry_cell_setting            triclinic
loop_
_symmetry_equiv_pos_as_xyz
  x,y,z
_cell_length_a                    30.0272
_cell_length_b                    28.6168
_cell_length_c                    26.6894
_cell_angle_alpha                 90.0002
_cell_angle_beta                  91.6296
_cell_angle_gamma                 89.9999
loop_
_atom_site_label
_atom_site_type_symbol
_atom_site_fract_x
_atom_site_fract_y
_atom_site_fract_z
_atom_site_U_iso_or_equiv
_atom_site_adp_type
_atom_site_occupancy
C1     C     0.16417   0.24996   0.16646   0.00000  Uiso   1.00
C2     C     0.33583   0.24996   0.16688   0.00000  Uiso   1.00
C3     C     0.23302   0.10177   0.12610   0.00000  Uiso   1.00
C4     C     0.28599   0.39829   0.18586   0.00000  Uiso   1.00
C5     C     0.26698   0.10177   0.20724   0.00000  Uiso   1.00
C6     C     0.21401   0.39829   0.14747   0.00000  Uiso   1.00
C7     C     0.23678   0.05270   0.12333   0.00000  Uiso   1.00
C8     C     0.28846   0.44736   0.18169   0.00000  Uiso   1.00
C9     C     0.26322   0.05270   0.21001   0.00000  Uiso   1.00
C10    C     0.21154   0.44736   0.15164   0.00000  Uiso   1.00
C11    C     0.25010   0.24999   0.07297   0.00000  Uiso   1.00
C12    C     0.24990   0.24999   0.26037   0.00000  Uiso   1.00
C13    C     0.25000   0.02669   0.16667   0.00000  Uiso   1.00
C14    C     0.25000   0.47338   0.16667   0.00000  Uiso   1.00
C15    C     0.25005   0.24997   0.02182   0.00000  Uiso   1.00
C16    C     0.24995   0.24997   0.31151   0.00000  Uiso   1.00
C17    C     0.04624   0.27550   0.12900   0.00000  Uiso   1.00
C18    C     0.45211   0.22564   0.12877   0.00000  Uiso   1.00
C19    C     0.45376   0.27550   0.20433   0.00000  Uiso   1.00
C20    C     0.04789   0.22564   0.20456   0.00000  Uiso   1.00
C21    C     0.09232   0.27219   0.12687   0.00000  Uiso   1.00
C22    C     0.40558   0.22719   0.12748   0.00000  Uiso   1.00
C23    C     0.40768   0.27219   0.20647   0.00000  Uiso   1.00
C24    C     0.09442   0.22718   0.20585   0.00000  Uiso   1.00
C25    C     0.11623   0.24971   0.16632   0.00000  Uiso   1.00
C26    C     0.38376   0.24971   0.16702   0.00000  Uiso   1.00
C27    C     0.02415   0.25089   0.16685   0.00000  Uiso   1.00
C28    C     0.47585   0.25089   0.16648   0.00000  Uiso   1.00
N29    N     0.25000   0.12623   0.16667   0.00000  Uiso   1.00
N30    N     0.25000   0.37376   0.16667   0.00000  Uiso   1.00
O31    O     0.18453   0.28974   0.16667   0.00000  Uiso   1.00
O32    O     0.31547   0.21026   0.16666   0.00000  Uiso   1.00
O33    O     0.31547   0.28974   0.16666   0.00000  Uiso   1.00
O34    O     0.18453   0.21026   0.16667   0.00000  Uiso   1.00
O35    O     0.25000   0.28973   0.09511   0.00000  Uiso   1.00
O36    O     0.25000   0.21027   0.23822   0.00000  Uiso   1.00
O37    O     0.25000   0.28973   0.23822   0.00000  Uiso   1.00
O38    O     0.25000   0.21027   0.09511   0.00000  Uiso   1.00
Zn39   Zn    0.25000   0.30307   0.16667   0.00000  Uiso   1.00
Zn40   Zn    0.25000   0.19693   0.16667   0.00000  Uiso   1.00
O41    O     0.21207   0.12426   0.08658   0.00000  Uiso   1.00
H42    H     0.19580   0.15092   0.10080   0.00000  Uiso   1.00
O43    O     0.32095   0.37585   0.20968   0.00000  Uiso   1.00
H44    H     0.30805   0.34926   0.22783   0.00000  Uiso   1.00
O45    O     0.28793   0.12426   0.24675   0.00000  Uiso   1.00
H46    H     0.30420   0.15092   0.23253   0.00000  Uiso   1.00
O47    O     0.17905   0.37585   0.12366   0.00000  Uiso   1.00
H48    H     0.19194   0.34926   0.10551   0.00000  Uiso   1.00
O49    O     0.02373   0.30109   0.09216   0.00000  Uiso   1.00
H50    H     0.49354   0.30924   0.10316   0.00000  Uiso   1.00
O51    O     0.47333   0.20083   0.09179   0.00000  Uiso   1.00
H52    H     0.00416   0.19306   0.10282   0.00000  Uiso   1.00
O53    O     0.47627   0.30109   0.24117   0.00000  Uiso   1.00
H54    H     0.00646   0.30924   0.23017   0.00000  Uiso   1.00
O55    O     0.02667   0.20083   0.24154   0.00000  Uiso   1.00
H56    H     0.49584   0.19306   0.23051   0.00000  Uiso   1.00
C57    C     0.11430   0.29173   0.08213   0.00000  Uiso   1.00
H58    H     0.09976   0.32140   0.06232   0.00000  Uiso   1.00
O59    O     0.14755   0.27361   0.06544   0.00000  Uiso   1.00
C60    C     0.37953   0.20611   0.08450   0.00000  Uiso   1.00
H61    H     0.34535   0.21663   0.07672   0.00000  Uiso   1.00
O62    O     0.39563   0.17673   0.05723   0.00000  Uiso   1.00
C63    C     0.38570   0.29173   0.25121   0.00000  Uiso   1.00
H64    H     0.40023   0.32140   0.27101   0.00000  Uiso   1.00
O65    O     0.35245   0.27361   0.26790   0.00000  Uiso   1.00
C66    C     0.12047   0.20611   0.24884   0.00000  Uiso   1.00
H67    H     0.15465   0.21663   0.25662   0.00000  Uiso   1.00
O68    O     0.10437   0.17672   0.27610   0.00000  Uiso   1.00
O69    O     0.22562   0.03179   0.07803   0.00000  Uiso   1.00
H70    H     0.23961   0.00053   0.07676   0.00000  Uiso   1.00
O71    O     0.32867   0.46827   0.19449   0.00000  Uiso   1.00
H72    H     0.32986   0.49954   0.17879   0.00000  Uiso   1.00
O73    O     0.27437   0.03179   0.25530   0.00000  Uiso   1.00
H74    H     0.26039   0.00053   0.25658   0.00000  Uiso   1.00
O75    O     0.17133   0.46827   0.13885   0.00000  Uiso   1.00
H76    H     0.17014   0.49954   0.15454   0.00000  Uiso   1.00
C77    C     0.66417   0.24996   0.16646   0.00000  Uiso   1.00
C78    C     0.83583   0.24996   0.16688   0.00000  Uiso   1.00
C79    C     0.73302   0.10177   0.12610   0.00000  Uiso   1.00
C80    C     0.78599   0.39829   0.18586   0.00000  Uiso   1.00
C81    C     0.76698   0.10177   0.20724   0.00000  Uiso   1.00
C82    C     0.71401   0.39829   0.14747   0.00000  Uiso   1.00
C83    C     0.73678   0.05270   0.12333   0.00000  Uiso   1.00
C84    C     0.78846   0.44736   0.18169   0.00000  Uiso   1.00
C85    C     0.76322   0.05270   0.21001   0.00000  Uiso   1.00
C86    C     0.71154   0.44736   0.15164   0.00000  Uiso   1.00
C87    C     0.75010   0.24999   0.07297   0.00000  Uiso   1.00
C88    C     0.74990   0.24999   0.26037   0.00000  Uiso   1.00
C89    C     0.75000   0.02669   0.16667   0.00000  Uiso   1.00
C90    C     0.75000   0.47338   0.16667   0.00000  Uiso   1.00
C91    C     0.75005   0.24997   0.02182   0.00000  Uiso   1.00
C92    C     0.74995   0.24997   0.31151   0.00000  Uiso   1.00
C93    C     0.54624   0.27550   0.12900   0.00000  Uiso   1.00
C94    C     0.95211   0.22564   0.12877   0.00000  Uiso   1.00
C95    C     0.95376   0.27550   0.20433   0.00000  Uiso   1.00
C96    C     0.54789   0.22564   0.20456   0.00000  Uiso   1.00
C97    C     0.59232   0.27219   0.12687   0.00000  Uiso   1.00
C98    C     0.90558   0.22719   0.12748   0.00000  Uiso   1.00
C99    C     0.90768   0.27219   0.20647   0.00000  Uiso   1.00
C100   C     0.59442   0.22718   0.20585   0.00000  Uiso   1.00
C101   C     0.61623   0.24971   0.16632   0.00000  Uiso   1.00
C102   C     0.88376   0.24971   0.16702   0.00000  Uiso   1.00
C103   C     0.52415   0.25089   0.16685   0.00000  Uiso   1.00
C104   C     0.97585   0.25089   0.16648   0.00000  Uiso   1.00
N105   N     0.75000   0.12623   0.16667   0.00000  Uiso   1.00
N106   N     0.75000   0.37376   0.16667   0.00000  Uiso   1.00
O107   O     0.68453   0.28974   0.16667   0.00000  Uiso   1.00
O108   O     0.81547   0.21026   0.16666   0.00000  Uiso   1.00
O109   O     0.81547   0.28974   0.16666   0.00000  Uiso   1.00
O110   O     0.68453   0.21026   0.16667   0.00000  Uiso   1.00
O111   O     0.75000   0.28973   0.09511   0.00000  Uiso   1.00
O112   O     0.75000   0.21027   0.23822   0.00000  Uiso   1.00
O113   O     0.75000   0.28973   0.23822   0.00000  Uiso   1.00
O114   O     0.75000   0.21027   0.09511   0.00000  Uiso   1.00
Zn115  Zn    0.75000   0.30307   0.16667   0.00000  Uiso   1.00
Zn116  Zn    0.75000   0.19693   0.16667   0.00000  Uiso   1.00
O117   O     0.71207   0.12426   0.08658   0.00000  Uiso   1.00
H118   H     0.69580   0.15092   0.10080   0.00000  Uiso   1.00
O119   O     0.82095   0.37585   0.20968   0.00000  Uiso   1.00
H120   H     0.80805   0.34926   0.22783   0.00000  Uiso   1.00
O121   O     0.78793   0.12426   0.24675   0.00000  Uiso   1.00
H122   H     0.80420   0.15092   0.23253   0.00000  Uiso   1.00
O123   O     0.67905   0.37585   0.12366   0.00000  Uiso   1.00
H124   H     0.69194   0.34926   0.10551   0.00000  Uiso   1.00
O125   O     0.52373   0.30109   0.09216   0.00000  Uiso   1.00
H126   H     0.99354   0.30924   0.10316   0.00000  Uiso   1.00
O127   O     0.97333   0.20083   0.09179   0.00000  Uiso   1.00
H128   H     0.50416   0.19306   0.10282   0.00000  Uiso   1.00
O129   O     0.97627   0.30109   0.24117   0.00000  Uiso   1.00
H130   H     0.50646   0.30924   0.23017   0.00000  Uiso   1.00
O131   O     0.52667   0.20083   0.24154   0.00000  Uiso   1.00
H132   H     0.99584   0.19306   0.23051   0.00000  Uiso   1.00
C133   C     0.61430   0.29173   0.08213   0.00000  Uiso   1.00
H134   H     0.59976   0.32140   0.06232   0.00000  Uiso   1.00
O135   O     0.64755   0.27361   0.06544   0.00000  Uiso   1.00
C136   C     0.87953   0.20611   0.08450   0.00000  Uiso   1.00
H137   H     0.84535   0.21663   0.07672   0.00000  Uiso   1.00
O138   O     0.89563   0.17673   0.05723   0.00000  Uiso   1.00
C139   C     0.88570   0.29173   0.25121   0.00000  Uiso   1.00
H140   H     0.90023   0.32140   0.27101   0.00000  Uiso   1.00
O141   O     0.85245   0.27361   0.26790   0.00000  Uiso   1.00
C142   C     0.62047   0.20611   0.24884   0.00000  Uiso   1.00
H143   H     0.65465   0.21663   0.25662   0.00000  Uiso   1.00
O144   O     0.60437   0.17672   0.27610   0.00000  Uiso   1.00
O145   O     0.72562   0.03179   0.07803   0.00000  Uiso   1.00
H146   H     0.73961   0.00053   0.07676   0.00000  Uiso   1.00
O147   O     0.82867   0.46827   0.19449   0.00000  Uiso   1.00
H148   H     0.82986   0.49954   0.17879   0.00000  Uiso   1.00
O149   O     0.77437   0.03179   0.25530   0.00000  Uiso   1.00
H150   H     0.76039   0.00053   0.25658   0.00000  Uiso   1.00
O151   O     0.67133   0.46827   0.13885   0.00000  Uiso   1.00
H152   H     0.67014   0.49954   0.15454   0.00000  Uiso   1.00
C153   C     0.16417   0.74996   0.16646   0.00000  Uiso   1.00
C154   C     0.33583   0.74996   0.16688   0.00000  Uiso   1.00
C155   C     0.23302   0.60177   0.12610   0.00000  Uiso   1.00
C156   C     0.28599   0.89829   0.18586   0.00000  Uiso   1.00
C157   C     0.26698   0.60177   0.20724   0.00000  Uiso   1.00
C158   C     0.21401   0.89829   0.14747   0.00000  Uiso   1.00
C159   C     0.23678   0.55270   0.12333   0.00000  Uiso   1.00
C160   C     0.28846   0.94736   0.18169   0.00000  Uiso   1.00
C161   C     0.26322   0.55270   0.21001   0.00000  Uiso   1.00
C162   C     0.21154   0.94736   0.15164   0.00000  Uiso   1.00
C163   C     0.25010   0.74999   0.07297   0.00000  Uiso   1.00
C164   C     0.24990   0.74999   0.26037   0.00000  Uiso   1.00
C165   C     0.25000   0.52669   0.16667   0.00000  Uiso   1.00
C166   C     0.25000   0.97338   0.16667   0.00000  Uiso   1.00
C167   C     0.25005   0.74997   0.02182   0.00000  Uiso   1.00
C168   C     0.24995   0.74997   0.31151   0.00000  Uiso   1.00
C169   C     0.04624   0.77550   0.12900   0.00000  Uiso   1.00
C170   C     0.45211   0.72564   0.12877   0.00000  Uiso   1.00
C171   C     0.45376   0.77550   0.20433   0.00000  Uiso   1.00
C172   C     0.04789   0.72564   0.20456   0.00000  Uiso   1.00
C173   C     0.09232   0.77219   0.12687   0.00000  Uiso   1.00
C174   C     0.40558   0.72719   0.12748   0.00000  Uiso   1.00
C175   C     0.40768   0.77219   0.20647   0.00000  Uiso   1.00
C176   C     0.09442   0.72718   0.20585   0.00000  Uiso   1.00
C177   C     0.11623   0.74971   0.16632   0.00000  Uiso   1.00
C178   C     0.38376   0.74971   0.16702   0.00000  Uiso   1.00
C179   C     0.02415   0.75089   0.16685   0.00000  Uiso   1.00
C180   C     0.47585   0.75089   0.16648   0.00000  Uiso   1.00
N181   N     0.25000   0.62623   0.16667   0.00000  Uiso   1.00
N182   N     0.25000   0.87376   0.16667   0.00000  Uiso   1.00
O183   O     0.18453   0.78974   0.16667   0.00000  Uiso   1.00
O184   O     0.31547   0.71026   0.16666   0.00000  Uiso   1.00
O185   O     0.31547   0.78974   0.16666   0.00000  Uiso   1.00
O186   O     0.18453   0.71026   0.16667   0.00000  Uiso   1.00
O187   O     0.25000   0.78973   0.09511   0.00000  Uiso   1.00
O188   O     0.25000   0.71027   0.23822   0.00000  Uiso   1.00
O189   O     0.25000   0.78973   0.23822   0.00000  Uiso   1.00
O190   O     0.25000   0.71027   0.09511   0.00000  Uiso   1.00
Zn191  Zn    0.25000   0.80307   0.16667   0.00000  Uiso   1.00
Zn192  Zn    0.25000   0.69693   0.16667   0.00000  Uiso   1.00
O193   O     0.21207   0.62426   0.08658   0.00000  Uiso   1.00
H194   H     0.19580   0.65092   0.10080   0.00000  Uiso   1.00
O195   O     0.32095   0.87585   0.20968   0.00000  Uiso   1.00
H196   H     0.30805   0.84926   0.22783   0.00000  Uiso   1.00
O197   O     0.28793   0.62426   0.24675   0.00000  Uiso   1.00
H198   H     0.30420   0.65092   0.23253   0.00000  Uiso   1.00
O199   O     0.17905   0.87585   0.12366   0.00000  Uiso   1.00
H200   H     0.19194   0.84926   0.10551   0.00000  Uiso   1.00
O201   O     0.02373   0.80109   0.09216   0.00000  Uiso   1.00
H202   H     0.49354   0.80924   0.10316   0.00000  Uiso   1.00
O203   O     0.47333   0.70083   0.09179   0.00000  Uiso   1.00
H204   H     0.00416   0.69306   0.10282   0.00000  Uiso   1.00
O205   O     0.47627   0.80109   0.24117   0.00000  Uiso   1.00
H206   H     0.00646   0.80924   0.23017   0.00000  Uiso   1.00
O207   O     0.02667   0.70083   0.24154   0.00000  Uiso   1.00
H208   H     0.49584   0.69306   0.23051   0.00000  Uiso   1.00
C209   C     0.11430   0.79173   0.08213   0.00000  Uiso   1.00
H210   H     0.09976   0.82140   0.06232   0.00000  Uiso   1.00
O211   O     0.14755   0.77361   0.06544   0.00000  Uiso   1.00
C212   C     0.37953   0.70611   0.08450   0.00000  Uiso   1.00
H213   H     0.34535   0.71663   0.07672   0.00000  Uiso   1.00
O214   O     0.39563   0.67673   0.05723   0.00000  Uiso   1.00
C215   C     0.38570   0.79173   0.25121   0.00000  Uiso   1.00
H216   H     0.40023   0.82140   0.27101   0.00000  Uiso   1.00
O217   O     0.35245   0.77361   0.26790   0.00000  Uiso   1.00
C218   C     0.12047   0.70611   0.24884   0.00000  Uiso   1.00
H219   H     0.15465   0.71663   0.25662   0.00000  Uiso   1.00
O220   O     0.10437   0.67672   0.27610   0.00000  Uiso   1.00
O221   O     0.22562   0.53179   0.07803   0.00000  Uiso   1.00
H222   H     0.23961   0.50053   0.07676   0.00000  Uiso   1.00
O223   O     0.32867   0.96827   0.19449   0.00000  Uiso   1.00
H224   H     0.32986   0.99954   0.17879   0.00000  Uiso   1.00
O225   O     0.27437   0.53179   0.25530   0.00000  Uiso   1.00
H226   H     0.26039   0.50053   0.25658   0.00000  Uiso   1.00
O227   O     0.17133   0.96827   0.13885   0.00000  Uiso   1.00
H228   H     0.17014   0.99954   0.15454   0.00000  Uiso   1.00
C229   C     0.66417   0.74996   0.16646   0.00000  Uiso   1.00
C230   C     0.83583   0.74996   0.16688   0.00000  Uiso   1.00
C231   C     0.73302   0.60177   0.12610   0.00000  Uiso   1.00
C232   C     0.78599   0.89829   0.18586   0.00000  Uiso   1.00
C233   C     0.76698   0.60177   0.20724   0.00000  Uiso   1.00
C234   C     0.71401   0.89829   0.14747   0.00000  Uiso   1.00
C235   C     0.73678   0.55270   0.12333   0.00000  Uiso   1.00
C236   C     0.78846   0.94736   0.18169   0.00000  Uiso   1.00
C237   C     0.76322   0.55270   0.21001   0.00000  Uiso   1.00
C238   C     0.71154   0.94736   0.15164   0.00000  Uiso   1.00
C239   C     0.75010   0.74999   0.07297   0.00000  Uiso   1.00
C240   C     0.74990   0.74999   0.26037   0.00000  Uiso   1.00
C241   C     0.75000   0.52669   0.16667   0.00000  Uiso   1.00
C242   C     0.75000   0.97338   0.16667   0.00000  Uiso   1.00
C243   C     0.75005   0.74997   0.02182   0.00000  Uiso   1.00
C244   C     0.74995   0.74997   0.31151   0.00000  Uiso   1.00
C245   C     0.54624   0.77550   0.12900   0.00000  Uiso   1.00
C246   C     0.95211   0.72564   0.12877   0.00000  Uiso   1.00
C247   C     0.95376   0.77550   0.20433   0.00000  Uiso   1.00
C248   C     0.54789   0.72564   0.20456   0.00000  Uiso   1.00
C249   C     0.59232   0.77219   0.12687   0.00000  Uiso   1.00
C250   C     0.90558   0.72719   0.12748   0.00000  Uiso   1.00
C251   C     0.90768   0.77219   0.20647   0.00000  Uiso   1.00
C252   C     0.59442   0.72718   0.20585   0.00000  Uiso   1.00
C253   C     0.61623   0.74971   0.16632   0.00000  Uiso   1.00
C254   C     0.88376   0.74971   0.16702   0.00000  Uiso   1.00
C255   C     0.52415   0.75089   0.16685   0.00000  Uiso   1.00
C256   C     0.97585   0.75089   0.16648   0.00000  Uiso   1.00
N257   N     0.75000   0.62623   0.16667   0.00000  Uiso   1.00
N258   N     0.75000   0.87376   0.16667   0.00000  Uiso   1.00
O259   O     0.68453   0.78974   0.16667   0.00000  Uiso   1.00
O260   O     0.81547   0.71026   0.16666   0.00000  Uiso   1.00
O261   O     0.81547   0.78974   0.16666   0.00000  Uiso   1.00
O262   O     0.68453   0.71026   0.16667   0.00000  Uiso   1.00
O263   O     0.75000   0.78973   0.09511   0.00000  Uiso   1.00
O264   O     0.75000   0.71027   0.23822   0.00000  Uiso   1.00
O265   O     0.75000   0.78973   0.23822   0.00000  Uiso   1.00
O266   O     0.75000   0.71027   0.09511   0.00000  Uiso   1.00
Zn267  Zn    0.75000   0.80307   0.16667   0.00000  Uiso   1.00
Zn268  Zn    0.75000   0.69693   0.16667   0.00000  Uiso   1.00
O269   O     0.71207   0.62426   0.08658   0.00000  Uiso   1.00
H270   H     0.69580   0.65092   0.10080   0.00000  Uiso   1.00
O271   O     0.82095   0.87585   0.20968   0.00000  Uiso   1.00
H272   H     0.80805   0.84926   0.22783   0.00000  Uiso   1.00
O273   O     0.78793   0.62426   0.24675   0.00000  Uiso   1.00
H274   H     0.80420   0.65092   0.23253   0.00000  Uiso   1.00
O275   O     0.67905   0.87585   0.12366   0.00000  Uiso   1.00
H276   H     0.69194   0.84926   0.10551   0.00000  Uiso   1.00
O277   O     0.52373   0.80109   0.09216   0.00000  Uiso   1.00
H278   H     0.99354   0.80924   0.10316   0.00000  Uiso   1.00
O279   O     0.97333   0.70083   0.09179   0.00000  Uiso   1.00
H280   H     0.50416   0.69306   0.10282   0.00000  Uiso   1.00
O281   O     0.97627   0.80109   0.24117   0.00000  Uiso   1.00
H282   H     0.50646   0.80924   0.23017   0.00000  Uiso   1.00
O283   O     0.52667   0.70083   0.24154   0.00000  Uiso   1.00
H284   H     0.99584   0.69306   0.23051   0.00000  Uiso   1.00
C285   C     0.61430   0.79173   0.08213   0.00000  Uiso   1.00
H286   H     0.59976   0.82140   0.06232   0.00000  Uiso   1.00
O287   O     0.64755   0.77361   0.06544   0.00000  Uiso   1.00
C288   C     0.87953   0.70611   0.08450   0.00000  Uiso   1.00
H289   H     0.84535   0.71663   0.07672   0.00000  Uiso   1.00
O290   O     0.89563   0.67673   0.05723   0.00000  Uiso   1.00
C291   C     0.88570   0.79173   0.25121   0.00000  Uiso   1.00
H292   H     0.90023   0.82140   0.27101   0.00000  Uiso   1.00
O293   O     0.85245   0.77361   0.26790   0.00000  Uiso   1.00
C294   C     0.62047   0.70611   0.24884   0.00000  Uiso   1.00
H295   H     0.65465   0.71663   0.25662   0.00000  Uiso   1.00
O296   O     0.60437   0.67672   0.27610   0.00000  Uiso   1.00
O297   O     0.72562   0.53179   0.07803   0.00000  Uiso   1.00
H298   H     0.73961   0.50053   0.07676   0.00000  Uiso   1.00
O299   O     0.82867   0.96827   0.19449   0.00000  Uiso   1.00
H300   H     0.82986   0.99954   0.17879   0.00000  Uiso   1.00
O301   O     0.77437   0.53179   0.25530   0.00000  Uiso   1.00
H302   H     0.76039   0.50053   0.25658   0.00000  Uiso   1.00
O303   O     0.67133   0.96827   0.13885   0.00000  Uiso   1.00
H304   H     0.67014   0.99954   0.15454   0.00000  Uiso   1.00
C305   C     0.16417   0.24996   0.49979   0.00000  Uiso   1.00
C306   C     0.33583   0.24996   0.50021   0.00000  Uiso   1.00
C307   C     0.23302   0.10177   0.45943   0.00000  Uiso   1.00
C308   C     0.28599   0.39829   0.51920   0.00000  Uiso   1.00
C309   C     0.26698   0.10177   0.54057   0.00000  Uiso   1.00
C310   C     0.21401   0.39829   0.48080   0.00000  Uiso   1.00
C311   C     0.23678   0.05270   0.45666   0.00000  Uiso   1.00
C312   C     0.28846   0.44736   0.51502   0.00000  Uiso   1.00
C313   C     0.26322   0.05270   0.54334   0.00000  Uiso   1.00
C314   C     0.21154   0.44736   0.48498   0.00000  Uiso   1.00
C315   C     0.25010   0.24999   0.40630   0.00000  Uiso   1.00
C316   C     0.24990   0.24999   0.59370   0.00000  Uiso   1.00
C317   C     0.25000   0.02669   0.50000   0.00000  Uiso   1.00
C318   C     0.25000   0.47338   0.50000   0.00000  Uiso   1.00
C319   C     0.25005   0.24997   0.35515   0.00000  Uiso   1.00
C320   C     0.24995   0.24997   0.64485   0.00000  Uiso   1.00
C321   C     0.04624   0.27550   0.46234   0.00000  Uiso   1.00
C322   C     0.45211   0.22564   0.46210   0.00000  Uiso   1.00
C323   C     0.45376   0.27550   0.53766   0.00000  Uiso   1.00
C324   C     0.04789   0.22564   0.53790   0.00000  Uiso   1.00
C325   C     0.09232   0.27219   0.46020   0.00000  Uiso   1.00
C326   C     0.40558   0.22719   0.46082   0.00000  Uiso   1.00
C327   C     0.40768   0.27219   0.53980   0.00000  Uiso   1.00
C328   C     0.09442   0.22718   0.53918   0.00000  Uiso   1.00
C329   C     0.11623   0.24971   0.49965   0.00000  Uiso   1.00
C330   C     0.38376   0.24971   0.50035   0.00000  Uiso   1.00
C331   C     0.02415   0.25089   0.50018   0.00000  Uiso   1.00
C332   C     0.47585   0.25089   0.49982   0.00000  Uiso   1.00
N333   N     0.25000   0.12623   0.50000   0.00000  Uiso   1.00
N334   N     0.25000   0.37376   0.50000   0.00000  Uiso   1.00
O335   O     0.18453   0.28974   0.50000   0.00000  Uiso   1.00
O336   O     0.31547   0.21026   0.50000   0.00000  Uiso   1.00
O337   O     0.31547   0.28974   0.50000   0.00000  Uiso   1.00
O338   O     0.18453   0.21026   0.50000   0.00000  Uiso   1.00
O339   O     0.25000   0.28973   0.42845   0.00000  Uiso   1.00
O340   O     0.25000   0.21027   0.57155   0.00000  Uiso   1.00
O341   O     0.25000   0.28973   0.57155   0.00000  Uiso   1.00
O342   O     0.25000   0.21027   0.42845   0.00000  Uiso   1.00
Zn343  Zn    0.25000   0.30307   0.50000   0.00000  Uiso   1.00
Zn344  Zn    0.25000   0.19693   0.50000   0.00000  Uiso   1.00
O345   O     0.21207   0.12426   0.41992   0.00000  Uiso   1.00
H346   H     0.19580   0.15092   0.43413   0.00000  Uiso   1.00
O347   O     0.32095   0.37585   0.54301   0.00000  Uiso   1.00
H348   H     0.30805   0.34926   0.56116   0.00000  Uiso   1.00
O349   O     0.28793   0.12426   0.58008   0.00000  Uiso   1.00
H350   H     0.30420   0.15092   0.56587   0.00000  Uiso   1.00
O351   O     0.17905   0.37585   0.45699   0.00000  Uiso   1.00
H352   H     0.19194   0.34926   0.43884   0.00000  Uiso   1.00
O353   O     0.02373   0.30109   0.42550   0.00000  Uiso   1.00
H354   H     0.49354   0.30924   0.43650   0.00000  Uiso   1.00
O355   O     0.47333   0.20083   0.42513   0.00000  Uiso   1.00
H356   H     0.00416   0.19306   0.43615   0.00000  Uiso   1.00
O357   O     0.47627   0.30109   0.57450   0.00000  Uiso   1.00
H358   H     0.00646   0.30924   0.56350   0.00000  Uiso   1.00
O359   O     0.02667   0.20083   0.57487   0.00000  Uiso   1.00
H360   H     0.49584   0.19306   0.56385   0.00000  Uiso   1.00
C361   C     0.11430   0.29173   0.41546   0.00000  Uiso   1.00
H362   H     0.09976   0.32140   0.39565   0.00000  Uiso   1.00
O363   O     0.14755   0.27361   0.39877   0.00000  Uiso   1.00
C364   C     0.37953   0.20611   0.41783   0.00000  Uiso   1.00
H365   H     0.34535   0.21663   0.41005   0.00000  Uiso   1.00
O366   O     0.39563   0.17673   0.39056   0.00000  Uiso   1.00
C367   C     0.38570   0.29173   0.58454   0.00000  Uiso   1.00
H368   H     0.40023   0.32140   0.60435   0.00000  Uiso   1.00
O369   O     0.35245   0.27361   0.60123   0.00000  Uiso   1.00
C370   C     0.12047   0.20611   0.58217   0.00000  Uiso   1.00
H371   H     0.15465   0.21663   0.58995   0.00000  Uiso   1.00
O372   O     0.10437   0.17672   0.60943   0.00000  Uiso   1.00
O373   O     0.22562   0.03179   0.41136   0.00000  Uiso   1.00
H374   H     0.23961   0.00053   0.41009   0.00000  Uiso   1.00
O375   O     0.32867   0.46827   0.52782   0.00000  Uiso   1.00
H376   H     0.32986   0.49954   0.51213   0.00000  Uiso   1.00
O377   O     0.27437   0.03179   0.58864   0.00000  Uiso   1.00
H378   H     0.26039   0.00053   0.58991   0.00000  Uiso   1.00
O379   O     0.17133   0.46827   0.47218   0.00000  Uiso   1.00
H380   H     0.17014   0.49954   0.48787   0.00000  Uiso   1.00
C381   C     0.66417   0.24996   0.49979   0.00000  Uiso   1.00
C382   C     0.83583   0.24996   0.50021   0.00000  Uiso   1.00
C383   C     0.73302   0.10177   0.45943   0.00000  Uiso   1.00
C384   C     0.78599   0.39829   0.51920   0.00000  Uiso   1.00
C385   C     0.76698   0.10177   0.54057   0.00000  Uiso   1.00
C386   C     0.71401   0.39829   0.48080   0.00000  Uiso   1.00
C387   C     0.73678   0.05270   0.45666   0.00000  Uiso   1.00
C388   C     0.78846   0.44736   0.51502   0.00000  Uiso   1.00
C389   C     0.76322   0.05270   0.54334   0.00000  Uiso   1.00
C390   C     0.71154   0.44736   0.48498   0.00000  Uiso   1.00
C391   C     0.75010   0.24999   0.40630   0.00000  Uiso   1.00
C392   C     0.74990   0.24999   0.59370   0.00000  Uiso   1.00
C393   C     0.75000   0.02669   0.50000   0.00000  Uiso   1.00
C394   C     0.75000   0.47338   0.50000   0.00000  Uiso   1.00
C395   C     0.75005   0.24997   0.35515   0.00000  Uiso   1.00
C396   C     0.74995   0.24997   0.64485   0.00000  Uiso   1.00
C397   C     0.54624   0.27550   0.46234   0.00000  Uiso   1.00
C398   C     0.95211   0.22564   0.46210   0.00000  Uiso   1.00
C399   C     0.95376   0.27550   0.53766   0.00000  Uiso   1.00
C400   C     0.54789   0.22564   0.53790   0.00000  Uiso   1.00
C401   C     0.59232   0.27219   0.46020   0.00000  Uiso   1.00
C402   C     0.90558   0.22719   0.46082   0.00000  Uiso   1.00
C403   C     0.90768   0.27219   0.53980   0.00000  Uiso   1.00
C404   C     0.59442   0.22718   0.53918   0.00000  Uiso   1.00
C405   C     0.61623   0.24971   0.49965   0.00000  Uiso   1.00
C406   C     0.88376   0.24971   0.50035   0.00000  Uiso   1.00
C407   C     0.52415   0.25089   0.50018   0.00000  Uiso   1.00
C408   C     0.97585   0.25089   0.49982   0.00000  Uiso   1.00
N409   N     0.75000   0.12623   0.50000   0.00000  Uiso   1.00
N410   N     0.75000   0.37376   0.50000   0.00000  Uiso   1.00
O411   O     0.68453   0.28974   0.50000   0.00000  Uiso   1.00
O412   O     0.81547   0.21026   0.50000   0.00000  Uiso   1.00
O413   O     0.81547   0.28974   0.50000   0.00000  Uiso   1.00
O414   O     0.68453   0.21026   0.50000   0.00000  Uiso   1.00
O415   O     0.75000   0.28973   0.42845   0.00000  Uiso   1.00
O416   O     0.75000   0.21027   0.57155   0.00000  Uiso   1.00
O417   O     0.75000   0.28973   0.57155   0.00000  Uiso   1.00
O418   O     0.75000   0.21027   0.42845   0.00000  Uiso   1.00
Zn419  Zn    0.75000   0.30307   0.50000   0.00000  Uiso   1.00
Zn420  Zn    0.75000   0.19693   0.50000   0.00000  Uiso   1.00
O421   O     0.71207   0.12426   0.41992   0.00000  Uiso   1.00
H422   H     0.69580   0.15092   0.43413   0.00000  Uiso   1.00
O423   O     0.82095   0.37585   0.54301   0.00000  Uiso   1.00
H424   H     0.80805   0.34926   0.56116   0.00000  Uiso   1.00
O425   O     0.78793   0.12426   0.58008   0.00000  Uiso   1.00
H426   H     0.80420   0.15092   0.56587   0.00000  Uiso   1.00
O427   O     0.67905   0.37585   0.45699   0.00000  Uiso   1.00
H428   H     0.69194   0.34926   0.43884   0.00000  Uiso   1.00
O429   O     0.52373   0.30109   0.42550   0.00000  Uiso   1.00
H430   H     0.99354   0.30924   0.43650   0.00000  Uiso   1.00
O431   O     0.97333   0.20083   0.42513   0.00000  Uiso   1.00
H432   H     0.50416   0.19306   0.43615   0.00000  Uiso   1.00
O433   O     0.97627   0.30109   0.57450   0.00000  Uiso   1.00
H434   H     0.50646   0.30924   0.56350   0.00000  Uiso   1.00
O435   O     0.52667   0.20083   0.57487   0.00000  Uiso   1.00
H436   H     0.99584   0.19306   0.56385   0.00000  Uiso   1.00
C437   C     0.61430   0.29173   0.41546   0.00000  Uiso   1.00
H438   H     0.59976   0.32140   0.39565   0.00000  Uiso   1.00
O439   O     0.64755   0.27361   0.39877   0.00000  Uiso   1.00
C440   C     0.87953   0.20611   0.41783   0.00000  Uiso   1.00
H441   H     0.84535   0.21663   0.41005   0.00000  Uiso   1.00
O442   O     0.89563   0.17673   0.39056   0.00000  Uiso   1.00
C443   C     0.88570   0.29173   0.58454   0.00000  Uiso   1.00
H444   H     0.90023   0.32140   0.60435   0.00000  Uiso   1.00
O445   O     0.85245   0.27361   0.60123   0.00000  Uiso   1.00
C446   C     0.62047   0.20611   0.58217   0.00000  Uiso   1.00
H447   H     0.65465   0.21663   0.58995   0.00000  Uiso   1.00
O448   O     0.60437   0.17672   0.60943   0.00000  Uiso   1.00
O449   O     0.72562   0.03179   0.41136   0.00000  Uiso   1.00
H450   H     0.73961   0.00053   0.41009   0.00000  Uiso   1.00
O451   O     0.82867   0.46827   0.52782   0.00000  Uiso   1.00
H452   H     0.82986   0.49954   0.51213   0.00000  Uiso   1.00
O453   O     0.77437   0.03179   0.58864   0.00000  Uiso   1.00
H454   H     0.76039   0.00053   0.58991   0.00000  Uiso   1.00
O455   O     0.67133   0.46827   0.47218   0.00000  Uiso   1.00
H456   H     0.67014   0.49954   0.48787   0.00000  Uiso   1.00
C457   C     0.16417   0.74996   0.49979   0.00000  Uiso   1.00
C458   C     0.33583   0.74996   0.50021   0.00000  Uiso   1.00
C459   C     0.23302   0.60177   0.45943   0.00000  Uiso   1.00
C460   C     0.28599   0.89829   0.51920   0.00000  Uiso   1.00
C461   C     0.26698   0.60177   0.54057   0.00000  Uiso   1.00
C462   C     0.21401   0.89829   0.48080   0.00000  Uiso   1.00
C463   C     0.23678   0.55270   0.45666   0.00000  Uiso   1.00
C464   C     0.28846   0.94736   0.51502   0.00000  Uiso   1.00
C465   C     0.26322   0.55270   0.54334   0.00000  Uiso   1.00
C466   C     0.21154   0.94736   0.48498   0.00000  Uiso   1.00
C467   C     0.25010   0.74999   0.40630   0.00000  Uiso   1.00
C468   C     0.24990   0.74999   0.59370   0.00000  Uiso   1.00
C469   C     0.25000   0.52669   0.50000   0.00000  Uiso   1.00
C470   C     0.25000   0.97338   0.50000   0.00000  Uiso   1.00
C471   C     0.25005   0.74997   0.35515   0.00000  Uiso   1.00
C472   C     0.24995   0.74997   0.64485   0.00000  Uiso   1.00
C473   C     0.04624   0.77550   0.46234   0.00000  Uiso   1.00
C474   C     0.45211   0.72564   0.46210   0.00000  Uiso   1.00
C475   C     0.45376   0.77550   0.53766   0.00000  Uiso   1.00
C476   C     0.04789   0.72564   0.53790   0.00000  Uiso   1.00
C477   C     0.09232   0.77219   0.46020   0.00000  Uiso   1.00
C478   C     0.40558   0.72719   0.46082   0.00000  Uiso   1.00
C479   C     0.40768   0.77219   0.53980   0.00000  Uiso   1.00
C480   C     0.09442   0.72718   0.53918   0.00000  Uiso   1.00
C481   C     0.11623   0.74971   0.49965   0.00000  Uiso   1.00
C482   C     0.38376   0.74971   0.50035   0.00000  Uiso   1.00
C483   C     0.02415   0.75089   0.50018   0.00000  Uiso   1.00
C484   C     0.47585   0.75089   0.49982   0.00000  Uiso   1.00
N485   N     0.25000   0.62623   0.50000   0.00000  Uiso   1.00
N486   N     0.25000   0.87376   0.50000   0.00000  Uiso   1.00
O487   O     0.18453   0.78974   0.50000   0.00000  Uiso   1.00
O488   O     0.31547   0.71026   0.50000   0.00000  Uiso   1.00
O489   O     0.31547   0.78974   0.50000   0.00000  Uiso   1.00
O490   O     0.18453   0.71026   0.50000   0.00000  Uiso   1.00
O491   O     0.25000   0.78973   0.42845   0.00000  Uiso   1.00
O492   O     0.25000   0.71027   0.57155   0.00000  Uiso   1.00
O493   O     0.25000   0.78973   0.57155   0.00000  Uiso   1.00
O494   O     0.25000   0.71027   0.42845   0.00000  Uiso   1.00
Zn495  Zn    0.25000   0.80307   0.50000   0.00000  Uiso   1.00
Zn496  Zn    0.25000   0.69693   0.50000   0.00000  Uiso   1.00
O497   O     0.21207   0.62426   0.41992   0.00000  Uiso   1.00
H498   H     0.19580   0.65092   0.43413   0.00000  Uiso   1.00
O499   O     0.32095   0.87585   0.54301   0.00000  Uiso   1.00
H500   H     0.30805   0.84926   0.56116   0.00000  Uiso   1.00
O501   O     0.28793   0.62426   0.58008   0.00000  Uiso   1.00
H502   H     0.30420   0.65092   0.56587   0.00000  Uiso   1.00
O503   O     0.17905   0.87585   0.45699   0.00000  Uiso   1.00
H504   H     0.19194   0.84926   0.43884   0.00000  Uiso   1.00
O505   O     0.02373   0.80109   0.42550   0.00000  Uiso   1.00
H506   H     0.49354   0.80924   0.43650   0.00000  Uiso   1.00
O507   O     0.47333   0.70083   0.42513   0.00000  Uiso   1.00
H508   H     0.00416   0.69306   0.43615   0.00000  Uiso   1.00
O509   O     0.47627   0.80109   0.57450   0.00000  Uiso   1.00
H510   H     0.00646   0.80924   0.56350   0.00000  Uiso   1.00
O511   O     0.02667   0.70083   0.57487   0.00000  Uiso   1.00
H512   H     0.49584   0.69306   0.56385   0.00000  Uiso   1.00
C513   C     0.11430   0.79173   0.41546   0.00000  Uiso   1.00
H514   H     0.09976   0.82140   0.39565   0.00000  Uiso   1.00
O515   O     0.14755   0.77361   0.39877   0.00000  Uiso   1.00
C516   C     0.37953   0.70611   0.41783   0.00000  Uiso   1.00
H517   H     0.34535   0.71663   0.41005   0.00000  Uiso   1.00
O518   O     0.39563   0.67673   0.39056   0.00000  Uiso   1.00
C519   C     0.38570   0.79173   0.58454   0.00000  Uiso   1.00
H520   H     0.40023   0.82140   0.60435   0.00000  Uiso   1.00
O521   O     0.35245   0.77361   0.60123   0.00000  Uiso   1.00
C522   C     0.12047   0.70611   0.58217   0.00000  Uiso   1.00
H523   H     0.15465   0.71663   0.58995   0.00000  Uiso   1.00
O524   O     0.10437   0.67672   0.60943   0.00000  Uiso   1.00
O525   O     0.22562   0.53179   0.41136   0.00000  Uiso   1.00
H526   H     0.23961   0.50053   0.41009   0.00000  Uiso   1.00
O527   O     0.32867   0.96827   0.52782   0.00000  Uiso   1.00
H528   H     0.32986   0.99954   0.51213   0.00000  Uiso   1.00
O529   O     0.27437   0.53179   0.58864   0.00000  Uiso   1.00
H530   H     0.26039   0.50053   0.58991   0.00000  Uiso   1.00
O531   O     0.17133   0.96827   0.47218   0.00000  Uiso   1.00
H532   H     0.17014   0.99954   0.48787   0.00000  Uiso   1.00
C533   C     0.66417   0.74996   0.49979   0.00000  Uiso   1.00
C534   C     0.83583   0.74996   0.50021   0.00000  Uiso   1.00
C535   C     0.73302   0.60177   0.45943   0.00000  Uiso   1.00
C536   C     0.78599   0.89829   0.51920   0.00000  Uiso   1.00
C537   C     0.76698   0.60177   0.54057   0.00000  Uiso   1.00
C538   C     0.71401   0.89829   0.48080   0.00000  Uiso   1.00
C539   C     0.73678   0.55270   0.45666   0.00000  Uiso   1.00
C540   C     0.78846   0.94736   0.51502   0.00000  Uiso   1.00
C541   C     0.76322   0.55270   0.54334   0.00000  Uiso   1.00
C542   C     0.71154   0.94736   0.48498   0.00000  Uiso   1.00
C543   C     0.75010   0.74999   0.40630   0.00000  Uiso   1.00
C544   C     0.74990   0.74999   0.59370   0.00000  Uiso   1.00
C545   C     0.75000   0.52669   0.50000   0.00000  Uiso   1.00
C546   C     0.75000   0.97338   0.50000   0.00000  Uiso   1.00
C547   C     0.75005   0.74997   0.35515   0.00000  Uiso   1.00
C548   C     0.74995   0.74997   0.64485   0.00000  Uiso   1.00
C549   C     0.54624   0.77550   0.46234   0.00000  Uiso   1.00
C550   C     0.95211   0.72564   0.46210   0.00000  Uiso   1.00
C551   C     0.95376   0.77550   0.53766   0.00000  Uiso   1.00
C552   C     0.54789   0.72564   0.53790   0.00000  Uiso   1.00
C553   C     0.59232   0.77219   0.46020   0.00000  Uiso   1.00
C554   C     0.90558   0.72719   0.46082   0.00000  Uiso   1.00
C555   C     0.90768   0.77219   0.53980   0.00000  Uiso   1.00
C556   C     0.59442   0.72718   0.53918   0.00000  Uiso   1.00
C557   C     0.61623   0.74971   0.49965   0.00000  Uiso   1.00
C558   C     0.88376   0.74971   0.50035   0.00000  Uiso   1.00
C559   C     0.52415   0.75089   0.50018   0.00000  Uiso   1.00
C560   C     0.97585   0.75089   0.49982   0.00000  Uiso   1.00
N561   N     0.75000   0.62623   0.50000   0.00000  Uiso   1.00
N562   N     0.75000   0.87376   0.50000   0.00000  Uiso   1.00
O563   O     0.68453   0.78974   0.50000   0.00000  Uiso   1.00
O564   O     0.81547   0.71026   0.50000   0.00000  Uiso   1.00
O565   O     0.81547   0.78974   0.50000   0.00000  Uiso   1.00
O566   O     0.68453   0.71026   0.50000   0.00000  Uiso   1.00
O567   O     0.75000   0.78973   0.42845   0.00000  Uiso   1.00
O568   O     0.75000   0.71027   0.57155   0.00000  Uiso   1.00
O569   O     0.75000   0.78973   0.57155   0.00000  Uiso   1.00
O570   O     0.75000   0.71027   0.42845   0.00000  Uiso   1.00
Zn571  Zn    0.75000   0.80307   0.50000   0.00000  Uiso   1.00
Zn572  Zn    0.75000   0.69693   0.50000   0.00000  Uiso   1.00
O573   O     0.71207   0.62426   0.41992   0.00000  Uiso   1.00
H574   H     0.69580   0.65092   0.43413   0.00000  Uiso   1.00
O575   O     0.82095   0.87585   0.54301   0.00000  Uiso   1.00
H576   H     0.80805   0.84926   0.56116   0.00000  Uiso   1.00
O577   O     0.78793   0.62426   0.58008   0.00000  Uiso   1.00
H578   H     0.80420   0.65092   0.56587   0.00000  Uiso   1.00
O579   O     0.67905   0.87585   0.45699   0.00000  Uiso   1.00
H580   H     0.69194   0.84926   0.43884   0.00000  Uiso   1.00
O581   O     0.52373   0.80109   0.42550   0.00000  Uiso   1.00
H582   H     0.99354   0.80924   0.43650   0.00000  Uiso   1.00
O583   O     0.97333   0.70083   0.42513   0.00000  Uiso   1.00
H584   H     0.50416   0.69306   0.43615   0.00000  Uiso   1.00
O585   O     0.97627   0.80109   0.57450   0.00000  Uiso   1.00
H586   H     0.50646   0.80924   0.56350   0.00000  Uiso   1.00
O587   O     0.52667   0.70083   0.57487   0.00000  Uiso   1.00
H588   H     0.99584   0.69306   0.56385   0.00000  Uiso   1.00
C589   C     0.61430   0.79173   0.41546   0.00000  Uiso   1.00
H590   H     0.59976   0.82140   0.39565   0.00000  Uiso   1.00
O591   O     0.64755   0.77361   0.39877   0.00000  Uiso   1.00
C592   C     0.87953   0.70611   0.41783   0.00000  Uiso   1.00
H593   H     0.84535   0.71663   0.41005   0.00000  Uiso   1.00
O594   O     0.89563   0.67673   0.39056   0.00000  Uiso   1.00
C595   C     0.88570   0.79173   0.58454   0.00000  Uiso   1.00
H596   H     0.90023   0.82140   0.60435   0.00000  Uiso   1.00
O597   O     0.85245   0.77361   0.60123   0.00000  Uiso   1.00
C598   C     0.62047   0.70611   0.58217   0.00000  Uiso   1.00
H599   H     0.65465   0.71663   0.58995   0.00000  Uiso   1.00
O600   O     0.60437   0.67672   0.60943   0.00000  Uiso   1.00
O601   O     0.72562   0.53179   0.41136   0.00000  Uiso   1.00
H602   H     0.73961   0.50053   0.41009   0.00000  Uiso   1.00
O603   O     0.82867   0.96827   0.52782   0.00000  Uiso   1.00
H604   H     0.82986   0.99954   0.51213   0.00000  Uiso   1.00
O605   O     0.77437   0.53179   0.58864   0.00000  Uiso   1.00
H606   H     0.76039   0.50053   0.58991   0.00000  Uiso   1.00
O607   O     0.67133   0.96827   0.47218   0.00000  Uiso   1.00
H608   H     0.67014   0.99954   0.48787   0.00000  Uiso   1.00
C609   C     0.16417   0.24996   0.83312   0.00000  Uiso   1.00
C610   C     0.33583   0.24996   0.83354   0.00000  Uiso   1.00
C611   C     0.23302   0.10177   0.79276   0.00000  Uiso   1.00
C612   C     0.28599   0.39829   0.85253   0.00000  Uiso   1.00
C613   C     0.26698   0.10177   0.87390   0.00000  Uiso   1.00
C614   C     0.21401   0.39829   0.81414   0.00000  Uiso   1.00
C615   C     0.23678   0.05270   0.78999   0.00000  Uiso   1.00
C616   C     0.28846   0.44736   0.84836   0.00000  Uiso   1.00
C617   C     0.26322   0.05270   0.87667   0.00000  Uiso   1.00
C618   C     0.21154   0.44736   0.81831   0.00000  Uiso   1.00
C619   C     0.25010   0.24999   0.73963   0.00000  Uiso   1.00
C620   C     0.24990   0.24999   0.92703   0.00000  Uiso   1.00
C621   C     0.25000   0.02669   0.83333   0.00000  Uiso   1.00
C622   C     0.25000   0.47338   0.83333   0.00000  Uiso   1.00
C623   C     0.25005   0.24997   0.68849   0.00000  Uiso   1.00
C624   C     0.24995   0.24997   0.97818   0.00000  Uiso   1.00
C625   C     0.04624   0.27550   0.79567   0.00000  Uiso   1.00
C626   C     0.45211   0.22564   0.79543   0.00000  Uiso   1.00
C627   C     0.45376   0.27550   0.87100   0.00000  Uiso   1.00
C628   C     0.04789   0.22564   0.87123   0.00000  Uiso   1.00
C629   C     0.09232   0.27219   0.79353   0.00000  Uiso   1.00
C630   C     0.40558   0.22719   0.79415   0.00000  Uiso   1.00
C631   C     0.40768   0.27219   0.87313   0.00000  Uiso   1.00
C632   C     0.09442   0.22718   0.87251   0.00000  Uiso   1.00
C633   C     0.11623   0.24971   0.83298   0.00000  Uiso   1.00
C634   C     0.38376   0.24971   0.83368   0.00000  Uiso   1.00
C635   C     0.02415   0.25089   0.83351   0.00000  Uiso   1.00
C636   C     0.47585   0.25089   0.83315   0.00000  Uiso   1.00
N637   N     0.25000   0.12623   0.83333   0.00000  Uiso   1.00
N638   N     0.25000   0.37376   0.83333   0.00000  Uiso   1.00
O639   O     0.18453   0.28974   0.83334   0.00000  Uiso   1.00
O640   O     0.31547   0.21026   0.83333   0.00000  Uiso   1.00
O641   O     0.31547   0.28974   0.83333   0.00000  Uiso   1.00
O642   O     0.18453   0.21026   0.83334   0.00000  Uiso   1.00
O643   O     0.25000   0.28973   0.76178   0.00000  Uiso   1.00
O644   O     0.25000   0.21027   0.90489   0.00000  Uiso   1.00
O645   O     0.25000   0.28973   0.90489   0.00000  Uiso   1.00
O646   O     0.25000   0.21027   0.76178   0.00000  Uiso   1.00
Zn647  Zn    0.25000   0.30307   0.83333   0.00000  Uiso   1.00
Zn648  Zn    0.25000   0.19693   0.83333   0.00000  Uiso   1.00
O649   O     0.21207   0.12426   0.75325   0.00000  Uiso   1.00
H650   H     0.19580   0.15092   0.76747   0.00000  Uiso   1.00
O651   O     0.32095   0.37585   0.87634   0.00000  Uiso   1.00
H652   H     0.30805   0.34926   0.89449   0.00000  Uiso   1.00
O653   O     0.28793   0.12426   0.91342   0.00000  Uiso   1.00
H654   H     0.30420   0.15092   0.89920   0.00000  Uiso   1.00
O655   O     0.17905   0.37585   0.79032   0.00000  Uiso   1.00
H656   H     0.19194   0.34926   0.77217   0.00000  Uiso   1.00
O657   O     0.02373   0.30109   0.75883   0.00000  Uiso   1.00
H658   H     0.49354   0.30924   0.76983   0.00000  Uiso   1.00
O659   O     0.47333   0.20083   0.75846   0.00000  Uiso   1.00
H660   H     0.00416   0.19306   0.76949   0.00000  Uiso   1.00
O661   O     0.47627   0.30109   0.90784   0.00000  Uiso   1.00
H662   H     0.00646   0.30924   0.89684   0.00000  Uiso   1.00
O663   O     0.02667   0.20083   0.90821   0.00000  Uiso   1.00
H664   H     0.49584   0.19306   0.89718   0.00000  Uiso   1.00
C665   C     0.11430   0.29173   0.74879   0.00000  Uiso   1.00
H666   H     0.09976   0.32140   0.72899   0.00000  Uiso   1.00
O667   O     0.14755   0.27361   0.73210   0.00000  Uiso   1.00
C668   C     0.37953   0.20611   0.75116   0.00000  Uiso   1.00
H669   H     0.34535   0.21663   0.74338   0.00000  Uiso   1.00
O670   O     0.39563   0.17673   0.72390   0.00000  Uiso   1.00
C671   C     0.38570   0.29173   0.91787   0.00000  Uiso   1.00
H672   H     0.40023   0.32140   0.93768   0.00000  Uiso   1.00
O673   O     0.35245   0.27361   0.93456   0.00000  Uiso   1.00
C674   C     0.12047   0.20611   0.91550   0.00000  Uiso   1.00
H675   H     0.15465   0.21663   0.92328   0.00000  Uiso   1.00
O676   O     0.10437   0.17672   0.94276   0.00000  Uiso   1.00
O677   O     0.22562   0.03179   0.74470   0.00000  Uiso   1.00
H678   H     0.23961   0.00053   0.74342   0.00000  Uiso   1.00
O679   O     0.32867   0.46827   0.86115   0.00000  Uiso   1.00
H680   H     0.32986   0.49954   0.84546   0.00000  Uiso   1.00
O681   O     0.27437   0.03179   0.92197   0.00000  Uiso   1.00
H682   H     0.26039   0.00053   0.92324   0.00000  Uiso   1.00
O683   O     0.17133   0.46827   0.80551   0.00000  Uiso   1.00
H684   H     0.17014   0.49954   0.82121   0.00000  Uiso   1.00
C685   C     0.66417   0.24996   0.83312   0.00000  Uiso   1.00
C686   C     0.83583   0.24996   0.83354   0.00000  Uiso   1.00
C687   C     0.73302   0.10177   0.79276   0.00000  Uiso   1.00
C688   C     0.78599   0.39829   0.85253   0.00000  Uiso   1.00
C689   C     0.76698   0.10177   0.87390   0.00000  Uiso   1.00
C690   C     0.71401   0.39829   0.81414   0.00000  Uiso   1.00
C691   C     0.73678   0.05270   0.78999   0.00000  Uiso   1.00
C692   C     0.78846   0.44736   0.84836   0.00000  Uiso   1.00
C693   C     0.76322   0.05270   0.87667   0.00000  Uiso   1.00
C694   C     0.71154   0.44736   0.81831   0.00000  Uiso   1.00
C695   C     0.75010   0.24999   0.73963   0.00000  Uiso   1.00
C696   C     0.74990   0.24999   0.92703   0.00000  Uiso   1.00
C697   C     0.75000   0.02669   0.83333   0.00000  Uiso   1.00
C698   C     0.75000   0.47338   0.83333   0.00000  Uiso   1.00
C699   C     0.75005   0.24997   0.68849   0.00000  Uiso   1.00
C700   C     0.74995   0.24997   0.97818   0.00000  Uiso   1.00
C701   C     0.54624   0.27550   0.79567   0.00000  Uiso   1.00
C702   C     0.95211   0.22564   0.79543   0.00000  Uiso   1.00
C703   C     0.95376   0.27550   0.87100   0.00000  Uiso   1.00
C704   C     0.54789   0.22564   0.87123   0.00000  Uiso   1.00
C705   C     0.59232   0.27219   0.79353   0.00000  Uiso   1.00
C706   C     0.90558   0.22719   0.79415   0.00000  Uiso   1.00
C707   C     0.90768   0.27219   0.87313   0.00000  Uiso   1.00
C708   C     0.59442   0.22718   0.87251   0.00000  Uiso   1.00
C709   C     0.61623   0.24971   0.83298   0.00000  Uiso   1.00
C710   C     0.88376   0.24971   0.83368   0.00000  Uiso   1.00
C711   C     0.52415   0.25089   0.83351   0.00000  Uiso   1.00
C712   C     0.97585   0.25089   0.83315   0.00000  Uiso   1.00
N713   N     0.75000   0.12623   0.83333   0.00000  Uiso   1.00
N714   N     0.75000   0.37376   0.83333   0.00000  Uiso   1.00
O715   O     0.68453   0.28974   0.83334   0.00000  Uiso   1.00
O716   O     0.81547   0.21026   0.83333   0.00000  Uiso   1.00
O717   O     0.81547   0.28974   0.83333   0.00000  Uiso   1.00
O718   O     0.68453   0.21026   0.83334   0.00000  Uiso   1.00
O719   O     0.75000   0.28973   0.76178   0.00000  Uiso   1.00
O720   O     0.75000   0.21027   0.90489   0.00000  Uiso   1.00
O721   O     0.75000   0.28973   0.90489   0.00000  Uiso   1.00
O722   O     0.75000   0.21027   0.76178   0.00000  Uiso   1.00
Zn723  Zn    0.75000   0.30307   0.83333   0.00000  Uiso   1.00
Zn724  Zn    0.75000   0.19693   0.83333   0.00000  Uiso   1.00
O725   O     0.71207   0.12426   0.75325   0.00000  Uiso   1.00
H726   H     0.69580   0.15092   0.76747   0.00000  Uiso   1.00
O727   O     0.82095   0.37585   0.87634   0.00000  Uiso   1.00
H728   H     0.80805   0.34926   0.89449   0.00000  Uiso   1.00
O729   O     0.78793   0.12426   0.91342   0.00000  Uiso   1.00
H730   H     0.80420   0.15092   0.89920   0.00000  Uiso   1.00
O731   O     0.67905   0.37585   0.79032   0.00000  Uiso   1.00
H732   H     0.69194   0.34926   0.77217   0.00000  Uiso   1.00
O733   O     0.52373   0.30109   0.75883   0.00000  Uiso   1.00
H734   H     0.99354   0.30924   0.76983   0.00000  Uiso   1.00
O735   O     0.97333   0.20083   0.75846   0.00000  Uiso   1.00
H736   H     0.50416   0.19306   0.76949   0.00000  Uiso   1.00
O737   O     0.97627   0.30109   0.90784   0.00000  Uiso   1.00
H738   H     0.50646   0.30924   0.89684   0.00000  Uiso   1.00
O739   O     0.52667   0.20083   0.90821   0.00000  Uiso   1.00
H740   H     0.99584   0.19306   0.89718   0.00000  Uiso   1.00
C741   C     0.61430   0.29173   0.74879   0.00000  Uiso   1.00
H742   H     0.59976   0.32140   0.72899   0.00000  Uiso   1.00
O743   O     0.64755   0.27361   0.73210   0.00000  Uiso   1.00
C744   C     0.87953   0.20611   0.75116   0.00000  Uiso   1.00
H745   H     0.84535   0.21663   0.74338   0.00000  Uiso   1.00
O746   O     0.89563   0.17673   0.72390   0.00000  Uiso   1.00
C747   C     0.88570   0.29173   0.91787   0.00000  Uiso   1.00
H748   H     0.90023   0.32140   0.93768   0.00000  Uiso   1.00
O749   O     0.85245   0.27361   0.93456   0.00000  Uiso   1.00
C750   C     0.62047   0.20611   0.91550   0.00000  Uiso   1.00
H751   H     0.65465   0.21663   0.92328   0.00000  Uiso   1.00
O752   O     0.60437   0.17672   0.94276   0.00000  Uiso   1.00
O753   O     0.72562   0.03179   0.74470   0.00000  Uiso   1.00
H754   H     0.73961   0.00053   0.74342   0.00000  Uiso   1.00
O755   O     0.82867   0.46827   0.86115   0.00000  Uiso   1.00
H756   H     0.82986   0.49954   0.84546   0.00000  Uiso   1.00
O757   O     0.77437   0.03179   0.92197   0.00000  Uiso   1.00
H758   H     0.76039   0.00053   0.92324   0.00000  Uiso   1.00
O759   O     0.67133   0.46827   0.80551   0.00000  Uiso   1.00
H760   H     0.67014   0.49954   0.82121   0.00000  Uiso   1.00
C761   C     0.16417   0.74996   0.83312   0.00000  Uiso   1.00
C762   C     0.33583   0.74996   0.83354   0.00000  Uiso   1.00
C763   C     0.23302   0.60177   0.79276   0.00000  Uiso   1.00
C764   C     0.28599   0.89829   0.85253   0.00000  Uiso   1.00
C765   C     0.26698   0.60177   0.87390   0.00000  Uiso   1.00
C766   C     0.21401   0.89829   0.81414   0.00000  Uiso   1.00
C767   C     0.23678   0.55270   0.78999   0.00000  Uiso   1.00
C768   C     0.28846   0.94736   0.84836   0.00000  Uiso   1.00
C769   C     0.26322   0.55270   0.87667   0.00000  Uiso   1.00
C770   C     0.21154   0.94736   0.81831   0.00000  Uiso   1.00
C771   C     0.25010   0.74999   0.73963   0.00000  Uiso   1.00
C772   C     0.24990   0.74999   0.92703   0.00000  Uiso   1.00
C773   C     0.25000   0.52669   0.83333   0.00000  Uiso   1.00
C774   C     0.25000   0.97338   0.83333   0.00000  Uiso   1.00
C775   C     0.25005   0.74997   0.68849   0.00000  Uiso   1.00
C776   C     0.24995   0.74997   0.97818   0.00000  Uiso   1.00
C777   C     0.04624   0.77550   0.79567   0.00000  Uiso   1.00
C778   C     0.45211   0.72564   0.79543   0.00000  Uiso   1.00
C779   C     0.45376   0.77550   0.87100   0.00000  Uiso   1.00
C780   C     0.04789   0.72564   0.87123   0.00000  Uiso   1.00
C781   C     0.09232   0.77219   0.79353   0.00000  Uiso   1.00
C782   C     0.40558   0.72719   0.79415   0.00000  Uiso   1.00
C783   C     0.40768   0.77219   0.87313   0.00000  Uiso   1.00
C784   C     0.09442   0.72718   0.87251   0.00000  Uiso   1.00
C785   C     0.11623   0.74971   0.83298   0.00000  Uiso   1.00
C786   C     0.38376   0.74971   0.83368   0.00000  Uiso   1.00
C787   C     0.02415   0.75089   0.83351   0.00000  Uiso   1.00
C788   C     0.47585   0.75089   0.83315   0.00000  Uiso   1.00
N789   N     0.25000   0.62623   0.83333   0.00000  Uiso   1.00
N790   N     0.25000   0.87376   0.83333   0.00000  Uiso   1.00
O791   O     0.18453   0.78974   0.83334   0.00000  Uiso   1.00
O792   O     0.31547   0.71026   0.83333   0.00000  Uiso   1.00
O793   O     0.31547   0.78974   0.83333   0.00000  Uiso   1.00
O794   O     0.18453   0.71026   0.83334   0.00000  Uiso   1.00
O795   O     0.25000   0.78973   0.76178   0.00000  Uiso   1.00
O796   O     0.25000   0.71027   0.90489   0.00000  Uiso   1.00
O797   O     0.25000   0.78973   0.90489   0.00000  Uiso   1.00
O798   O     0.25000   0.71027   0.76178   0.00000  Uiso   1.00
Zn799  Zn    0.25000   0.80307   0.83333   0.00000  Uiso   1.00
Zn800  Zn    0.25000   0.69693   0.83333   0.00000  Uiso   1.00
O801   O     0.21207   0.62426   0.75325   0.00000  Uiso   1.00
H802   H     0.19580   0.65092   0.76747   0.00000  Uiso   1.00
O803   O     0.32095   0.87585   0.87634   0.00000  Uiso   1.00
H804   H     0.30805   0.84926   0.89449   0.00000  Uiso   1.00
O805   O     0.28793   0.62426   0.91342   0.00000  Uiso   1.00
H806   H     0.30420   0.65092   0.89920   0.00000  Uiso   1.00
O807   O     0.17905   0.87585   0.79032   0.00000  Uiso   1.00
H808   H     0.19194   0.84926   0.77217   0.00000  Uiso   1.00
O809   O     0.02373   0.80109   0.75883   0.00000  Uiso   1.00
H810   H     0.49354   0.80924   0.76983   0.00000  Uiso   1.00
O811   O     0.47333   0.70083   0.75846   0.00000  Uiso   1.00
H812   H     0.00416   0.69306   0.76949   0.00000  Uiso   1.00
O813   O     0.47627   0.80109   0.90784   0.00000  Uiso   1.00
H814   H     0.00646   0.80924   0.89684   0.00000  Uiso   1.00
O815   O     0.02667   0.70083   0.90821   0.00000  Uiso   1.00
H816   H     0.49584   0.69306   0.89718   0.00000  Uiso   1.00
C817   C     0.11430   0.79173   0.74879   0.00000  Uiso   1.00
H818   H     0.09976   0.82140   0.72899   0.00000  Uiso   1.00
O819   O     0.14755   0.77361   0.73210   0.00000  Uiso   1.00
C820   C     0.37953   0.70611   0.75116   0.00000  Uiso   1.00
H821   H     0.34535   0.71663   0.74338   0.00000  Uiso   1.00
O822   O     0.39563   0.67673   0.72390   0.00000  Uiso   1.00
C823   C     0.38570   0.79173   0.91787   0.00000  Uiso   1.00
H824   H     0.40023   0.82140   0.93768   0.00000  Uiso   1.00
O825   O     0.35245   0.77361   0.93456   0.00000  Uiso   1.00
C826   C     0.12047   0.70611   0.91550   0.00000  Uiso   1.00
H827   H     0.15465   0.71663   0.92328   0.00000  Uiso   1.00
O828   O     0.10437   0.67672   0.94276   0.00000  Uiso   1.00
O829   O     0.22562   0.53179   0.74470   0.00000  Uiso   1.00
H830   H     0.23961   0.50053   0.74342   0.00000  Uiso   1.00
O831   O     0.32867   0.96827   0.86115   0.00000  Uiso   1.00
H832   H     0.32986   0.99954   0.84546   0.00000  Uiso   1.00
O833   O     0.27437   0.53179   0.92197   0.00000  Uiso   1.00
H834   H     0.26039   0.50053   0.92324   0.00000  Uiso   1.00
O835   O     0.17133   0.96827   0.80551   0.00000  Uiso   1.00
H836   H     0.17014   0.99954   0.82121   0.00000  Uiso   1.00
C837   C     0.66417   0.74996   0.83312   0.00000  Uiso   1.00
C838   C     0.83583   0.74996   0.83354   0.00000  Uiso   1.00
C839   C     0.73302   0.60177   0.79276   0.00000  Uiso   1.00
C840   C     0.78599   0.89829   0.85253   0.00000  Uiso   1.00
C841   C     0.76698   0.60177   0.87390   0.00000  Uiso   1.00
C842   C     0.71401   0.89829   0.81414   0.00000  Uiso   1.00
C843   C     0.73678   0.55270   0.78999   0.00000  Uiso   1.00
C844   C     0.78846   0.94736   0.84836   0.00000  Uiso   1.00
C845   C     0.76322   0.55270   0.87667   0.00000  Uiso   1.00
C846   C     0.71154   0.94736   0.81831   0.00000  Uiso   1.00
C847   C     0.75010   0.74999   0.73963   0.00000  Uiso   1.00
C848   C     0.74990   0.74999   0.92703   0.00000  Uiso   1.00
C849   C     0.75000   0.52669   0.83333   0.00000  Uiso   1.00
C850   C     0.75000   0.97338   0.83333   0.00000  Uiso   1.00
C851   C     0.75005   0.74997   0.68849   0.00000  Uiso   1.00
C852   C     0.74995   0.74997   0.97818   0.00000  Uiso   1.00
C853   C     0.54624   0.77550   0.79567   0.00000  Uiso   1.00
C854   C     0.95211   0.72564   0.79543   0.00000  Uiso   1.00
C855   C     0.95376   0.77550   0.87100   0.00000  Uiso   1.00
C856   C     0.54789   0.72564   0.87123   0.00000  Uiso   1.00
C857   C     0.59232   0.77219   0.79353   0.00000  Uiso   1.00
C858   C     0.90558   0.72719   0.79415   0.00000  Uiso   1.00
C859   C     0.90768   0.77219   0.87313   0.00000  Uiso   1.00
C860   C     0.59442   0.72718   0.87251   0.00000  Uiso   1.00
C861   C     0.61623   0.74971   0.83298   0.00000  Uiso   1.00
C862   C     0.88376   0.74971   0.83368   0.00000  Uiso   1.00
C863   C     0.52415   0.75089   0.83351   0.00000  Uiso   1.00
C864   C     0.97585   0.75089   0.83315   0.00000  Uiso   1.00
N865   N     0.75000   0.62623   0.83333   0.00000  Uiso   1.00
N866   N     0.75000   0.87376   0.83333   0.00000  Uiso   1.00
O867   O     0.68453   0.78974   0.83334   0.00000  Uiso   1.00
O868   O     0.81547   0.71026   0.83333   0.00000  Uiso   1.00
O869   O     0.81547   0.78974   0.83333   0.00000  Uiso   1.00
O870   O     0.68453   0.71026   0.83334   0.00000  Uiso   1.00
O871   O     0.75000   0.78973   0.76178   0.00000  Uiso   1.00
O872   O     0.75000   0.71027   0.90489   0.00000  Uiso   1.00
O873   O     0.75000   0.78973   0.90489   0.00000  Uiso   1.00
O874   O     0.75000   0.71027   0.76178   0.00000  Uiso   1.00
Zn875  Zn    0.75000   0.80307   0.83333   0.00000  Uiso   1.00
Zn876  Zn    0.75000   0.69693   0.83333   0.00000  Uiso   1.00
O877   O     0.71207   0.62426   0.75325   0.00000  Uiso   1.00
H878   H     0.69580   0.65092   0.76747   0.00000  Uiso   1.00
O879   O     0.82095   0.87585   0.87634   0.00000  Uiso   1.00
H880   H     0.80805   0.84926   0.89449   0.00000  Uiso   1.00
O881   O     0.78793   0.62426   0.91342   0.00000  Uiso   1.00
H882   H     0.80420   0.65092   0.89920   0.00000  Uiso   1.00
O883   O     0.67905   0.87585   0.79032   0.00000  Uiso   1.00
H884   H     0.69194   0.84926   0.77217   0.00000  Uiso   1.00
O885   O     0.52373   0.80109   0.75883   0.00000  Uiso   1.00
H886   H     0.99354   0.80924   0.76983   0.00000  Uiso   1.00
O887   O     0.97333   0.70083   0.75846   0.00000  Uiso   1.00
H888   H     0.50416   0.69306   0.76949   0.00000  Uiso   1.00
O889   O     0.97627   0.80109   0.90784   0.00000  Uiso   1.00
H890   H     0.50646   0.80924   0.89684   0.00000  Uiso   1.00
O891   O     0.52667   0.70083   0.90821   0.00000  Uiso   1.00
H892   H     0.99584   0.69306   0.89718   0.00000  Uiso   1.00
C893   C     0.61430   0.79173   0.74879   0.00000  Uiso   1.00
H894   H     0.59976   0.82140   0.72899   0.00000  Uiso   1.00
O895   O     0.64755   0.77361   0.73210   0.00000  Uiso   1.00
C896   C     0.87953   0.70611   0.75116   0.00000  Uiso   1.00
H897   H     0.84535   0.71663   0.74338   0.00000  Uiso   1.00
O898   O     0.89563   0.67673   0.72390   0.00000  Uiso   1.00
C899   C     0.88570   0.79173   0.91787   0.00000  Uiso   1.00
H900   H     0.90023   0.82140   0.93768   0.00000  Uiso   1.00
O901   O     0.85245   0.77361   0.93456   0.00000  Uiso   1.00
C902   C     0.62047   0.70611   0.91550   0.00000  Uiso   1.00
H903   H     0.65465   0.71663   0.92328   0.00000  Uiso   1.00
O904   O     0.60437   0.67672   0.94276   0.00000  Uiso   1.00
O905   O     0.72562   0.53179   0.74470   0.00000  Uiso   1.00
H906   H     0.73961   0.50053   0.74342   0.00000  Uiso   1.00
O907   O     0.82867   0.96827   0.86115   0.00000  Uiso   1.00
H908   H     0.82986   0.99954   0.84546   0.00000  Uiso   1.00
O909   O     0.77437   0.53179   0.92197   0.00000  Uiso   1.00
H910   H     0.76039   0.50053   0.92324   0.00000  Uiso   1.00
O911   O     0.67133   0.96827   0.80551   0.00000  Uiso   1.00
H912   H     0.67014   0.99954   0.82121   0.00000  Uiso   1.00
loop_
_geom_bond_atom_site_label_1
_geom_bond_atom_site_label_2
_geom_bond_distance
_geom_bond_site_symmetry_2
_ccdc_geom_bond_type
C1     O34     1.290   .     A
C1     O31     1.292   .     A
C1     C25     1.439   .     S
C2     C26     1.439   .     S
C2     O32     1.290   .     A
C2     O33     1.292   .     A
C3     C7      1.411   .     A
C3     N29     1.375   .     A
C3     O41     1.373   .     S
C4     C8      1.411   .     A
C4     O43     1.371   .     S
C4     N30     1.375   .     A
C5     N29     1.375   .     A
C5     C9      1.411   .     A
C5     O45     1.373   .     S
C6     C10     1.411   .     A
C6     N30     1.375   .     A
C6     O47     1.371   .     S
C7     O69     1.382   .     S
C7     C13     1.422   .     A
C8     O71     1.382   .     S
C8     C14     1.422   .     A
C9     O73     1.382   .     S
C9     C13     1.422   .     A
C10    O75     1.382   .     S
C10    C14     1.422   .     A
C11    O38     1.281   .     A
C11    O35     1.282   .     A
C11    C15     1.365   .     S
C12    O36     1.281   .     A
C12    C16     1.365   .     S
C12    O37     1.282   .     A
C13    C166    1.525   1_545 S
C14    C165    1.525   .     S
C15    C624    1.165   1_554 S
C16    C319    1.165   .     S
C17    C21     1.390   .     A
C17    C27     1.412   .     A
C17    O49     1.386   .     S
C18    O51     1.386   .     S
C18    C28     1.415   .     A
C18    C22     1.397   .     A
C19    O53     1.386   .     S
C19    C28     1.412   .     A
C19    C23     1.390   .     A
C20    C27     1.415   .     A
C20    O55     1.386   .     S
C20    C24     1.397   .     A
C21    C57     1.490   .     S
C21    C25     1.412   .     A
C22    C60     1.497   .     S
C22    C26     1.413   .     A
C23    C63     1.490   .     S
C23    C26     1.412   .     A
C24    C66     1.497   .     S
C24    C25     1.413   .     A
C27    C104    1.450   1_455 S
C28    C103    1.450   .     S
N29    Zn40    2.023   .     S
N30    Zn39    2.023   .     S
O31    Zn39    2.003   .     S
O32    Zn40    2.003   .     S
O33    Zn39    2.003   .     S
O34    Zn40    2.003   .     S
O35    Zn39    1.947   .     S
O36    Zn40    1.947   .     S
O37    Zn39    1.947   .     S
O38    Zn40    1.947   .     S
O41    H42     0.988   .     S
O43    H44     0.987   .     S
O45    H46     0.988   .     S
O47    H48     0.987   .     S
O49    H126    0.989   1_455 S
H50    O125    0.989   .     S
O51    H128    0.989   .     S
H52    O127    0.989   1_455 S
O53    H130    0.989   .     S
H54    O129    0.989   1_455 S
O55    H132    0.989   1_455 S
H56    O131    0.989   .     S
C57    H58     1.085   .     S
C57    O59     1.220   .     D
C60    O62     1.221   .     D
C60    H61     1.084   .     S
C63    O65     1.220   .     D
C63    H64     1.085   .     S
C66    H67     1.084   .     S
C66    O68     1.221   .     D
O69    H70     0.989   .     S
O71    H72     0.989   .     S
O73    H74     0.989   .     S
O75    H76     0.989   .     S
C77    O110    1.290   .     A
C77    O107    1.292   .     A
C77    C101    1.439   .     S
C78    C102    1.439   .     S
C78    O108    1.290   .     A
C78    O109    1.292   .     A
C79    C83     1.411   .     A
C79    N105    1.375   .     A
C79    O117    1.373   .     S
C80    C84     1.411   .     A
C80    O119    1.371   .     S
C80    N106    1.375   .     A
C81    N105    1.375   .     A
C81    C85     1.411   .     A
C81    O121    1.373   .     S
C82    C86     1.411   .     A
C82    N106    1.375   .     A
C82    O123    1.371   .     S
C83    O145    1.382   .     S
C83    C89     1.422   .     A
C84    O147    1.382   .     S
C84    C90     1.422   .     A
C85    O149    1.382   .     S
C85    C89     1.422   .     A
C86    O151    1.382   .     S
C86    C90     1.422   .     A
C87    O114    1.281   .     A
C87    O111    1.282   .     A
C87    C91     1.365   .     S
C88    O112    1.281   .     A
C88    C92     1.365   .     S
C88    O113    1.282   .     A
C89    C242    1.525   1_545 S
C90    C241    1.525   .     S
C91    C700    1.165   1_554 S
C92    C395    1.165   .     S
C93    C97     1.390   .     A
C93    C103    1.412   .     A
C93    O125    1.386   .     S
C94    O127    1.386   .     S
C94    C104    1.415   .     A
C94    C98     1.397   .     A
C95    O129    1.386   .     S
C95    C104    1.412   .     A
C95    C99     1.390   .     A
C96    C103    1.415   .     A
C96    O131    1.386   .     S
C96    C100    1.397   .     A
C97    C133    1.490   .     S
C97    C101    1.412   .     A
C98    C136    1.497   .     S
C98    C102    1.413   .     A
C99    C139    1.490   .     S
C99    C102    1.412   .     A
C100   C142    1.497   .     S
C100   C101    1.413   .     A
C104   C27     1.450   1_655 S
N105   Zn116   2.023   .     S
N106   Zn115   2.023   .     S
O107   Zn115   2.003   .     S
O108   Zn116   2.003   .     S
O109   Zn115   2.003   .     S
O110   Zn116   2.003   .     S
O111   Zn115   1.947   .     S
O112   Zn116   1.947   .     S
O113   Zn115   1.947   .     S
O114   Zn116   1.947   .     S
O117   H118    0.988   .     S
O119   H120    0.987   .     S
O121   H122    0.988   .     S
O123   H124    0.987   .     S
H126   O49     0.989   1_655 S
O127   H52     0.989   1_655 S
O129   H54     0.989   1_655 S
H132   O55     0.989   1_655 S
C133   H134    1.085   .     S
C133   O135    1.220   .     D
C136   O138    1.221   .     D
C136   H137    1.084   .     S
C139   O141    1.220   .     D
C139   H140    1.085   .     S
C142   H143    1.084   .     S
C142   O144    1.221   .     D
O145   H146    0.989   .     S
O147   H148    0.989   .     S
O149   H150    0.989   .     S
O151   H152    0.989   .     S
C153   O186    1.290   .     A
C153   O183    1.292   .     A
C153   C177    1.439   .     S
C154   C178    1.439   .     S
C154   O184    1.290   .     A
C154   O185    1.292   .     A
C155   C159    1.411   .     A
C155   N181    1.375   .     A
C155   O193    1.373   .     S
C156   C160    1.411   .     A
C156   O195    1.371   .     S
C156   N182    1.375   .     A
C157   N181    1.375   .     A
C157   C161    1.411   .     A
C157   O197    1.373   .     S
C158   C162    1.411   .     A
C158   N182    1.375   .     A
C158   O199    1.371   .     S
C159   O221    1.382   .     S
C159   C165    1.422   .     A
C160   O223    1.382   .     S
C160   C166    1.422   .     A
C161   O225    1.382   .     S
C161   C165    1.422   .     A
C162   O227    1.382   .     S
C162   C166    1.422   .     A
C163   O190    1.281   .     A
C163   O187    1.282   .     A
C163   C167    1.365   .     S
C164   O188    1.281   .     A
C164   C168    1.365   .     S
C164   O189    1.282   .     A
C166   C13     1.525   1_565 S
C167   C776    1.165   1_554 S
C168   C471    1.165   .     S
C169   C173    1.390   .     A
C169   C179    1.412   .     A
C169   O201    1.386   .     S
C170   O203    1.386   .     S
C170   C180    1.415   .     A
C170   C174    1.397   .     A
C171   O205    1.386   .     S
C171   C180    1.412   .     A
C171   C175    1.390   .     A
C172   C179    1.415   .     A
C172   O207    1.386   .     S
C172   C176    1.397   .     A
C173   C209    1.490   .     S
C173   C177    1.412   .     A
C174   C212    1.497   .     S
C174   C178    1.413   .     A
C175   C215    1.490   .     S
C175   C178    1.412   .     A
C176   C218    1.497   .     S
C176   C177    1.413   .     A
C179   C256    1.450   1_455 S
C180   C255    1.450   .     S
N181   Zn192   2.023   .     S
N182   Zn191   2.023   .     S
O183   Zn191   2.003   .     S
O184   Zn192   2.003   .     S
O185   Zn191   2.003   .     S
O186   Zn192   2.003   .     S
O187   Zn191   1.947   .     S
O188   Zn192   1.947   .     S
O189   Zn191   1.947   .     S
O190   Zn192   1.947   .     S
O193   H194    0.988   .     S
O195   H196    0.987   .     S
O197   H198    0.988   .     S
O199   H200    0.987   .     S
O201   H278    0.989   1_455 S
H202   O277    0.989   .     S
O203   H280    0.989   .     S
H204   O279    0.989   1_455 S
O205   H282    0.989   .     S
H206   O281    0.989   1_455 S
O207   H284    0.989   1_455 S
H208   O283    0.989   .     S
C209   H210    1.085   .     S
C209   O211    1.220   .     D
C212   O214    1.221   .     D
C212   H213    1.084   .     S
C215   O217    1.220   .     D
C215   H216    1.085   .     S
C218   H219    1.084   .     S
C218   O220    1.221   .     D
O221   H222    0.989   .     S
O223   H224    0.989   .     S
O225   H226    0.989   .     S
O227   H228    0.989   .     S
C229   O262    1.290   .     A
C229   O259    1.292   .     A
C229   C253    1.439   .     S
C230   C254    1.439   .     S
C230   O260    1.290   .     A
C230   O261    1.292   .     A
C231   C235    1.411   .     A
C231   N257    1.375   .     A
C231   O269    1.373   .     S
C232   C236    1.411   .     A
C232   O271    1.371   .     S
C232   N258    1.375   .     A
C233   N257    1.375   .     A
C233   C237    1.411   .     A
C233   O273    1.373   .     S
C234   C238    1.411   .     A
C234   N258    1.375   .     A
C234   O275    1.371   .     S
C235   O297    1.382   .     S
C235   C241    1.422   .     A
C236   O299    1.382   .     S
C236   C242    1.422   .     A
C237   O301    1.382   .     S
C237   C241    1.422   .     A
C238   O303    1.382   .     S
C238   C242    1.422   .     A
C239   O266    1.281   .     A
C239   O263    1.282   .     A
C239   C243    1.365   .     S
C240   O264    1.281   .     A
C240   C244    1.365   .     S
C240   O265    1.282   .     A
C242   C89     1.525   1_565 S
C243   C852    1.165   1_554 S
C244   C547    1.165   .     S
C245   C249    1.390   .     A
C245   C255    1.412   .     A
C245   O277    1.386   .     S
C246   O279    1.386   .     S
C246   C256    1.415   .     A
C246   C250    1.397   .     A
C247   O281    1.386   .     S
C247   C256    1.412   .     A
C247   C251    1.390   .     A
C248   C255    1.415   .     A
C248   O283    1.386   .     S
C248   C252    1.397   .     A
C249   C285    1.490   .     S
C249   C253    1.412   .     A
C250   C288    1.497   .     S
C250   C254    1.413   .     A
C251   C291    1.490   .     S
C251   C254    1.412   .     A
C252   C294    1.497   .     S
C252   C253    1.413   .     A
C256   C179    1.450   1_655 S
N257   Zn268   2.023   .     S
N258   Zn267   2.023   .     S
O259   Zn267   2.003   .     S
O260   Zn268   2.003   .     S
O261   Zn267   2.003   .     S
O262   Zn268   2.003   .     S
O263   Zn267   1.947   .     S
O264   Zn268   1.947   .     S
O265   Zn267   1.947   .     S
O266   Zn268   1.947   .     S
O269   H270    0.988   .     S
O271   H272    0.987   .     S
O273   H274    0.988   .     S
O275   H276    0.987   .     S
H278   O201    0.989   1_655 S
O279   H204    0.989   1_655 S
O281   H206    0.989   1_655 S
H284   O207    0.989   1_655 S
C285   H286    1.085   .     S
C285   O287    1.220   .     D
C288   O290    1.221   .     D
C288   H289    1.084   .     S
C291   O293    1.220   .     D
C291   H292    1.085   .     S
C294   H295    1.084   .     S
C294   O296    1.221   .     D
O297   H298    0.989   .     S
O299   H300    0.989   .     S
O301   H302    0.989   .     S
O303   H304    0.989   .     S
C305   O338    1.290   .     A
C305   O335    1.292   .     A
C305   C329    1.439   .     S
C306   C330    1.439   .     S
C306   O336    1.290   .     A
C306   O337    1.292   .     A
C307   C311    1.411   .     A
C307   N333    1.375   .     A
C307   O345    1.373   .     S
C308   C312    1.411   .     A
C308   O347    1.371   .     S
C308   N334    1.375   .     A
C309   N333    1.375   .     A
C309   C313    1.411   .     A
C309   O349    1.373   .     S
C310   C314    1.411   .     A
C310   N334    1.375   .     A
C310   O351    1.371   .     S
C311   O373    1.382   .     S
C311   C317    1.422   .     A
C312   O375    1.382   .     S
C312   C318    1.422   .     A
C313   O377    1.382   .     S
C313   C317    1.422   .     A
C314   O379    1.382   .     S
C314   C318    1.422   .     A
C315   O342    1.281   .     A
C315   O339    1.282   .     A
C315   C319    1.365   .     S
C316   O340    1.281   .     A
C316   C320    1.365   .     S
C316   O341    1.282   .     A
C317   C470    1.525   1_545 S
C318   C469    1.525   .     S
C320   C623    1.165   .     S
C321   C325    1.390   .     A
C321   C331    1.412   .     A
C321   O353    1.386   .     S
C322   O355    1.386   .     S
C322   C332    1.415   .     A
C322   C326    1.397   .     A
C323   O357    1.386   .     S
C323   C332    1.412   .     A
C323   C327    1.390   .     A
C324   C331    1.415   .     A
C324   O359    1.386   .     S
C324   C328    1.397   .     A
C325   C361    1.490   .     S
C325   C329    1.412   .     A
C326   C364    1.497   .     S
C326   C330    1.413   .     A
C327   C367    1.490   .     S
C327   C330    1.412   .     A
C328   C370    1.497   .     S
C328   C329    1.413   .     A
C331   C408    1.450   1_455 S
C332   C407    1.450   .     S
N333   Zn344   2.023   .     S
N334   Zn343   2.023   .     S
O335   Zn343   2.003   .     S
O336   Zn344   2.003   .     S
O337   Zn343   2.003   .     S
O338   Zn344   2.003   .     S
O339   Zn343   1.947   .     S
O340   Zn344   1.947   .     S
O341   Zn343   1.947   .     S
O342   Zn344   1.947   .     S
O345   H346    0.988   .     S
O347   H348    0.987   .     S
O349   H350    0.988   .     S
O351   H352    0.987   .     S
O353   H430    0.989   1_455 S
H354   O429    0.989   .     S
O355   H432    0.989   .     S
H356   O431    0.989   1_455 S
O357   H434    0.989   .     S
H358   O433    0.989   1_455 S
O359   H436    0.989   1_455 S
H360   O435    0.989   .     S
C361   H362    1.085   .     S
C361   O363    1.220   .     D
C364   O366    1.221   .     D
C364   H365    1.084   .     S
C367   O369    1.220   .     D
C367   H368    1.085   .     S
C370   H371    1.084   .     S
C370   O372    1.221   .     D
O373   H374    0.989   .     S
O375   H376    0.989   .     S
O377   H378    0.989   .     S
O379   H380    0.989   .     S
C381   O414    1.290   .     A
C381   O411    1.292   .     A
C381   C405    1.439   .     S
C382   C406    1.439   .     S
C382   O412    1.290   .     A
C382   O413    1.292   .     A
C383   C387    1.411   .     A
C383   N409    1.375   .     A
C383   O421    1.373   .     S
C384   C388    1.411   .     A
C384   O423    1.371   .     S
C384   N410    1.375   .     A
C385   N409    1.375   .     A
C385   C389    1.411   .     A
C385   O425    1.373   .     S
C386   C390    1.411   .     A
C386   N410    1.375   .     A
C386   O427    1.371   .     S
C387   O449    1.382   .     S
C387   C393    1.422   .     A
C388   O451    1.382   .     S
C388   C394    1.422   .     A
C389   O453    1.382   .     S
C389   C393    1.422   .     A
C390   O455    1.382   .     S
C390   C394    1.422   .     A
C391   O418    1.281   .     A
C391   O415    1.282   .     A
C391   C395    1.365   .     S
C392   O416    1.281   .     A
C392   C396    1.365   .     S
C392   O417    1.282   .     A
C393   C546    1.525   1_545 S
C394   C545    1.525   .     S
C396   C699    1.165   .     S
C397   C401    1.390   .     A
C397   C407    1.412   .     A
C397   O429    1.386   .     S
C398   O431    1.386   .     S
C398   C408    1.415   .     A
C398   C402    1.397   .     A
C399   O433    1.386   .     S
C399   C408    1.412   .     A
C399   C403    1.390   .     A
C400   C407    1.415   .     A
C400   O435    1.386   .     S
C400   C404    1.397   .     A
C401   C437    1.490   .     S
C401   C405    1.412   .     A
C402   C440    1.497   .     S
C402   C406    1.413   .     A
C403   C443    1.490   .     S
C403   C406    1.412   .     A
C404   C446    1.497   .     S
C404   C405    1.413   .     A
C408   C331    1.450   1_655 S
N409   Zn420   2.023   .     S
N410   Zn419   2.023   .     S
O411   Zn419   2.003   .     S
O412   Zn420   2.003   .     S
O413   Zn419   2.003   .     S
O414   Zn420   2.003   .     S
O415   Zn419   1.947   .     S
O416   Zn420   1.947   .     S
O417   Zn419   1.947   .     S
O418   Zn420   1.947   .     S
O421   H422    0.988   .     S
O423   H424    0.987   .     S
O425   H426    0.988   .     S
O427   H428    0.987   .     S
H430   O353    0.989   1_655 S
O431   H356    0.989   1_655 S
O433   H358    0.989   1_655 S
H436   O359    0.989   1_655 S
C437   H438    1.085   .     S
C437   O439    1.220   .     D
C440   O442    1.221   .     D
C440   H441    1.084   .     S
C443   O445    1.220   .     D
C443   H444    1.085   .     S
C446   H447    1.084   .     S
C446   O448    1.221   .     D
O449   H450    0.989   .     S
O451   H452    0.989   .     S
O453   H454    0.989   .     S
O455   H456    0.989   .     S
C457   O490    1.290   .     A
C457   O487    1.292   .     A
C457   C481    1.439   .     S
C458   C482    1.439   .     S
C458   O488    1.290   .     A
C458   O489    1.292   .     A
C459   C463    1.411   .     A
C459   N485    1.375   .     A
C459   O497    1.373   .     S
C460   C464    1.411   .     A
C460   O499    1.371   .     S
C460   N486    1.375   .     A
C461   N485    1.375   .     A
C461   C465    1.411   .     A
C461   O501    1.373   .     S
C462   C466    1.411   .     A
C462   N486    1.375   .     A
C462   O503    1.371   .     S
C463   O525    1.382   .     S
C463   C469    1.422   .     A
C464   O527    1.382   .     S
C464   C470    1.422   .     A
C465   O529    1.382   .     S
C465   C469    1.422   .     A
C466   O531    1.382   .     S
C466   C470    1.422   .     A
C467   O494    1.281   .     A
C467   O491    1.282   .     A
C467   C471    1.365   .     S
C468   O492    1.281   .     A
C468   C472    1.365   .     S
C468   O493    1.282   .     A
C470   C317    1.525   1_565 S
C472   C775    1.165   .     S
C473   C477    1.390   .     A
C473   C483    1.412   .     A
C473   O505    1.386   .     S
C474   O507    1.386   .     S
C474   C484    1.415   .     A
C474   C478    1.397   .     A
C475   O509    1.386   .     S
C475   C484    1.412   .     A
C475   C479    1.390   .     A
C476   C483    1.415   .     A
C476   O511    1.386   .     S
C476   C480    1.397   .     A
C477   C513    1.490   .     S
C477   C481    1.412   .     A
C478   C516    1.497   .     S
C478   C482    1.413   .     A
C479   C519    1.490   .     S
C479   C482    1.412   .     A
C480   C522    1.497   .     S
C480   C481    1.413   .     A
C483   C560    1.450   1_455 S
C484   C559    1.450   .     S
N485   Zn496   2.023   .     S
N486   Zn495   2.023   .     S
O487   Zn495   2.003   .     S
O488   Zn496   2.003   .     S
O489   Zn495   2.003   .     S
O490   Zn496   2.003   .     S
O491   Zn495   1.947   .     S
O492   Zn496   1.947   .     S
O493   Zn495   1.947   .     S
O494   Zn496   1.947   .     S
O497   H498    0.988   .     S
O499   H500    0.987   .     S
O501   H502    0.988   .     S
O503   H504    0.987   .     S
O505   H582    0.989   1_455 S
H506   O581    0.989   .     S
O507   H584    0.989   .     S
H508   O583    0.989   1_455 S
O509   H586    0.989   .     S
H510   O585    0.989   1_455 S
O511   H588    0.989   1_455 S
H512   O587    0.989   .     S
C513   H514    1.085   .     S
C513   O515    1.220   .     D
C516   O518    1.221   .     D
C516   H517    1.084   .     S
C519   O521    1.220   .     D
C519   H520    1.085   .     S
C522   H523    1.084   .     S
C522   O524    1.221   .     D
O525   H526    0.989   .     S
O527   H528    0.989   .     S
O529   H530    0.989   .     S
O531   H532    0.989   .     S
C533   O566    1.290   .     A
C533   O563    1.292   .     A
C533   C557    1.439   .     S
C534   C558    1.439   .     S
C534   O564    1.290   .     A
C534   O565    1.292   .     A
C535   C539    1.411   .     A
C535   N561    1.375   .     A
C535   O573    1.373   .     S
C536   C540    1.411   .     A
C536   O575    1.371   .     S
C536   N562    1.375   .     A
C537   N561    1.375   .     A
C537   C541    1.411   .     A
C537   O577    1.373   .     S
C538   C542    1.411   .     A
C538   N562    1.375   .     A
C538   O579    1.371   .     S
C539   O601    1.382   .     S
C539   C545    1.422   .     A
C540   O603    1.382   .     S
C540   C546    1.422   .     A
C541   O605    1.382   .     S
C541   C545    1.422   .     A
C542   O607    1.382   .     S
C542   C546    1.422   .     A
C543   O570    1.281   .     A
C543   O567    1.282   .     A
C543   C547    1.365   .     S
C544   O568    1.281   .     A
C544   C548    1.365   .     S
C544   O569    1.282   .     A
C546   C393    1.525   1_565 S
C548   C851    1.165   .     S
C549   C553    1.390   .     A
C549   C559    1.412   .     A
C549   O581    1.386   .     S
C550   O583    1.386   .     S
C550   C560    1.415   .     A
C550   C554    1.397   .     A
C551   O585    1.386   .     S
C551   C560    1.412   .     A
C551   C555    1.390   .     A
C552   C559    1.415   .     A
C552   O587    1.386   .     S
C552   C556    1.397   .     A
C553   C589    1.490   .     S
C553   C557    1.412   .     A
C554   C592    1.497   .     S
C554   C558    1.413   .     A
C555   C595    1.490   .     S
C555   C558    1.412   .     A
C556   C598    1.497   .     S
C556   C557    1.413   .     A
C560   C483    1.450   1_655 S
N561   Zn572   2.023   .     S
N562   Zn571   2.023   .     S
O563   Zn571   2.003   .     S
O564   Zn572   2.003   .     S
O565   Zn571   2.003   .     S
O566   Zn572   2.003   .     S
O567   Zn571   1.947   .     S
O568   Zn572   1.947   .     S
O569   Zn571   1.947   .     S
O570   Zn572   1.947   .     S
O573   H574    0.988   .     S
O575   H576    0.987   .     S
O577   H578    0.988   .     S
O579   H580    0.987   .     S
H582   O505    0.989   1_655 S
O583   H508    0.989   1_655 S
O585   H510    0.989   1_655 S
H588   O511    0.989   1_655 S
C589   H590    1.085   .     S
C589   O591    1.220   .     D
C592   O594    1.221   .     D
C592   H593    1.084   .     S
C595   O597    1.220   .     D
C595   H596    1.085   .     S
C598   H599    1.084   .     S
C598   O600    1.221   .     D
O601   H602    0.989   .     S
O603   H604    0.989   .     S
O605   H606    0.989   .     S
O607   H608    0.989   .     S
C609   O642    1.290   .     A
C609   O639    1.292   .     A
C609   C633    1.439   .     S
C610   C634    1.439   .     S
C610   O640    1.290   .     A
C610   O641    1.292   .     A
C611   C615    1.411   .     A
C611   N637    1.375   .     A
C611   O649    1.373   .     S
C612   C616    1.411   .     A
C612   O651    1.371   .     S
C612   N638    1.375   .     A
C613   N637    1.375   .     A
C613   C617    1.411   .     A
C613   O653    1.373   .     S
C614   C618    1.411   .     A
C614   N638    1.375   .     A
C614   O655    1.371   .     S
C615   O677    1.382   .     S
C615   C621    1.422   .     A
C616   O679    1.382   .     S
C616   C622    1.422   .     A
C617   O681    1.382   .     S
C617   C621    1.422   .     A
C618   O683    1.382   .     S
C618   C622    1.422   .     A
C619   O646    1.281   .     A
C619   O643    1.282   .     A
C619   C623    1.365   .     S
C620   O644    1.281   .     A
C620   C624    1.365   .     S
C620   O645    1.282   .     A
C621   C774    1.525   1_545 S
C622   C773    1.525   .     S
C624   C15     1.165   1_556 S
C625   C629    1.390   .     A
C625   C635    1.412   .     A
C625   O657    1.386   .     S
C626   O659    1.386   .     S
C626   C636    1.415   .     A
C626   C630    1.397   .     A
C627   O661    1.386   .     S
C627   C636    1.412   .     A
C627   C631    1.390   .     A
C628   C635    1.415   .     A
C628   O663    1.386   .     S
C628   C632    1.397   .     A
C629   C665    1.490   .     S
C629   C633    1.412   .     A
C630   C668    1.497   .     S
C630   C634    1.413   .     A
C631   C671    1.490   .     S
C631   C634    1.412   .     A
C632   C674    1.497   .     S
C632   C633    1.413   .     A
C635   C712    1.450   1_455 S
C636   C711    1.450   .     S
N637   Zn648   2.023   .     S
N638   Zn647   2.023   .     S
O639   Zn647   2.003   .     S
O640   Zn648   2.003   .     S
O641   Zn647   2.003   .     S
O642   Zn648   2.003   .     S
O643   Zn647   1.947   .     S
O644   Zn648   1.947   .     S
O645   Zn647   1.947   .     S
O646   Zn648   1.947   .     S
O649   H650    0.988   .     S
O651   H652    0.987   .     S
O653   H654    0.988   .     S
O655   H656    0.987   .     S
O657   H734    0.989   1_455 S
H658   O733    0.989   .     S
O659   H736    0.989   .     S
H660   O735    0.989   1_455 S
O661   H738    0.989   .     S
H662   O737    0.989   1_455 S
O663   H740    0.989   1_455 S
H664   O739    0.989   .     S
C665   H666    1.085   .     S
C665   O667    1.220   .     D
C668   O670    1.221   .     D
C668   H669    1.084   .     S
C671   O673    1.220   .     D
C671   H672    1.085   .     S
C674   H675    1.084   .     S
C674   O676    1.221   .     D
O677   H678    0.989   .     S
O679   H680    0.989   .     S
O681   H682    0.989   .     S
O683   H684    0.989   .     S
C685   O718    1.290   .     A
C685   O715    1.292   .     A
C685   C709    1.439   .     S
C686   C710    1.439   .     S
C686   O716    1.290   .     A
C686   O717    1.292   .     A
C687   C691    1.411   .     A
C687   N713    1.375   .     A
C687   O725    1.373   .     S
C688   C692    1.411   .     A
C688   O727    1.371   .     S
C688   N714    1.375   .     A
C689   N713    1.375   .     A
C689   C693    1.411   .     A
C689   O729    1.373   .     S
C690   C694    1.411   .     A
C690   N714    1.375   .     A
C690   O731    1.371   .     S
C691   O753    1.382   .     S
C691   C697    1.422   .     A
C692   O755    1.382   .     S
C692   C698    1.422   .     A
C693   O757    1.382   .     S
C693   C697    1.422   .     A
C694   O759    1.382   .     S
C694   C698    1.422   .     A
C695   O722    1.281   .     A
C695   O719    1.282   .     A
C695   C699    1.365   .     S
C696   O720    1.281   .     A
C696   C700    1.365   .     S
C696   O721    1.282   .     A
C697   C850    1.525   1_545 S
C698   C849    1.525   .     S
C700   C91     1.165   1_556 S
C701   C705    1.390   .     A
C701   C711    1.412   .     A
C701   O733    1.386   .     S
C702   O735    1.386   .     S
C702   C712    1.415   .     A
C702   C706    1.397   .     A
C703   O737    1.386   .     S
C703   C712    1.412   .     A
C703   C707    1.390   .     A
C704   C711    1.415   .     A
C704   O739    1.386   .     S
C704   C708    1.397   .     A
C705   C741    1.490   .     S
C705   C709    1.412   .     A
C706   C744    1.497   .     S
C706   C710    1.413   .     A
C707   C747    1.490   .     S
C707   C710    1.412   .     A
C708   C750    1.497   .     S
C708   C709    1.413   .     A
C712   C635    1.450   1_655 S
N713   Zn724   2.023   .     S
N714   Zn723   2.023   .     S
O715   Zn723   2.003   .     S
O716   Zn724   2.003   .     S
O717   Zn723   2.003   .     S
O718   Zn724   2.003   .     S
O719   Zn723   1.947   .     S
O720   Zn724   1.947   .     S
O721   Zn723   1.947   .     S
O722   Zn724   1.947   .     S
O725   H726    0.988   .     S
O727   H728    0.987   .     S
O729   H730    0.988   .     S
O731   H732    0.987   .     S
H734   O657    0.989   1_655 S
O735   H660    0.989   1_655 S
O737   H662    0.989   1_655 S
H740   O663    0.989   1_655 S
C741   H742    1.085   .     S
C741   O743    1.220   .     D
C744   O746    1.221   .     D
C744   H745    1.084   .     S
C747   O749    1.220   .     D
C747   H748    1.085   .     S
C750   H751    1.084   .     S
C750   O752    1.221   .     D
O753   H754    0.989   .     S
O755   H756    0.989   .     S
O757   H758    0.989   .     S
O759   H760    0.989   .     S
C761   O794    1.290   .     A
C761   O791    1.292   .     A
C761   C785    1.439   .     S
C762   C786    1.439   .     S
C762   O792    1.290   .     A
C762   O793    1.292   .     A
C763   C767    1.411   .     A
C763   N789    1.375   .     A
C763   O801    1.373   .     S
C764   C768    1.411   .     A
C764   O803    1.371   .     S
C764   N790    1.375   .     A
C765   N789    1.375   .     A
C765   C769    1.411   .     A
C765   O805    1.373   .     S
C766   C770    1.411   .     A
C766   N790    1.375   .     A
C766   O807    1.371   .     S
C767   O829    1.382   .     S
C767   C773    1.422   .     A
C768   O831    1.382   .     S
C768   C774    1.422   .     A
C769   O833    1.382   .     S
C769   C773    1.422   .     A
C770   O835    1.382   .     S
C770   C774    1.422   .     A
C771   O798    1.281   .     A
C771   O795    1.282   .     A
C771   C775    1.365   .     S
C772   O796    1.281   .     A
C772   C776    1.365   .     S
C772   O797    1.282   .     A
C774   C621    1.525   1_565 S
C776   C167    1.165   1_556 S
C777   C781    1.390   .     A
C777   C787    1.412   .     A
C777   O809    1.386   .     S
C778   O811    1.386   .     S
C778   C788    1.415   .     A
C778   C782    1.397   .     A
C779   O813    1.386   .     S
C779   C788    1.412   .     A
C779   C783    1.390   .     A
C780   C787    1.415   .     A
C780   O815    1.386   .     S
C780   C784    1.397   .     A
C781   C817    1.490   .     S
C781   C785    1.412   .     A
C782   C820    1.497   .     S
C782   C786    1.413   .     A
C783   C823    1.490   .     S
C783   C786    1.412   .     A
C784   C826    1.497   .     S
C784   C785    1.413   .     A
C787   C864    1.450   1_455 S
C788   C863    1.450   .     S
N789   Zn800   2.023   .     S
N790   Zn799   2.023   .     S
O791   Zn799   2.003   .     S
O792   Zn800   2.003   .     S
O793   Zn799   2.003   .     S
O794   Zn800   2.003   .     S
O795   Zn799   1.947   .     S
O796   Zn800   1.947   .     S
O797   Zn799   1.947   .     S
O798   Zn800   1.947   .     S
O801   H802    0.988   .     S
O803   H804    0.987   .     S
O805   H806    0.988   .     S
O807   H808    0.987   .     S
O809   H886    0.989   1_455 S
H810   O885    0.989   .     S
O811   H888    0.989   .     S
H812   O887    0.989   1_455 S
O813   H890    0.989   .     S
H814   O889    0.989   1_455 S
O815   H892    0.989   1_455 S
H816   O891    0.989   .     S
C817   H818    1.085   .     S
C817   O819    1.220   .     D
C820   O822    1.221   .     D
C820   H821    1.084   .     S
C823   O825    1.220   .     D
C823   H824    1.085   .     S
C826   H827    1.084   .     S
C826   O828    1.221   .     D
O829   H830    0.989   .     S
O831   H832    0.989   .     S
O833   H834    0.989   .     S
O835   H836    0.989   .     S
C837   O870    1.290   .     A
C837   O867    1.292   .     A
C837   C861    1.439   .     S
C838   C862    1.439   .     S
C838   O868    1.290   .     A
C838   O869    1.292   .     A
C839   C843    1.411   .     A
C839   N865    1.375   .     A
C839   O877    1.373   .     S
C840   C844    1.411   .     A
C840   O879    1.371   .     S
C840   N866    1.375   .     A
C841   N865    1.375   .     A
C841   C845    1.411   .     A
C841   O881    1.373   .     S
C842   C846    1.411   .     A
C842   N866    1.375   .     A
C842   O883    1.371   .     S
C843   O905    1.382   .     S
C843   C849    1.422   .     A
C844   O907    1.382   .     S
C844   C850    1.422   .     A
C845   O909    1.382   .     S
C845   C849    1.422   .     A
C846   O911    1.382   .     S
C846   C850    1.422   .     A
C847   O874    1.281   .     A
C847   O871    1.282   .     A
C847   C851    1.365   .     S
C848   O872    1.281   .     A
C848   C852    1.365   .     S
C848   O873    1.282   .     A
C850   C697    1.525   1_565 S
C852   C243    1.165   1_556 S
C853   C857    1.390   .     A
C853   C863    1.412   .     A
C853   O885    1.386   .     S
C854   O887    1.386   .     S
C854   C864    1.415   .     A
C854   C858    1.397   .     A
C855   O889    1.386   .     S
C855   C864    1.412   .     A
C855   C859    1.390   .     A
C856   C863    1.415   .     A
C856   O891    1.386   .     S
C856   C860    1.397   .     A
C857   C893    1.490   .     S
C857   C861    1.412   .     A
C858   C896    1.497   .     S
C858   C862    1.413   .     A
C859   C899    1.490   .     S
C859   C862    1.412   .     A
C860   C902    1.497   .     S
C860   C861    1.413   .     A
C864   C787    1.450   1_655 S
N865   Zn876   2.023   .     S
N866   Zn875   2.023   .     S
O867   Zn875   2.003   .     S
O868   Zn876   2.003   .     S
O869   Zn875   2.003   .     S
O870   Zn876   2.003   .     S
O871   Zn875   1.947   .     S
O872   Zn876   1.947   .     S
O873   Zn875   1.947   .     S
O874   Zn876   1.947   .     S
O877   H878    0.988   .     S
O879   H880    0.987   .     S
O881   H882    0.988   .     S
O883   H884    0.987   .     S
H886   O809    0.989   1_655 S
O887   H812    0.989   1_655 S
O889   H814    0.989   1_655 S
H892   O815    0.989   1_655 S
C893   H894    1.085   .     S
C893   O895    1.220   .     D
C896   O898    1.221   .     D
C896   H897    1.084   .     S
C899   O901    1.220   .     D
C899   H900    1.085   .     S
C902   H903    1.084   .     S
C902   O904    1.221   .     D
O905   H906    0.989   .     S
O907   H908    0.989   .     S
O909   H910    0.989   .     S
O911   H912    0.989   .     S
