data_str_m2_o1_o17_pcu_sym.6
_audit_creation_date              2020-01-03
_audit_creation_method            'Materials Studio'
_symmetry_space_group_name_H-M    'P1'
_symmetry_Int_Tables_number       1
_symmetry_cell_setting            triclinic
loop_
_symmetry_equiv_pos_as_xyz
  x,y,z
_cell_length_a                    32.5021
_cell_length_b                    28.4930
_cell_length_c                    30.2525
_cell_angle_alpha                 91.1402
_cell_angle_beta                  90.1584
_cell_angle_gamma                 89.9823
loop_
_atom_site_label
_atom_site_type_symbol
_atom_site_fract_x
_atom_site_fract_y
_atom_site_fract_z
_atom_site_U_iso_or_equiv
_atom_site_adp_type
_atom_site_occupancy
C1     C     0.08733   0.16667   0.24994   0.00000  Uiso   1.00
C2     C     0.04273   0.16667   0.24992   0.00000  Uiso   1.00
C3     C     0.13884   0.02431   0.22513   0.00000  Uiso   1.00
C4     C     0.19446   0.30903   0.27491   0.00000  Uiso   1.00
C5     C     0.19444   0.02534   0.27494   0.00000  Uiso   1.00
C6     C     0.13888   0.30799   0.22507   0.00000  Uiso   1.00
C7     C     0.16583   0.16606   0.16430   0.00000  Uiso   1.00
C8     C     0.16800   0.16725   0.33578   0.00000  Uiso   1.00
C9     C     0.18658   0.20741   0.40884   0.00000  Uiso   1.00
C10    C     0.15077   0.12569   0.09120   0.00000  Uiso   1.00
C11    C     0.17083   0.16824   0.38435   0.00000  Uiso   1.00
C12    C     0.24600   0.16666   0.25004   0.00000  Uiso   1.00
C13    C     0.16687   0.16434   0.11590   0.00000  Uiso   1.00
C14    C     0.15824   0.12815   0.40626   0.00000  Uiso   1.00
C15    C     0.18512   0.20173   0.09439   0.00000  Uiso   1.00
C16    C     0.15918   0.12649   0.45197   0.00000  Uiso   1.00
C17    C     0.18737   0.20198   0.04862   0.00000  Uiso   1.00
C18    C     0.17432   0.16495   0.47697   0.00000  Uiso   1.00
C19    C     0.17295   0.16326   0.02349   0.00000  Uiso   1.00
C20    C     0.19013   0.20521   0.45556   0.00000  Uiso   1.00
C21    C     0.15652   0.12332   0.04482   0.00000  Uiso   1.00
C22    C     0.14560   0.08606   0.47267   0.00000  Uiso   1.00
C23    C     0.14529   0.08323   0.01863   0.00000  Uiso   1.00
C24    C     0.20488   0.24041   0.02802   0.00000  Uiso   1.00
C25    C     0.13686   0.03639   0.03707   0.00000  Uiso   1.00
C26    C     0.23117   0.28198   0.46433   0.00000  Uiso   1.00
C27    C     0.20748   0.24222   0.48209   0.00000  Uiso   1.00
C28    C     0.02129   0.12401   0.24935   0.00000  Uiso   1.00
C29    C     0.31204   0.20933   0.25061   0.00000  Uiso   1.00
C30    C     0.31206   0.12400   0.24943   0.00000  Uiso   1.00
C31    C     0.02127   0.20933   0.25053   0.00000  Uiso   1.00
C32    C     0.29060   0.16666   0.25005   0.00000  Uiso   1.00
Cu33   Cu    0.16667   0.21355   0.25000   0.00000  Uiso   1.00
Cu34   Cu    0.16667   0.11978   0.25000   0.00000  Uiso   1.00
H35    H     0.14645   0.09814   0.38755   0.00000  Uiso   1.00
H36    H     0.21677   0.29072   0.29476   0.00000  Uiso   1.00
H37    H     0.21666   0.04450   0.29495   0.00000  Uiso   1.00
H38    H     0.11666   0.28883   0.20507   0.00000  Uiso   1.00
H39    H     0.21979   0.24235   0.36290   0.00000  Uiso   1.00
H40    H     0.17134   0.26473   0.37296   0.00000  Uiso   1.00
H41    H     0.14218   0.07105   0.13267   0.00000  Uiso   1.00
H42    H     0.10207   0.10971   0.13049   0.00000  Uiso   1.00
H43    H     0.15504   0.31850   0.07786   0.00000  Uiso   1.00
H44    H     0.27910   0.30313   0.42750   0.00000  Uiso   1.00
H45    H     0.19746   0.23118   0.11348   0.00000  Uiso   1.00
H46    H     0.13625   0.05578   0.45274   0.00000  Uiso   1.00
H47    H     0.21763   0.26893   0.04804   0.00000  Uiso   1.00
H48    H     0.03732   0.09066   0.24883   0.00000  Uiso   1.00
H49    H     0.29601   0.24268   0.25113   0.00000  Uiso   1.00
H50    H     0.29606   0.09065   0.24898   0.00000  Uiso   1.00
H51    H     0.03727   0.24268   0.25098   0.00000  Uiso   1.00
H52    H     0.11648   0.04264   0.20533   0.00000  Uiso   1.00
N53    N     0.16667   0.28402   0.25000   0.00000  Uiso   1.00
N54    N     0.16667   0.04931   0.25000   0.00000  Uiso   1.00
N55    N     0.19757   0.24979   0.38695   0.00000  Uiso   1.00
N56    N     0.12460   0.09205   0.11198   0.00000  Uiso   1.00
O57    O     0.10655   0.20625   0.24999   0.00000  Uiso   1.00
O58    O     0.16398   0.01735   0.06787   0.00000  Uiso   1.00
O59    O     0.22207   0.32228   0.47501   0.00000  Uiso   1.00
O60    O     0.26514   0.27322   0.43713   0.00000  Uiso   1.00
O61    O     0.22679   0.12709   0.25000   0.00000  Uiso   1.00
O62    O     0.22679   0.20625   0.25000   0.00000  Uiso   1.00
O63    O     0.10655   0.12709   0.24999   0.00000  Uiso   1.00
O64    O     0.16666   0.20627   0.18513   0.00000  Uiso   1.00
O65    O     0.16668   0.12707   0.31487   0.00000  Uiso   1.00
O66    O     0.16668   0.20627   0.31487   0.00000  Uiso   1.00
O67    O     0.16666   0.12707   0.18513   0.00000  Uiso   1.00
O68    O     0.10726   0.01358   0.02386   0.00000  Uiso   1.00
C69    C     0.42067   0.16667   0.24994   0.00000  Uiso   1.00
C70    C     0.37606   0.16667   0.24992   0.00000  Uiso   1.00
C71    C     0.47217   0.02431   0.22513   0.00000  Uiso   1.00
C72    C     0.52780   0.30903   0.27491   0.00000  Uiso   1.00
C73    C     0.52778   0.02534   0.27494   0.00000  Uiso   1.00
C74    C     0.47221   0.30799   0.22507   0.00000  Uiso   1.00
C75    C     0.49917   0.16606   0.16430   0.00000  Uiso   1.00
C76    C     0.50133   0.16725   0.33578   0.00000  Uiso   1.00
C77    C     0.51991   0.20741   0.40884   0.00000  Uiso   1.00
C78    C     0.48411   0.12569   0.09120   0.00000  Uiso   1.00
C79    C     0.50416   0.16824   0.38435   0.00000  Uiso   1.00
C80    C     0.57933   0.16666   0.25004   0.00000  Uiso   1.00
C81    C     0.50020   0.16434   0.11590   0.00000  Uiso   1.00
C82    C     0.49157   0.12815   0.40626   0.00000  Uiso   1.00
C83    C     0.51846   0.20173   0.09439   0.00000  Uiso   1.00
C84    C     0.49252   0.12649   0.45197   0.00000  Uiso   1.00
C85    C     0.52070   0.20198   0.04862   0.00000  Uiso   1.00
C86    C     0.50765   0.16495   0.47697   0.00000  Uiso   1.00
C87    C     0.50628   0.16326   0.02349   0.00000  Uiso   1.00
C88    C     0.52346   0.20521   0.45556   0.00000  Uiso   1.00
C89    C     0.48985   0.12332   0.04482   0.00000  Uiso   1.00
C90    C     0.47893   0.08606   0.47267   0.00000  Uiso   1.00
C91    C     0.47862   0.08323   0.01863   0.00000  Uiso   1.00
C92    C     0.53821   0.24041   0.02802   0.00000  Uiso   1.00
C93    C     0.47019   0.03639   0.03707   0.00000  Uiso   1.00
C94    C     0.56451   0.28198   0.46433   0.00000  Uiso   1.00
C95    C     0.54081   0.24222   0.48209   0.00000  Uiso   1.00
C96    C     0.35463   0.12401   0.24935   0.00000  Uiso   1.00
C97    C     0.64537   0.20933   0.25061   0.00000  Uiso   1.00
C98    C     0.64540   0.12400   0.24943   0.00000  Uiso   1.00
C99    C     0.35460   0.20933   0.25053   0.00000  Uiso   1.00
C100   C     0.62394   0.16666   0.25005   0.00000  Uiso   1.00
Cu101  Cu    0.50000   0.21355   0.25000   0.00000  Uiso   1.00
Cu102  Cu    0.50000   0.11978   0.25000   0.00000  Uiso   1.00
H103   H     0.47978   0.09814   0.38755   0.00000  Uiso   1.00
H104   H     0.55011   0.29072   0.29476   0.00000  Uiso   1.00
H105   H     0.54999   0.04450   0.29495   0.00000  Uiso   1.00
H106   H     0.44999   0.28883   0.20507   0.00000  Uiso   1.00
H107   H     0.55313   0.24235   0.36290   0.00000  Uiso   1.00
H108   H     0.50467   0.26473   0.37296   0.00000  Uiso   1.00
H109   H     0.47552   0.07105   0.13267   0.00000  Uiso   1.00
H110   H     0.43541   0.10971   0.13049   0.00000  Uiso   1.00
H111   H     0.48837   0.31850   0.07786   0.00000  Uiso   1.00
H112   H     0.61243   0.30313   0.42750   0.00000  Uiso   1.00
H113   H     0.53080   0.23118   0.11348   0.00000  Uiso   1.00
H114   H     0.46958   0.05578   0.45274   0.00000  Uiso   1.00
H115   H     0.55097   0.26893   0.04804   0.00000  Uiso   1.00
H116   H     0.37065   0.09066   0.24883   0.00000  Uiso   1.00
H117   H     0.62935   0.24268   0.25113   0.00000  Uiso   1.00
H118   H     0.62939   0.09065   0.24898   0.00000  Uiso   1.00
H119   H     0.37061   0.24268   0.25098   0.00000  Uiso   1.00
H120   H     0.44981   0.04264   0.20533   0.00000  Uiso   1.00
N121   N     0.50000   0.28402   0.25000   0.00000  Uiso   1.00
N122   N     0.50000   0.04931   0.25000   0.00000  Uiso   1.00
N123   N     0.53090   0.24979   0.38695   0.00000  Uiso   1.00
N124   N     0.45794   0.09205   0.11198   0.00000  Uiso   1.00
O125   O     0.43988   0.20625   0.24999   0.00000  Uiso   1.00
O126   O     0.49731   0.01735   0.06787   0.00000  Uiso   1.00
O127   O     0.55540   0.32228   0.47501   0.00000  Uiso   1.00
O128   O     0.59848   0.27322   0.43713   0.00000  Uiso   1.00
O129   O     0.56012   0.12709   0.25000   0.00000  Uiso   1.00
O130   O     0.56012   0.20625   0.25000   0.00000  Uiso   1.00
O131   O     0.43988   0.12709   0.24999   0.00000  Uiso   1.00
O132   O     0.49999   0.20627   0.18513   0.00000  Uiso   1.00
O133   O     0.50001   0.12707   0.31487   0.00000  Uiso   1.00
O134   O     0.50001   0.20627   0.31487   0.00000  Uiso   1.00
O135   O     0.49999   0.12707   0.18513   0.00000  Uiso   1.00
O136   O     0.44059   0.01358   0.02386   0.00000  Uiso   1.00
C137   C     0.75400   0.16667   0.24994   0.00000  Uiso   1.00
C138   C     0.70940   0.16667   0.24992   0.00000  Uiso   1.00
C139   C     0.80550   0.02431   0.22513   0.00000  Uiso   1.00
C140   C     0.86113   0.30903   0.27491   0.00000  Uiso   1.00
C141   C     0.86111   0.02534   0.27494   0.00000  Uiso   1.00
C142   C     0.80554   0.30799   0.22507   0.00000  Uiso   1.00
C143   C     0.83250   0.16606   0.16430   0.00000  Uiso   1.00
C144   C     0.83467   0.16725   0.33578   0.00000  Uiso   1.00
C145   C     0.85325   0.20741   0.40884   0.00000  Uiso   1.00
C146   C     0.81744   0.12569   0.09120   0.00000  Uiso   1.00
C147   C     0.83749   0.16824   0.38435   0.00000  Uiso   1.00
C148   C     0.91267   0.16666   0.25004   0.00000  Uiso   1.00
C149   C     0.83353   0.16434   0.11590   0.00000  Uiso   1.00
C150   C     0.82491   0.12815   0.40626   0.00000  Uiso   1.00
C151   C     0.85179   0.20173   0.09439   0.00000  Uiso   1.00
C152   C     0.82585   0.12649   0.45197   0.00000  Uiso   1.00
C153   C     0.85404   0.20198   0.04862   0.00000  Uiso   1.00
C154   C     0.84098   0.16495   0.47697   0.00000  Uiso   1.00
C155   C     0.83962   0.16326   0.02349   0.00000  Uiso   1.00
C156   C     0.85679   0.20521   0.45556   0.00000  Uiso   1.00
C157   C     0.82319   0.12332   0.04482   0.00000  Uiso   1.00
C158   C     0.81226   0.08606   0.47267   0.00000  Uiso   1.00
C159   C     0.81196   0.08323   0.01863   0.00000  Uiso   1.00
C160   C     0.87154   0.24041   0.02802   0.00000  Uiso   1.00
C161   C     0.80353   0.03639   0.03707   0.00000  Uiso   1.00
C162   C     0.89784   0.28198   0.46433   0.00000  Uiso   1.00
C163   C     0.87414   0.24222   0.48209   0.00000  Uiso   1.00
C164   C     0.68796   0.12401   0.24935   0.00000  Uiso   1.00
C165   C     0.97871   0.20933   0.25061   0.00000  Uiso   1.00
C166   C     0.97873   0.12400   0.24943   0.00000  Uiso   1.00
C167   C     0.68794   0.20933   0.25053   0.00000  Uiso   1.00
C168   C     0.95727   0.16666   0.25005   0.00000  Uiso   1.00
Cu169  Cu    0.83333   0.21355   0.25000   0.00000  Uiso   1.00
Cu170  Cu    0.83333   0.11978   0.25000   0.00000  Uiso   1.00
H171   H     0.81311   0.09814   0.38755   0.00000  Uiso   1.00
H172   H     0.88344   0.29072   0.29476   0.00000  Uiso   1.00
H173   H     0.88332   0.04450   0.29495   0.00000  Uiso   1.00
H174   H     0.78333   0.28883   0.20507   0.00000  Uiso   1.00
H175   H     0.88646   0.24235   0.36290   0.00000  Uiso   1.00
H176   H     0.83801   0.26473   0.37296   0.00000  Uiso   1.00
H177   H     0.80885   0.07105   0.13267   0.00000  Uiso   1.00
H178   H     0.76874   0.10971   0.13049   0.00000  Uiso   1.00
H179   H     0.82170   0.31850   0.07786   0.00000  Uiso   1.00
H180   H     0.94577   0.30313   0.42750   0.00000  Uiso   1.00
H181   H     0.86413   0.23118   0.11348   0.00000  Uiso   1.00
H182   H     0.80292   0.05578   0.45274   0.00000  Uiso   1.00
H183   H     0.88430   0.26893   0.04804   0.00000  Uiso   1.00
H184   H     0.70398   0.09066   0.24883   0.00000  Uiso   1.00
H185   H     0.96268   0.24268   0.25113   0.00000  Uiso   1.00
H186   H     0.96272   0.09065   0.24898   0.00000  Uiso   1.00
H187   H     0.70394   0.24268   0.25098   0.00000  Uiso   1.00
H188   H     0.78314   0.04264   0.20533   0.00000  Uiso   1.00
N189   N     0.83333   0.28402   0.25000   0.00000  Uiso   1.00
N190   N     0.83333   0.04931   0.25000   0.00000  Uiso   1.00
N191   N     0.86424   0.24979   0.38695   0.00000  Uiso   1.00
N192   N     0.79127   0.09205   0.11198   0.00000  Uiso   1.00
O193   O     0.77321   0.20625   0.24999   0.00000  Uiso   1.00
O194   O     0.83065   0.01735   0.06787   0.00000  Uiso   1.00
O195   O     0.88873   0.32228   0.47501   0.00000  Uiso   1.00
O196   O     0.93181   0.27322   0.43713   0.00000  Uiso   1.00
O197   O     0.89345   0.12709   0.25000   0.00000  Uiso   1.00
O198   O     0.89345   0.20625   0.25000   0.00000  Uiso   1.00
O199   O     0.77321   0.12709   0.24999   0.00000  Uiso   1.00
O200   O     0.83332   0.20627   0.18513   0.00000  Uiso   1.00
O201   O     0.83334   0.12707   0.31487   0.00000  Uiso   1.00
O202   O     0.83334   0.20627   0.31487   0.00000  Uiso   1.00
O203   O     0.83332   0.12707   0.18513   0.00000  Uiso   1.00
O204   O     0.77393   0.01358   0.02386   0.00000  Uiso   1.00
C205   C     0.08733   0.50000   0.24994   0.00000  Uiso   1.00
C206   C     0.04273   0.50000   0.24992   0.00000  Uiso   1.00
C207   C     0.13884   0.35764   0.22513   0.00000  Uiso   1.00
C208   C     0.19446   0.64236   0.27491   0.00000  Uiso   1.00
C209   C     0.19444   0.35868   0.27494   0.00000  Uiso   1.00
C210   C     0.13888   0.64132   0.22507   0.00000  Uiso   1.00
C211   C     0.16583   0.49940   0.16430   0.00000  Uiso   1.00
C212   C     0.16800   0.50059   0.33578   0.00000  Uiso   1.00
C213   C     0.18658   0.54074   0.40884   0.00000  Uiso   1.00
C214   C     0.15077   0.45902   0.09120   0.00000  Uiso   1.00
C215   C     0.17083   0.50157   0.38435   0.00000  Uiso   1.00
C216   C     0.24600   0.50000   0.25004   0.00000  Uiso   1.00
C217   C     0.16687   0.49767   0.11590   0.00000  Uiso   1.00
C218   C     0.15824   0.46148   0.40626   0.00000  Uiso   1.00
C219   C     0.18512   0.53507   0.09439   0.00000  Uiso   1.00
C220   C     0.15918   0.45983   0.45197   0.00000  Uiso   1.00
C221   C     0.18737   0.53532   0.04862   0.00000  Uiso   1.00
C222   C     0.17432   0.49829   0.47697   0.00000  Uiso   1.00
C223   C     0.17295   0.49659   0.02349   0.00000  Uiso   1.00
C224   C     0.19013   0.53854   0.45556   0.00000  Uiso   1.00
C225   C     0.15652   0.45665   0.04482   0.00000  Uiso   1.00
C226   C     0.14560   0.41939   0.47267   0.00000  Uiso   1.00
C227   C     0.14529   0.41656   0.01863   0.00000  Uiso   1.00
C228   C     0.20488   0.57374   0.02802   0.00000  Uiso   1.00
C229   C     0.13686   0.36972   0.03707   0.00000  Uiso   1.00
C230   C     0.23117   0.61532   0.46433   0.00000  Uiso   1.00
C231   C     0.20748   0.57556   0.48209   0.00000  Uiso   1.00
C232   C     0.02129   0.45734   0.24935   0.00000  Uiso   1.00
C233   C     0.31204   0.54266   0.25061   0.00000  Uiso   1.00
C234   C     0.31206   0.45734   0.24943   0.00000  Uiso   1.00
C235   C     0.02127   0.54266   0.25053   0.00000  Uiso   1.00
C236   C     0.29060   0.50000   0.25005   0.00000  Uiso   1.00
Cu237  Cu    0.16667   0.54689   0.25000   0.00000  Uiso   1.00
Cu238  Cu    0.16667   0.45311   0.25000   0.00000  Uiso   1.00
H239   H     0.14645   0.43148   0.38755   0.00000  Uiso   1.00
H240   H     0.21677   0.62405   0.29476   0.00000  Uiso   1.00
H241   H     0.21666   0.37784   0.29495   0.00000  Uiso   1.00
H242   H     0.11666   0.62217   0.20507   0.00000  Uiso   1.00
H243   H     0.21979   0.57569   0.36290   0.00000  Uiso   1.00
H244   H     0.17134   0.59806   0.37296   0.00000  Uiso   1.00
H245   H     0.14218   0.40439   0.13267   0.00000  Uiso   1.00
H246   H     0.10207   0.44304   0.13049   0.00000  Uiso   1.00
H247   H     0.15504   0.65184   0.07786   0.00000  Uiso   1.00
H248   H     0.27910   0.63646   0.42750   0.00000  Uiso   1.00
H249   H     0.19746   0.56451   0.11348   0.00000  Uiso   1.00
H250   H     0.13625   0.38912   0.45274   0.00000  Uiso   1.00
H251   H     0.21763   0.60226   0.04804   0.00000  Uiso   1.00
H252   H     0.03732   0.42399   0.24883   0.00000  Uiso   1.00
H253   H     0.29601   0.57601   0.25113   0.00000  Uiso   1.00
H254   H     0.29606   0.42399   0.24898   0.00000  Uiso   1.00
H255   H     0.03727   0.57601   0.25098   0.00000  Uiso   1.00
H256   H     0.11648   0.37597   0.20533   0.00000  Uiso   1.00
N257   N     0.16667   0.61736   0.25000   0.00000  Uiso   1.00
N258   N     0.16667   0.38264   0.25000   0.00000  Uiso   1.00
N259   N     0.19757   0.58313   0.38695   0.00000  Uiso   1.00
N260   N     0.12460   0.42538   0.11198   0.00000  Uiso   1.00
O261   O     0.10655   0.53958   0.24999   0.00000  Uiso   1.00
O262   O     0.16398   0.35068   0.06787   0.00000  Uiso   1.00
O263   O     0.22207   0.65561   0.47501   0.00000  Uiso   1.00
O264   O     0.26514   0.60655   0.43713   0.00000  Uiso   1.00
O265   O     0.22679   0.46042   0.25000   0.00000  Uiso   1.00
O266   O     0.22679   0.53958   0.25000   0.00000  Uiso   1.00
O267   O     0.10655   0.46042   0.24999   0.00000  Uiso   1.00
O268   O     0.16666   0.53960   0.18513   0.00000  Uiso   1.00
O269   O     0.16668   0.46040   0.31487   0.00000  Uiso   1.00
O270   O     0.16668   0.53960   0.31487   0.00000  Uiso   1.00
O271   O     0.16666   0.46040   0.18513   0.00000  Uiso   1.00
O272   O     0.10726   0.34691   0.02386   0.00000  Uiso   1.00
C273   C     0.42067   0.50000   0.24994   0.00000  Uiso   1.00
C274   C     0.37606   0.50000   0.24992   0.00000  Uiso   1.00
C275   C     0.47217   0.35764   0.22513   0.00000  Uiso   1.00
C276   C     0.52780   0.64236   0.27491   0.00000  Uiso   1.00
C277   C     0.52778   0.35868   0.27494   0.00000  Uiso   1.00
C278   C     0.47221   0.64132   0.22507   0.00000  Uiso   1.00
C279   C     0.49917   0.49940   0.16430   0.00000  Uiso   1.00
C280   C     0.50133   0.50059   0.33578   0.00000  Uiso   1.00
C281   C     0.51991   0.54074   0.40884   0.00000  Uiso   1.00
C282   C     0.48411   0.45902   0.09120   0.00000  Uiso   1.00
C283   C     0.50416   0.50157   0.38435   0.00000  Uiso   1.00
C284   C     0.57933   0.50000   0.25004   0.00000  Uiso   1.00
C285   C     0.50020   0.49767   0.11590   0.00000  Uiso   1.00
C286   C     0.49157   0.46148   0.40626   0.00000  Uiso   1.00
C287   C     0.51846   0.53507   0.09439   0.00000  Uiso   1.00
C288   C     0.49252   0.45983   0.45197   0.00000  Uiso   1.00
C289   C     0.52070   0.53532   0.04862   0.00000  Uiso   1.00
C290   C     0.50765   0.49829   0.47697   0.00000  Uiso   1.00
C291   C     0.50628   0.49659   0.02349   0.00000  Uiso   1.00
C292   C     0.52346   0.53854   0.45556   0.00000  Uiso   1.00
C293   C     0.48985   0.45665   0.04482   0.00000  Uiso   1.00
C294   C     0.47893   0.41939   0.47267   0.00000  Uiso   1.00
C295   C     0.47862   0.41656   0.01863   0.00000  Uiso   1.00
C296   C     0.53821   0.57374   0.02802   0.00000  Uiso   1.00
C297   C     0.47019   0.36972   0.03707   0.00000  Uiso   1.00
C298   C     0.56451   0.61532   0.46433   0.00000  Uiso   1.00
C299   C     0.54081   0.57556   0.48209   0.00000  Uiso   1.00
C300   C     0.35463   0.45734   0.24935   0.00000  Uiso   1.00
C301   C     0.64537   0.54266   0.25061   0.00000  Uiso   1.00
C302   C     0.64540   0.45734   0.24943   0.00000  Uiso   1.00
C303   C     0.35460   0.54266   0.25053   0.00000  Uiso   1.00
C304   C     0.62394   0.50000   0.25005   0.00000  Uiso   1.00
Cu305  Cu    0.50000   0.54689   0.25000   0.00000  Uiso   1.00
Cu306  Cu    0.50000   0.45311   0.25000   0.00000  Uiso   1.00
H307   H     0.47978   0.43148   0.38755   0.00000  Uiso   1.00
H308   H     0.55011   0.62405   0.29476   0.00000  Uiso   1.00
H309   H     0.54999   0.37784   0.29495   0.00000  Uiso   1.00
H310   H     0.44999   0.62217   0.20507   0.00000  Uiso   1.00
H311   H     0.55313   0.57569   0.36290   0.00000  Uiso   1.00
H312   H     0.50467   0.59806   0.37296   0.00000  Uiso   1.00
H313   H     0.47552   0.40439   0.13267   0.00000  Uiso   1.00
H314   H     0.43541   0.44304   0.13049   0.00000  Uiso   1.00
H315   H     0.48837   0.65184   0.07786   0.00000  Uiso   1.00
H316   H     0.61243   0.63646   0.42750   0.00000  Uiso   1.00
H317   H     0.53080   0.56451   0.11348   0.00000  Uiso   1.00
H318   H     0.46958   0.38912   0.45274   0.00000  Uiso   1.00
H319   H     0.55097   0.60226   0.04804   0.00000  Uiso   1.00
H320   H     0.37065   0.42399   0.24883   0.00000  Uiso   1.00
H321   H     0.62935   0.57601   0.25113   0.00000  Uiso   1.00
H322   H     0.62939   0.42399   0.24898   0.00000  Uiso   1.00
H323   H     0.37061   0.57601   0.25098   0.00000  Uiso   1.00
H324   H     0.44981   0.37597   0.20533   0.00000  Uiso   1.00
N325   N     0.50000   0.61736   0.25000   0.00000  Uiso   1.00
N326   N     0.50000   0.38264   0.25000   0.00000  Uiso   1.00
N327   N     0.53090   0.58313   0.38695   0.00000  Uiso   1.00
N328   N     0.45794   0.42538   0.11198   0.00000  Uiso   1.00
O329   O     0.43988   0.53958   0.24999   0.00000  Uiso   1.00
O330   O     0.49731   0.35068   0.06787   0.00000  Uiso   1.00
O331   O     0.55540   0.65561   0.47501   0.00000  Uiso   1.00
O332   O     0.59848   0.60655   0.43713   0.00000  Uiso   1.00
O333   O     0.56012   0.46042   0.25000   0.00000  Uiso   1.00
O334   O     0.56012   0.53958   0.25000   0.00000  Uiso   1.00
O335   O     0.43988   0.46042   0.24999   0.00000  Uiso   1.00
O336   O     0.49999   0.53960   0.18513   0.00000  Uiso   1.00
O337   O     0.50001   0.46040   0.31487   0.00000  Uiso   1.00
O338   O     0.50001   0.53960   0.31487   0.00000  Uiso   1.00
O339   O     0.49999   0.46040   0.18513   0.00000  Uiso   1.00
O340   O     0.44059   0.34691   0.02386   0.00000  Uiso   1.00
C341   C     0.75400   0.50000   0.24994   0.00000  Uiso   1.00
C342   C     0.70940   0.50000   0.24992   0.00000  Uiso   1.00
C343   C     0.80550   0.35764   0.22513   0.00000  Uiso   1.00
C344   C     0.86113   0.64236   0.27491   0.00000  Uiso   1.00
C345   C     0.86111   0.35868   0.27494   0.00000  Uiso   1.00
C346   C     0.80554   0.64132   0.22507   0.00000  Uiso   1.00
C347   C     0.83250   0.49940   0.16430   0.00000  Uiso   1.00
C348   C     0.83467   0.50059   0.33578   0.00000  Uiso   1.00
C349   C     0.85325   0.54074   0.40884   0.00000  Uiso   1.00
C350   C     0.81744   0.45902   0.09120   0.00000  Uiso   1.00
C351   C     0.83749   0.50157   0.38435   0.00000  Uiso   1.00
C352   C     0.91267   0.50000   0.25004   0.00000  Uiso   1.00
C353   C     0.83353   0.49767   0.11590   0.00000  Uiso   1.00
C354   C     0.82491   0.46148   0.40626   0.00000  Uiso   1.00
C355   C     0.85179   0.53507   0.09439   0.00000  Uiso   1.00
C356   C     0.82585   0.45983   0.45197   0.00000  Uiso   1.00
C357   C     0.85404   0.53532   0.04862   0.00000  Uiso   1.00
C358   C     0.84098   0.49829   0.47697   0.00000  Uiso   1.00
C359   C     0.83962   0.49659   0.02349   0.00000  Uiso   1.00
C360   C     0.85679   0.53854   0.45556   0.00000  Uiso   1.00
C361   C     0.82319   0.45665   0.04482   0.00000  Uiso   1.00
C362   C     0.81226   0.41939   0.47267   0.00000  Uiso   1.00
C363   C     0.81196   0.41656   0.01863   0.00000  Uiso   1.00
C364   C     0.87154   0.57374   0.02802   0.00000  Uiso   1.00
C365   C     0.80353   0.36972   0.03707   0.00000  Uiso   1.00
C366   C     0.89784   0.61532   0.46433   0.00000  Uiso   1.00
C367   C     0.87414   0.57556   0.48209   0.00000  Uiso   1.00
C368   C     0.68796   0.45734   0.24935   0.00000  Uiso   1.00
C369   C     0.97871   0.54266   0.25061   0.00000  Uiso   1.00
C370   C     0.97873   0.45734   0.24943   0.00000  Uiso   1.00
C371   C     0.68794   0.54266   0.25053   0.00000  Uiso   1.00
C372   C     0.95727   0.50000   0.25005   0.00000  Uiso   1.00
Cu373  Cu    0.83333   0.54689   0.25000   0.00000  Uiso   1.00
Cu374  Cu    0.83333   0.45311   0.25000   0.00000  Uiso   1.00
H375   H     0.81311   0.43148   0.38755   0.00000  Uiso   1.00
H376   H     0.88344   0.62405   0.29476   0.00000  Uiso   1.00
H377   H     0.88332   0.37784   0.29495   0.00000  Uiso   1.00
H378   H     0.78333   0.62217   0.20507   0.00000  Uiso   1.00
H379   H     0.88646   0.57569   0.36290   0.00000  Uiso   1.00
H380   H     0.83801   0.59806   0.37296   0.00000  Uiso   1.00
H381   H     0.80885   0.40439   0.13267   0.00000  Uiso   1.00
H382   H     0.76874   0.44304   0.13049   0.00000  Uiso   1.00
H383   H     0.82170   0.65184   0.07786   0.00000  Uiso   1.00
H384   H     0.94577   0.63646   0.42750   0.00000  Uiso   1.00
H385   H     0.86413   0.56451   0.11348   0.00000  Uiso   1.00
H386   H     0.80292   0.38912   0.45274   0.00000  Uiso   1.00
H387   H     0.88430   0.60226   0.04804   0.00000  Uiso   1.00
H388   H     0.70398   0.42399   0.24883   0.00000  Uiso   1.00
H389   H     0.96268   0.57601   0.25113   0.00000  Uiso   1.00
H390   H     0.96272   0.42399   0.24898   0.00000  Uiso   1.00
H391   H     0.70394   0.57601   0.25098   0.00000  Uiso   1.00
H392   H     0.78314   0.37597   0.20533   0.00000  Uiso   1.00
N393   N     0.83333   0.61736   0.25000   0.00000  Uiso   1.00
N394   N     0.83333   0.38264   0.25000   0.00000  Uiso   1.00
N395   N     0.86424   0.58313   0.38695   0.00000  Uiso   1.00
N396   N     0.79127   0.42538   0.11198   0.00000  Uiso   1.00
O397   O     0.77321   0.53958   0.24999   0.00000  Uiso   1.00
O398   O     0.83065   0.35068   0.06787   0.00000  Uiso   1.00
O399   O     0.88873   0.65561   0.47501   0.00000  Uiso   1.00
O400   O     0.93181   0.60655   0.43713   0.00000  Uiso   1.00
O401   O     0.89345   0.46042   0.25000   0.00000  Uiso   1.00
O402   O     0.89345   0.53958   0.25000   0.00000  Uiso   1.00
O403   O     0.77321   0.46042   0.24999   0.00000  Uiso   1.00
O404   O     0.83332   0.53960   0.18513   0.00000  Uiso   1.00
O405   O     0.83334   0.46040   0.31487   0.00000  Uiso   1.00
O406   O     0.83334   0.53960   0.31487   0.00000  Uiso   1.00
O407   O     0.83332   0.46040   0.18513   0.00000  Uiso   1.00
O408   O     0.77393   0.34691   0.02386   0.00000  Uiso   1.00
C409   C     0.08733   0.83334   0.24994   0.00000  Uiso   1.00
C410   C     0.04273   0.83334   0.24992   0.00000  Uiso   1.00
C411   C     0.13884   0.69098   0.22513   0.00000  Uiso   1.00
C412   C     0.19446   0.97569   0.27491   0.00000  Uiso   1.00
C413   C     0.19444   0.69201   0.27494   0.00000  Uiso   1.00
C414   C     0.13888   0.97466   0.22507   0.00000  Uiso   1.00
C415   C     0.16583   0.83273   0.16430   0.00000  Uiso   1.00
C416   C     0.16800   0.83392   0.33578   0.00000  Uiso   1.00
C417   C     0.18658   0.87408   0.40884   0.00000  Uiso   1.00
C418   C     0.15077   0.79236   0.09120   0.00000  Uiso   1.00
C419   C     0.17083   0.83491   0.38435   0.00000  Uiso   1.00
C420   C     0.24600   0.83333   0.25004   0.00000  Uiso   1.00
C421   C     0.16687   0.83100   0.11590   0.00000  Uiso   1.00
C422   C     0.15824   0.79481   0.40626   0.00000  Uiso   1.00
C423   C     0.18512   0.86840   0.09439   0.00000  Uiso   1.00
C424   C     0.15918   0.79316   0.45197   0.00000  Uiso   1.00
C425   C     0.18737   0.86865   0.04862   0.00000  Uiso   1.00
C426   C     0.17432   0.83162   0.47697   0.00000  Uiso   1.00
C427   C     0.17295   0.82992   0.02349   0.00000  Uiso   1.00
C428   C     0.19013   0.87187   0.45556   0.00000  Uiso   1.00
C429   C     0.15652   0.78998   0.04482   0.00000  Uiso   1.00
C430   C     0.14560   0.75273   0.47267   0.00000  Uiso   1.00
C431   C     0.14529   0.74989   0.01863   0.00000  Uiso   1.00
C432   C     0.20488   0.90707   0.02802   0.00000  Uiso   1.00
C433   C     0.13686   0.70305   0.03707   0.00000  Uiso   1.00
C434   C     0.23117   0.94865   0.46433   0.00000  Uiso   1.00
C435   C     0.20748   0.90889   0.48209   0.00000  Uiso   1.00
C436   C     0.02129   0.79067   0.24935   0.00000  Uiso   1.00
C437   C     0.31204   0.87599   0.25061   0.00000  Uiso   1.00
C438   C     0.31206   0.79067   0.24943   0.00000  Uiso   1.00
C439   C     0.02127   0.87600   0.25053   0.00000  Uiso   1.00
C440   C     0.29060   0.83333   0.25005   0.00000  Uiso   1.00
Cu441  Cu    0.16667   0.88022   0.25000   0.00000  Uiso   1.00
Cu442  Cu    0.16667   0.78645   0.25000   0.00000  Uiso   1.00
H443   H     0.14645   0.76481   0.38755   0.00000  Uiso   1.00
H444   H     0.21677   0.95738   0.29476   0.00000  Uiso   1.00
H445   H     0.21666   0.71117   0.29495   0.00000  Uiso   1.00
H446   H     0.11666   0.95550   0.20507   0.00000  Uiso   1.00
H447   H     0.21979   0.90902   0.36290   0.00000  Uiso   1.00
H448   H     0.17134   0.93140   0.37296   0.00000  Uiso   1.00
H449   H     0.14218   0.73772   0.13267   0.00000  Uiso   1.00
H450   H     0.10207   0.77638   0.13049   0.00000  Uiso   1.00
H451   H     0.15504   0.98517   0.07786   0.00000  Uiso   1.00
H452   H     0.27910   0.96980   0.42750   0.00000  Uiso   1.00
H453   H     0.19746   0.89784   0.11348   0.00000  Uiso   1.00
H454   H     0.13625   0.72245   0.45274   0.00000  Uiso   1.00
H455   H     0.21763   0.93560   0.04804   0.00000  Uiso   1.00
H456   H     0.03732   0.75732   0.24883   0.00000  Uiso   1.00
H457   H     0.29601   0.90934   0.25113   0.00000  Uiso   1.00
H458   H     0.29606   0.75732   0.24898   0.00000  Uiso   1.00
H459   H     0.03727   0.90935   0.25098   0.00000  Uiso   1.00
H460   H     0.11648   0.70931   0.20533   0.00000  Uiso   1.00
N461   N     0.16667   0.95069   0.25000   0.00000  Uiso   1.00
N462   N     0.16667   0.71598   0.25000   0.00000  Uiso   1.00
N463   N     0.19757   0.91646   0.38695   0.00000  Uiso   1.00
N464   N     0.12460   0.75871   0.11198   0.00000  Uiso   1.00
O465   O     0.10655   0.87291   0.24999   0.00000  Uiso   1.00
O466   O     0.16398   0.68402   0.06787   0.00000  Uiso   1.00
O467   O     0.22207   0.98895   0.47501   0.00000  Uiso   1.00
O468   O     0.26514   0.93988   0.43713   0.00000  Uiso   1.00
O469   O     0.22679   0.79375   0.25000   0.00000  Uiso   1.00
O470   O     0.22679   0.87291   0.25000   0.00000  Uiso   1.00
O471   O     0.10655   0.79375   0.24999   0.00000  Uiso   1.00
O472   O     0.16666   0.87293   0.18513   0.00000  Uiso   1.00
O473   O     0.16668   0.79373   0.31487   0.00000  Uiso   1.00
O474   O     0.16668   0.87293   0.31487   0.00000  Uiso   1.00
O475   O     0.16666   0.79373   0.18513   0.00000  Uiso   1.00
O476   O     0.10726   0.68024   0.02386   0.00000  Uiso   1.00
C477   C     0.42067   0.83334   0.24994   0.00000  Uiso   1.00
C478   C     0.37606   0.83334   0.24992   0.00000  Uiso   1.00
C479   C     0.47217   0.69098   0.22513   0.00000  Uiso   1.00
C480   C     0.52780   0.97569   0.27491   0.00000  Uiso   1.00
C481   C     0.52778   0.69201   0.27494   0.00000  Uiso   1.00
C482   C     0.47221   0.97466   0.22507   0.00000  Uiso   1.00
C483   C     0.49917   0.83273   0.16430   0.00000  Uiso   1.00
C484   C     0.50133   0.83392   0.33578   0.00000  Uiso   1.00
C485   C     0.51991   0.87408   0.40884   0.00000  Uiso   1.00
C486   C     0.48411   0.79236   0.09120   0.00000  Uiso   1.00
C487   C     0.50416   0.83491   0.38435   0.00000  Uiso   1.00
C488   C     0.57933   0.83333   0.25004   0.00000  Uiso   1.00
C489   C     0.50020   0.83100   0.11590   0.00000  Uiso   1.00
C490   C     0.49157   0.79481   0.40626   0.00000  Uiso   1.00
C491   C     0.51846   0.86840   0.09439   0.00000  Uiso   1.00
C492   C     0.49252   0.79316   0.45197   0.00000  Uiso   1.00
C493   C     0.52070   0.86865   0.04862   0.00000  Uiso   1.00
C494   C     0.50765   0.83162   0.47697   0.00000  Uiso   1.00
C495   C     0.50628   0.82992   0.02349   0.00000  Uiso   1.00
C496   C     0.52346   0.87187   0.45556   0.00000  Uiso   1.00
C497   C     0.48985   0.78998   0.04482   0.00000  Uiso   1.00
C498   C     0.47893   0.75273   0.47267   0.00000  Uiso   1.00
C499   C     0.47862   0.74989   0.01863   0.00000  Uiso   1.00
C500   C     0.53821   0.90707   0.02802   0.00000  Uiso   1.00
C501   C     0.47019   0.70305   0.03707   0.00000  Uiso   1.00
C502   C     0.56451   0.94865   0.46433   0.00000  Uiso   1.00
C503   C     0.54081   0.90889   0.48209   0.00000  Uiso   1.00
C504   C     0.35463   0.79067   0.24935   0.00000  Uiso   1.00
C505   C     0.64537   0.87599   0.25061   0.00000  Uiso   1.00
C506   C     0.64540   0.79067   0.24943   0.00000  Uiso   1.00
C507   C     0.35460   0.87600   0.25053   0.00000  Uiso   1.00
C508   C     0.62394   0.83333   0.25005   0.00000  Uiso   1.00
Cu509  Cu    0.50000   0.88022   0.25000   0.00000  Uiso   1.00
Cu510  Cu    0.50000   0.78645   0.25000   0.00000  Uiso   1.00
H511   H     0.47978   0.76481   0.38755   0.00000  Uiso   1.00
H512   H     0.55011   0.95738   0.29476   0.00000  Uiso   1.00
H513   H     0.54999   0.71117   0.29495   0.00000  Uiso   1.00
H514   H     0.44999   0.95550   0.20507   0.00000  Uiso   1.00
H515   H     0.55313   0.90902   0.36290   0.00000  Uiso   1.00
H516   H     0.50467   0.93140   0.37296   0.00000  Uiso   1.00
H517   H     0.47552   0.73772   0.13267   0.00000  Uiso   1.00
H518   H     0.43541   0.77638   0.13049   0.00000  Uiso   1.00
H519   H     0.48837   0.98517   0.07786   0.00000  Uiso   1.00
H520   H     0.61243   0.96980   0.42750   0.00000  Uiso   1.00
H521   H     0.53080   0.89784   0.11348   0.00000  Uiso   1.00
H522   H     0.46958   0.72245   0.45274   0.00000  Uiso   1.00
H523   H     0.55097   0.93560   0.04804   0.00000  Uiso   1.00
H524   H     0.37065   0.75732   0.24883   0.00000  Uiso   1.00
H525   H     0.62935   0.90934   0.25113   0.00000  Uiso   1.00
H526   H     0.62939   0.75732   0.24898   0.00000  Uiso   1.00
H527   H     0.37061   0.90935   0.25098   0.00000  Uiso   1.00
H528   H     0.44981   0.70931   0.20533   0.00000  Uiso   1.00
N529   N     0.50000   0.95069   0.25000   0.00000  Uiso   1.00
N530   N     0.50000   0.71598   0.25000   0.00000  Uiso   1.00
N531   N     0.53090   0.91646   0.38695   0.00000  Uiso   1.00
N532   N     0.45794   0.75871   0.11198   0.00000  Uiso   1.00
O533   O     0.43988   0.87291   0.24999   0.00000  Uiso   1.00
O534   O     0.49731   0.68402   0.06787   0.00000  Uiso   1.00
O535   O     0.55540   0.98895   0.47501   0.00000  Uiso   1.00
O536   O     0.59848   0.93988   0.43713   0.00000  Uiso   1.00
O537   O     0.56012   0.79375   0.25000   0.00000  Uiso   1.00
O538   O     0.56012   0.87291   0.25000   0.00000  Uiso   1.00
O539   O     0.43988   0.79375   0.24999   0.00000  Uiso   1.00
O540   O     0.49999   0.87293   0.18513   0.00000  Uiso   1.00
O541   O     0.50001   0.79373   0.31487   0.00000  Uiso   1.00
O542   O     0.50001   0.87293   0.31487   0.00000  Uiso   1.00
O543   O     0.49999   0.79373   0.18513   0.00000  Uiso   1.00
O544   O     0.44059   0.68024   0.02386   0.00000  Uiso   1.00
C545   C     0.75400   0.83334   0.24994   0.00000  Uiso   1.00
C546   C     0.70940   0.83334   0.24992   0.00000  Uiso   1.00
C547   C     0.80550   0.69098   0.22513   0.00000  Uiso   1.00
C548   C     0.86113   0.97569   0.27491   0.00000  Uiso   1.00
C549   C     0.86111   0.69201   0.27494   0.00000  Uiso   1.00
C550   C     0.80554   0.97466   0.22507   0.00000  Uiso   1.00
C551   C     0.83250   0.83273   0.16430   0.00000  Uiso   1.00
C552   C     0.83467   0.83392   0.33578   0.00000  Uiso   1.00
C553   C     0.85325   0.87408   0.40884   0.00000  Uiso   1.00
C554   C     0.81744   0.79236   0.09120   0.00000  Uiso   1.00
C555   C     0.83749   0.83491   0.38435   0.00000  Uiso   1.00
C556   C     0.91267   0.83333   0.25004   0.00000  Uiso   1.00
C557   C     0.83353   0.83100   0.11590   0.00000  Uiso   1.00
C558   C     0.82491   0.79481   0.40626   0.00000  Uiso   1.00
C559   C     0.85179   0.86840   0.09439   0.00000  Uiso   1.00
C560   C     0.82585   0.79316   0.45197   0.00000  Uiso   1.00
C561   C     0.85404   0.86865   0.04862   0.00000  Uiso   1.00
C562   C     0.84098   0.83162   0.47697   0.00000  Uiso   1.00
C563   C     0.83962   0.82992   0.02349   0.00000  Uiso   1.00
C564   C     0.85679   0.87187   0.45556   0.00000  Uiso   1.00
C565   C     0.82319   0.78998   0.04482   0.00000  Uiso   1.00
C566   C     0.81226   0.75273   0.47267   0.00000  Uiso   1.00
C567   C     0.81196   0.74989   0.01863   0.00000  Uiso   1.00
C568   C     0.87154   0.90707   0.02802   0.00000  Uiso   1.00
C569   C     0.80353   0.70305   0.03707   0.00000  Uiso   1.00
C570   C     0.89784   0.94865   0.46433   0.00000  Uiso   1.00
C571   C     0.87414   0.90889   0.48209   0.00000  Uiso   1.00
C572   C     0.68796   0.79067   0.24935   0.00000  Uiso   1.00
C573   C     0.97871   0.87599   0.25061   0.00000  Uiso   1.00
C574   C     0.97873   0.79067   0.24943   0.00000  Uiso   1.00
C575   C     0.68794   0.87600   0.25053   0.00000  Uiso   1.00
C576   C     0.95727   0.83333   0.25005   0.00000  Uiso   1.00
Cu577  Cu    0.83333   0.88022   0.25000   0.00000  Uiso   1.00
Cu578  Cu    0.83333   0.78645   0.25000   0.00000  Uiso   1.00
H579   H     0.81311   0.76481   0.38755   0.00000  Uiso   1.00
H580   H     0.88344   0.95738   0.29476   0.00000  Uiso   1.00
H581   H     0.88332   0.71117   0.29495   0.00000  Uiso   1.00
H582   H     0.78333   0.95550   0.20507   0.00000  Uiso   1.00
H583   H     0.88646   0.90902   0.36290   0.00000  Uiso   1.00
H584   H     0.83801   0.93140   0.37296   0.00000  Uiso   1.00
H585   H     0.80885   0.73772   0.13267   0.00000  Uiso   1.00
H586   H     0.76874   0.77638   0.13049   0.00000  Uiso   1.00
H587   H     0.82170   0.98517   0.07786   0.00000  Uiso   1.00
H588   H     0.94577   0.96980   0.42750   0.00000  Uiso   1.00
H589   H     0.86413   0.89784   0.11348   0.00000  Uiso   1.00
H590   H     0.80292   0.72245   0.45274   0.00000  Uiso   1.00
H591   H     0.88430   0.93560   0.04804   0.00000  Uiso   1.00
H592   H     0.70398   0.75732   0.24883   0.00000  Uiso   1.00
H593   H     0.96268   0.90934   0.25113   0.00000  Uiso   1.00
H594   H     0.96272   0.75732   0.24898   0.00000  Uiso   1.00
H595   H     0.70394   0.90935   0.25098   0.00000  Uiso   1.00
H596   H     0.78314   0.70931   0.20533   0.00000  Uiso   1.00
N597   N     0.83333   0.95069   0.25000   0.00000  Uiso   1.00
N598   N     0.83333   0.71598   0.25000   0.00000  Uiso   1.00
N599   N     0.86424   0.91646   0.38695   0.00000  Uiso   1.00
N600   N     0.79127   0.75871   0.11198   0.00000  Uiso   1.00
O601   O     0.77321   0.87291   0.24999   0.00000  Uiso   1.00
O602   O     0.83065   0.68402   0.06787   0.00000  Uiso   1.00
O603   O     0.88873   0.98895   0.47501   0.00000  Uiso   1.00
O604   O     0.93181   0.93988   0.43713   0.00000  Uiso   1.00
O605   O     0.89345   0.79375   0.25000   0.00000  Uiso   1.00
O606   O     0.89345   0.87291   0.25000   0.00000  Uiso   1.00
O607   O     0.77321   0.79375   0.24999   0.00000  Uiso   1.00
O608   O     0.83332   0.87293   0.18513   0.00000  Uiso   1.00
O609   O     0.83334   0.79373   0.31487   0.00000  Uiso   1.00
O610   O     0.83334   0.87293   0.31487   0.00000  Uiso   1.00
O611   O     0.83332   0.79373   0.18513   0.00000  Uiso   1.00
O612   O     0.77393   0.68024   0.02386   0.00000  Uiso   1.00
C613   C     0.08733   0.16667   0.74994   0.00000  Uiso   1.00
C614   C     0.04273   0.16667   0.74992   0.00000  Uiso   1.00
C615   C     0.13884   0.02431   0.72513   0.00000  Uiso   1.00
C616   C     0.19446   0.30903   0.77491   0.00000  Uiso   1.00
C617   C     0.19444   0.02534   0.77494   0.00000  Uiso   1.00
C618   C     0.13888   0.30799   0.72507   0.00000  Uiso   1.00
C619   C     0.16583   0.16606   0.66430   0.00000  Uiso   1.00
C620   C     0.16800   0.16725   0.83578   0.00000  Uiso   1.00
C621   C     0.18658   0.20741   0.90884   0.00000  Uiso   1.00
C622   C     0.15077   0.12569   0.59120   0.00000  Uiso   1.00
C623   C     0.17083   0.16824   0.88435   0.00000  Uiso   1.00
C624   C     0.24600   0.16666   0.75004   0.00000  Uiso   1.00
C625   C     0.16687   0.16434   0.61590   0.00000  Uiso   1.00
C626   C     0.15824   0.12815   0.90626   0.00000  Uiso   1.00
C627   C     0.18512   0.20173   0.59439   0.00000  Uiso   1.00
C628   C     0.15918   0.12649   0.95197   0.00000  Uiso   1.00
C629   C     0.18737   0.20198   0.54862   0.00000  Uiso   1.00
C630   C     0.17432   0.16495   0.97697   0.00000  Uiso   1.00
C631   C     0.17295   0.16326   0.52349   0.00000  Uiso   1.00
C632   C     0.19013   0.20521   0.95556   0.00000  Uiso   1.00
C633   C     0.15652   0.12332   0.54482   0.00000  Uiso   1.00
C634   C     0.14560   0.08606   0.97267   0.00000  Uiso   1.00
C635   C     0.14529   0.08323   0.51863   0.00000  Uiso   1.00
C636   C     0.20488   0.24041   0.52802   0.00000  Uiso   1.00
C637   C     0.13686   0.03639   0.53707   0.00000  Uiso   1.00
C638   C     0.23117   0.28198   0.96433   0.00000  Uiso   1.00
C639   C     0.20748   0.24222   0.98209   0.00000  Uiso   1.00
C640   C     0.02129   0.12401   0.74935   0.00000  Uiso   1.00
C641   C     0.31204   0.20933   0.75061   0.00000  Uiso   1.00
C642   C     0.31206   0.12400   0.74943   0.00000  Uiso   1.00
C643   C     0.02127   0.20933   0.75053   0.00000  Uiso   1.00
C644   C     0.29060   0.16666   0.75005   0.00000  Uiso   1.00
Cu645  Cu    0.16667   0.21355   0.75000   0.00000  Uiso   1.00
Cu646  Cu    0.16667   0.11978   0.75000   0.00000  Uiso   1.00
H647   H     0.14645   0.09814   0.88755   0.00000  Uiso   1.00
H648   H     0.21677   0.29072   0.79476   0.00000  Uiso   1.00
H649   H     0.21666   0.04450   0.79495   0.00000  Uiso   1.00
H650   H     0.11666   0.28883   0.70507   0.00000  Uiso   1.00
H651   H     0.21979   0.24235   0.86290   0.00000  Uiso   1.00
H652   H     0.17134   0.26473   0.87296   0.00000  Uiso   1.00
H653   H     0.14218   0.07105   0.63267   0.00000  Uiso   1.00
H654   H     0.10207   0.10971   0.63049   0.00000  Uiso   1.00
H655   H     0.15504   0.31850   0.57786   0.00000  Uiso   1.00
H656   H     0.27910   0.30313   0.92750   0.00000  Uiso   1.00
H657   H     0.19746   0.23118   0.61348   0.00000  Uiso   1.00
H658   H     0.13625   0.05578   0.95274   0.00000  Uiso   1.00
H659   H     0.21763   0.26893   0.54804   0.00000  Uiso   1.00
H660   H     0.03732   0.09066   0.74883   0.00000  Uiso   1.00
H661   H     0.29601   0.24268   0.75113   0.00000  Uiso   1.00
H662   H     0.29606   0.09065   0.74898   0.00000  Uiso   1.00
H663   H     0.03727   0.24268   0.75098   0.00000  Uiso   1.00
H664   H     0.11648   0.04264   0.70533   0.00000  Uiso   1.00
N665   N     0.16667   0.28402   0.75000   0.00000  Uiso   1.00
N666   N     0.16667   0.04931   0.75000   0.00000  Uiso   1.00
N667   N     0.19757   0.24979   0.88695   0.00000  Uiso   1.00
N668   N     0.12460   0.09205   0.61198   0.00000  Uiso   1.00
O669   O     0.10655   0.20625   0.74999   0.00000  Uiso   1.00
O670   O     0.16398   0.01735   0.56787   0.00000  Uiso   1.00
O671   O     0.22207   0.32228   0.97501   0.00000  Uiso   1.00
O672   O     0.26514   0.27322   0.93713   0.00000  Uiso   1.00
O673   O     0.22679   0.12709   0.75000   0.00000  Uiso   1.00
O674   O     0.22679   0.20625   0.75000   0.00000  Uiso   1.00
O675   O     0.10655   0.12709   0.74999   0.00000  Uiso   1.00
O676   O     0.16666   0.20627   0.68513   0.00000  Uiso   1.00
O677   O     0.16668   0.12707   0.81487   0.00000  Uiso   1.00
O678   O     0.16668   0.20627   0.81487   0.00000  Uiso   1.00
O679   O     0.16666   0.12707   0.68513   0.00000  Uiso   1.00
O680   O     0.10726   0.01358   0.52386   0.00000  Uiso   1.00
C681   C     0.42067   0.16667   0.74994   0.00000  Uiso   1.00
C682   C     0.37606   0.16667   0.74992   0.00000  Uiso   1.00
C683   C     0.47217   0.02431   0.72513   0.00000  Uiso   1.00
C684   C     0.52780   0.30903   0.77491   0.00000  Uiso   1.00
C685   C     0.52778   0.02534   0.77494   0.00000  Uiso   1.00
C686   C     0.47221   0.30799   0.72507   0.00000  Uiso   1.00
C687   C     0.49917   0.16606   0.66430   0.00000  Uiso   1.00
C688   C     0.50133   0.16725   0.83578   0.00000  Uiso   1.00
C689   C     0.51991   0.20741   0.90884   0.00000  Uiso   1.00
C690   C     0.48411   0.12569   0.59120   0.00000  Uiso   1.00
C691   C     0.50416   0.16824   0.88435   0.00000  Uiso   1.00
C692   C     0.57933   0.16666   0.75004   0.00000  Uiso   1.00
C693   C     0.50020   0.16434   0.61590   0.00000  Uiso   1.00
C694   C     0.49157   0.12815   0.90626   0.00000  Uiso   1.00
C695   C     0.51846   0.20173   0.59439   0.00000  Uiso   1.00
C696   C     0.49252   0.12649   0.95197   0.00000  Uiso   1.00
C697   C     0.52070   0.20198   0.54862   0.00000  Uiso   1.00
C698   C     0.50765   0.16495   0.97697   0.00000  Uiso   1.00
C699   C     0.50628   0.16326   0.52349   0.00000  Uiso   1.00
C700   C     0.52346   0.20521   0.95556   0.00000  Uiso   1.00
C701   C     0.48985   0.12332   0.54482   0.00000  Uiso   1.00
C702   C     0.47893   0.08606   0.97267   0.00000  Uiso   1.00
C703   C     0.47862   0.08323   0.51863   0.00000  Uiso   1.00
C704   C     0.53821   0.24041   0.52802   0.00000  Uiso   1.00
C705   C     0.47019   0.03639   0.53707   0.00000  Uiso   1.00
C706   C     0.56451   0.28198   0.96433   0.00000  Uiso   1.00
C707   C     0.54081   0.24222   0.98209   0.00000  Uiso   1.00
C708   C     0.35463   0.12401   0.74935   0.00000  Uiso   1.00
C709   C     0.64537   0.20933   0.75061   0.00000  Uiso   1.00
C710   C     0.64540   0.12400   0.74943   0.00000  Uiso   1.00
C711   C     0.35460   0.20933   0.75053   0.00000  Uiso   1.00
C712   C     0.62394   0.16666   0.75005   0.00000  Uiso   1.00
Cu713  Cu    0.50000   0.21355   0.75000   0.00000  Uiso   1.00
Cu714  Cu    0.50000   0.11978   0.75000   0.00000  Uiso   1.00
H715   H     0.47978   0.09814   0.88755   0.00000  Uiso   1.00
H716   H     0.55011   0.29072   0.79476   0.00000  Uiso   1.00
H717   H     0.54999   0.04450   0.79495   0.00000  Uiso   1.00
H718   H     0.44999   0.28883   0.70507   0.00000  Uiso   1.00
H719   H     0.55313   0.24235   0.86290   0.00000  Uiso   1.00
H720   H     0.50467   0.26473   0.87296   0.00000  Uiso   1.00
H721   H     0.47552   0.07105   0.63267   0.00000  Uiso   1.00
H722   H     0.43541   0.10971   0.63049   0.00000  Uiso   1.00
H723   H     0.48837   0.31850   0.57786   0.00000  Uiso   1.00
H724   H     0.61243   0.30313   0.92750   0.00000  Uiso   1.00
H725   H     0.53080   0.23118   0.61348   0.00000  Uiso   1.00
H726   H     0.46958   0.05578   0.95274   0.00000  Uiso   1.00
H727   H     0.55097   0.26893   0.54804   0.00000  Uiso   1.00
H728   H     0.37065   0.09066   0.74883   0.00000  Uiso   1.00
H729   H     0.62935   0.24268   0.75113   0.00000  Uiso   1.00
H730   H     0.62939   0.09065   0.74898   0.00000  Uiso   1.00
H731   H     0.37061   0.24268   0.75098   0.00000  Uiso   1.00
H732   H     0.44981   0.04264   0.70533   0.00000  Uiso   1.00
N733   N     0.50000   0.28402   0.75000   0.00000  Uiso   1.00
N734   N     0.50000   0.04931   0.75000   0.00000  Uiso   1.00
N735   N     0.53090   0.24979   0.88695   0.00000  Uiso   1.00
N736   N     0.45794   0.09205   0.61198   0.00000  Uiso   1.00
O737   O     0.43988   0.20625   0.74999   0.00000  Uiso   1.00
O738   O     0.49731   0.01735   0.56787   0.00000  Uiso   1.00
O739   O     0.55540   0.32228   0.97501   0.00000  Uiso   1.00
O740   O     0.59848   0.27322   0.93713   0.00000  Uiso   1.00
O741   O     0.56012   0.12709   0.75000   0.00000  Uiso   1.00
O742   O     0.56012   0.20625   0.75000   0.00000  Uiso   1.00
O743   O     0.43988   0.12709   0.74999   0.00000  Uiso   1.00
O744   O     0.49999   0.20627   0.68513   0.00000  Uiso   1.00
O745   O     0.50001   0.12707   0.81487   0.00000  Uiso   1.00
O746   O     0.50001   0.20627   0.81487   0.00000  Uiso   1.00
O747   O     0.49999   0.12707   0.68513   0.00000  Uiso   1.00
O748   O     0.44059   0.01358   0.52386   0.00000  Uiso   1.00
C749   C     0.75400   0.16667   0.74994   0.00000  Uiso   1.00
C750   C     0.70940   0.16667   0.74992   0.00000  Uiso   1.00
C751   C     0.80550   0.02431   0.72513   0.00000  Uiso   1.00
C752   C     0.86113   0.30903   0.77491   0.00000  Uiso   1.00
C753   C     0.86111   0.02534   0.77494   0.00000  Uiso   1.00
C754   C     0.80554   0.30799   0.72507   0.00000  Uiso   1.00
C755   C     0.83250   0.16606   0.66430   0.00000  Uiso   1.00
C756   C     0.83467   0.16725   0.83578   0.00000  Uiso   1.00
C757   C     0.85325   0.20741   0.90884   0.00000  Uiso   1.00
C758   C     0.81744   0.12569   0.59120   0.00000  Uiso   1.00
C759   C     0.83749   0.16824   0.88435   0.00000  Uiso   1.00
C760   C     0.91267   0.16666   0.75004   0.00000  Uiso   1.00
C761   C     0.83353   0.16434   0.61590   0.00000  Uiso   1.00
C762   C     0.82491   0.12815   0.90626   0.00000  Uiso   1.00
C763   C     0.85179   0.20173   0.59439   0.00000  Uiso   1.00
C764   C     0.82585   0.12649   0.95197   0.00000  Uiso   1.00
C765   C     0.85404   0.20198   0.54862   0.00000  Uiso   1.00
C766   C     0.84098   0.16495   0.97697   0.00000  Uiso   1.00
C767   C     0.83962   0.16326   0.52349   0.00000  Uiso   1.00
C768   C     0.85679   0.20521   0.95556   0.00000  Uiso   1.00
C769   C     0.82319   0.12332   0.54482   0.00000  Uiso   1.00
C770   C     0.81226   0.08606   0.97267   0.00000  Uiso   1.00
C771   C     0.81196   0.08323   0.51863   0.00000  Uiso   1.00
C772   C     0.87154   0.24041   0.52802   0.00000  Uiso   1.00
C773   C     0.80353   0.03639   0.53707   0.00000  Uiso   1.00
C774   C     0.89784   0.28198   0.96433   0.00000  Uiso   1.00
C775   C     0.87414   0.24222   0.98209   0.00000  Uiso   1.00
C776   C     0.68796   0.12401   0.74935   0.00000  Uiso   1.00
C777   C     0.97871   0.20933   0.75061   0.00000  Uiso   1.00
C778   C     0.97873   0.12400   0.74943   0.00000  Uiso   1.00
C779   C     0.68794   0.20933   0.75053   0.00000  Uiso   1.00
C780   C     0.95727   0.16666   0.75005   0.00000  Uiso   1.00
Cu781  Cu    0.83333   0.21355   0.75000   0.00000  Uiso   1.00
Cu782  Cu    0.83333   0.11978   0.75000   0.00000  Uiso   1.00
H783   H     0.81311   0.09814   0.88755   0.00000  Uiso   1.00
H784   H     0.88344   0.29072   0.79476   0.00000  Uiso   1.00
H785   H     0.88332   0.04450   0.79495   0.00000  Uiso   1.00
H786   H     0.78333   0.28883   0.70507   0.00000  Uiso   1.00
H787   H     0.88646   0.24235   0.86290   0.00000  Uiso   1.00
H788   H     0.83801   0.26473   0.87296   0.00000  Uiso   1.00
H789   H     0.80885   0.07105   0.63267   0.00000  Uiso   1.00
H790   H     0.76874   0.10971   0.63049   0.00000  Uiso   1.00
H791   H     0.82170   0.31850   0.57786   0.00000  Uiso   1.00
H792   H     0.94577   0.30313   0.92750   0.00000  Uiso   1.00
H793   H     0.86413   0.23118   0.61348   0.00000  Uiso   1.00
H794   H     0.80292   0.05578   0.95274   0.00000  Uiso   1.00
H795   H     0.88430   0.26893   0.54804   0.00000  Uiso   1.00
H796   H     0.70398   0.09066   0.74883   0.00000  Uiso   1.00
H797   H     0.96268   0.24268   0.75113   0.00000  Uiso   1.00
H798   H     0.96272   0.09065   0.74898   0.00000  Uiso   1.00
H799   H     0.70394   0.24268   0.75098   0.00000  Uiso   1.00
H800   H     0.78314   0.04264   0.70533   0.00000  Uiso   1.00
N801   N     0.83333   0.28402   0.75000   0.00000  Uiso   1.00
N802   N     0.83333   0.04931   0.75000   0.00000  Uiso   1.00
N803   N     0.86424   0.24979   0.88695   0.00000  Uiso   1.00
N804   N     0.79127   0.09205   0.61198   0.00000  Uiso   1.00
O805   O     0.77321   0.20625   0.74999   0.00000  Uiso   1.00
O806   O     0.83065   0.01735   0.56787   0.00000  Uiso   1.00
O807   O     0.88873   0.32228   0.97501   0.00000  Uiso   1.00
O808   O     0.93181   0.27322   0.93713   0.00000  Uiso   1.00
O809   O     0.89345   0.12709   0.75000   0.00000  Uiso   1.00
O810   O     0.89345   0.20625   0.75000   0.00000  Uiso   1.00
O811   O     0.77321   0.12709   0.74999   0.00000  Uiso   1.00
O812   O     0.83332   0.20627   0.68513   0.00000  Uiso   1.00
O813   O     0.83334   0.12707   0.81487   0.00000  Uiso   1.00
O814   O     0.83334   0.20627   0.81487   0.00000  Uiso   1.00
O815   O     0.83332   0.12707   0.68513   0.00000  Uiso   1.00
O816   O     0.77393   0.01358   0.52386   0.00000  Uiso   1.00
C817   C     0.08733   0.50000   0.74994   0.00000  Uiso   1.00
C818   C     0.04273   0.50000   0.74992   0.00000  Uiso   1.00
C819   C     0.13884   0.35764   0.72513   0.00000  Uiso   1.00
C820   C     0.19446   0.64236   0.77491   0.00000  Uiso   1.00
C821   C     0.19444   0.35868   0.77494   0.00000  Uiso   1.00
C822   C     0.13888   0.64132   0.72507   0.00000  Uiso   1.00
C823   C     0.16583   0.49940   0.66430   0.00000  Uiso   1.00
C824   C     0.16800   0.50059   0.83578   0.00000  Uiso   1.00
C825   C     0.18658   0.54074   0.90884   0.00000  Uiso   1.00
C826   C     0.15077   0.45902   0.59120   0.00000  Uiso   1.00
C827   C     0.17083   0.50157   0.88435   0.00000  Uiso   1.00
C828   C     0.24600   0.50000   0.75004   0.00000  Uiso   1.00
C829   C     0.16687   0.49767   0.61590   0.00000  Uiso   1.00
C830   C     0.15824   0.46148   0.90626   0.00000  Uiso   1.00
C831   C     0.18512   0.53507   0.59439   0.00000  Uiso   1.00
C832   C     0.15918   0.45983   0.95197   0.00000  Uiso   1.00
C833   C     0.18737   0.53532   0.54862   0.00000  Uiso   1.00
C834   C     0.17432   0.49829   0.97697   0.00000  Uiso   1.00
C835   C     0.17295   0.49659   0.52349   0.00000  Uiso   1.00
C836   C     0.19013   0.53854   0.95556   0.00000  Uiso   1.00
C837   C     0.15652   0.45665   0.54482   0.00000  Uiso   1.00
C838   C     0.14560   0.41939   0.97267   0.00000  Uiso   1.00
C839   C     0.14529   0.41656   0.51863   0.00000  Uiso   1.00
C840   C     0.20488   0.57374   0.52802   0.00000  Uiso   1.00
C841   C     0.13686   0.36972   0.53707   0.00000  Uiso   1.00
C842   C     0.23117   0.61532   0.96433   0.00000  Uiso   1.00
C843   C     0.20748   0.57556   0.98209   0.00000  Uiso   1.00
C844   C     0.02129   0.45734   0.74935   0.00000  Uiso   1.00
C845   C     0.31204   0.54266   0.75061   0.00000  Uiso   1.00
C846   C     0.31206   0.45734   0.74943   0.00000  Uiso   1.00
C847   C     0.02127   0.54266   0.75053   0.00000  Uiso   1.00
C848   C     0.29060   0.50000   0.75005   0.00000  Uiso   1.00
Cu849  Cu    0.16667   0.54689   0.75000   0.00000  Uiso   1.00
Cu850  Cu    0.16667   0.45311   0.75000   0.00000  Uiso   1.00
H851   H     0.14645   0.43148   0.88755   0.00000  Uiso   1.00
H852   H     0.21677   0.62405   0.79476   0.00000  Uiso   1.00
H853   H     0.21666   0.37784   0.79495   0.00000  Uiso   1.00
H854   H     0.11666   0.62217   0.70507   0.00000  Uiso   1.00
H855   H     0.21979   0.57569   0.86290   0.00000  Uiso   1.00
H856   H     0.17134   0.59806   0.87296   0.00000  Uiso   1.00
H857   H     0.14218   0.40439   0.63267   0.00000  Uiso   1.00
H858   H     0.10207   0.44304   0.63049   0.00000  Uiso   1.00
H859   H     0.15504   0.65184   0.57786   0.00000  Uiso   1.00
H860   H     0.27910   0.63646   0.92750   0.00000  Uiso   1.00
H861   H     0.19746   0.56451   0.61348   0.00000  Uiso   1.00
H862   H     0.13625   0.38912   0.95274   0.00000  Uiso   1.00
H863   H     0.21763   0.60226   0.54804   0.00000  Uiso   1.00
H864   H     0.03732   0.42399   0.74883   0.00000  Uiso   1.00
H865   H     0.29601   0.57601   0.75113   0.00000  Uiso   1.00
H866   H     0.29606   0.42399   0.74898   0.00000  Uiso   1.00
H867   H     0.03727   0.57601   0.75098   0.00000  Uiso   1.00
H868   H     0.11648   0.37597   0.70533   0.00000  Uiso   1.00
N869   N     0.16667   0.61736   0.75000   0.00000  Uiso   1.00
N870   N     0.16667   0.38264   0.75000   0.00000  Uiso   1.00
N871   N     0.19757   0.58313   0.88695   0.00000  Uiso   1.00
N872   N     0.12460   0.42538   0.61198   0.00000  Uiso   1.00
O873   O     0.10655   0.53958   0.74999   0.00000  Uiso   1.00
O874   O     0.16398   0.35068   0.56787   0.00000  Uiso   1.00
O875   O     0.22207   0.65561   0.97501   0.00000  Uiso   1.00
O876   O     0.26514   0.60655   0.93713   0.00000  Uiso   1.00
O877   O     0.22679   0.46042   0.75000   0.00000  Uiso   1.00
O878   O     0.22679   0.53958   0.75000   0.00000  Uiso   1.00
O879   O     0.10655   0.46042   0.74999   0.00000  Uiso   1.00
O880   O     0.16666   0.53960   0.68513   0.00000  Uiso   1.00
O881   O     0.16668   0.46040   0.81487   0.00000  Uiso   1.00
O882   O     0.16668   0.53960   0.81487   0.00000  Uiso   1.00
O883   O     0.16666   0.46040   0.68513   0.00000  Uiso   1.00
O884   O     0.10726   0.34691   0.52386   0.00000  Uiso   1.00
C885   C     0.42067   0.50000   0.74994   0.00000  Uiso   1.00
C886   C     0.37606   0.50000   0.74992   0.00000  Uiso   1.00
C887   C     0.47217   0.35764   0.72513   0.00000  Uiso   1.00
C888   C     0.52780   0.64236   0.77491   0.00000  Uiso   1.00
C889   C     0.52778   0.35868   0.77494   0.00000  Uiso   1.00
C890   C     0.47221   0.64132   0.72507   0.00000  Uiso   1.00
C891   C     0.49917   0.49940   0.66430   0.00000  Uiso   1.00
C892   C     0.50133   0.50059   0.83578   0.00000  Uiso   1.00
C893   C     0.51991   0.54074   0.90884   0.00000  Uiso   1.00
C894   C     0.48411   0.45902   0.59120   0.00000  Uiso   1.00
C895   C     0.50416   0.50157   0.88435   0.00000  Uiso   1.00
C896   C     0.57933   0.50000   0.75004   0.00000  Uiso   1.00
C897   C     0.50020   0.49767   0.61590   0.00000  Uiso   1.00
C898   C     0.49157   0.46148   0.90626   0.00000  Uiso   1.00
C899   C     0.51846   0.53507   0.59439   0.00000  Uiso   1.00
C900   C     0.49252   0.45983   0.95197   0.00000  Uiso   1.00
C901   C     0.52070   0.53532   0.54862   0.00000  Uiso   1.00
C902   C     0.50765   0.49829   0.97697   0.00000  Uiso   1.00
C903   C     0.50628   0.49659   0.52349   0.00000  Uiso   1.00
C904   C     0.52346   0.53854   0.95556   0.00000  Uiso   1.00
C905   C     0.48985   0.45665   0.54482   0.00000  Uiso   1.00
C906   C     0.47893   0.41939   0.97267   0.00000  Uiso   1.00
C907   C     0.47862   0.41656   0.51863   0.00000  Uiso   1.00
C908   C     0.53821   0.57374   0.52802   0.00000  Uiso   1.00
C909   C     0.47019   0.36972   0.53707   0.00000  Uiso   1.00
C910   C     0.56451   0.61532   0.96433   0.00000  Uiso   1.00
C911   C     0.54081   0.57556   0.98209   0.00000  Uiso   1.00
C912   C     0.35463   0.45734   0.74935   0.00000  Uiso   1.00
C913   C     0.64537   0.54266   0.75061   0.00000  Uiso   1.00
C914   C     0.64540   0.45734   0.74943   0.00000  Uiso   1.00
C915   C     0.35460   0.54266   0.75053   0.00000  Uiso   1.00
C916   C     0.62394   0.50000   0.75005   0.00000  Uiso   1.00
Cu917  Cu    0.50000   0.54689   0.75000   0.00000  Uiso   1.00
Cu918  Cu    0.50000   0.45311   0.75000   0.00000  Uiso   1.00
H919   H     0.47978   0.43148   0.88755   0.00000  Uiso   1.00
H920   H     0.55011   0.62405   0.79476   0.00000  Uiso   1.00
H921   H     0.54999   0.37784   0.79495   0.00000  Uiso   1.00
H922   H     0.44999   0.62217   0.70507   0.00000  Uiso   1.00
H923   H     0.55313   0.57569   0.86290   0.00000  Uiso   1.00
H924   H     0.50467   0.59806   0.87296   0.00000  Uiso   1.00
H925   H     0.47552   0.40439   0.63267   0.00000  Uiso   1.00
H926   H     0.43541   0.44304   0.63049   0.00000  Uiso   1.00
H927   H     0.48837   0.65184   0.57786   0.00000  Uiso   1.00
H928   H     0.61243   0.63646   0.92750   0.00000  Uiso   1.00
H929   H     0.53080   0.56451   0.61348   0.00000  Uiso   1.00
H930   H     0.46958   0.38912   0.95274   0.00000  Uiso   1.00
H931   H     0.55097   0.60226   0.54804   0.00000  Uiso   1.00
H932   H     0.37065   0.42399   0.74883   0.00000  Uiso   1.00
H933   H     0.62935   0.57601   0.75113   0.00000  Uiso   1.00
H934   H     0.62939   0.42399   0.74898   0.00000  Uiso   1.00
H935   H     0.37061   0.57601   0.75098   0.00000  Uiso   1.00
H936   H     0.44981   0.37597   0.70533   0.00000  Uiso   1.00
N937   N     0.50000   0.61736   0.75000   0.00000  Uiso   1.00
N938   N     0.50000   0.38264   0.75000   0.00000  Uiso   1.00
N939   N     0.53090   0.58313   0.88695   0.00000  Uiso   1.00
N940   N     0.45794   0.42538   0.61198   0.00000  Uiso   1.00
O941   O     0.43988   0.53958   0.74999   0.00000  Uiso   1.00
O942   O     0.49731   0.35068   0.56787   0.00000  Uiso   1.00
O943   O     0.55540   0.65561   0.97501   0.00000  Uiso   1.00
O944   O     0.59848   0.60655   0.93713   0.00000  Uiso   1.00
O945   O     0.56012   0.46042   0.75000   0.00000  Uiso   1.00
O946   O     0.56012   0.53958   0.75000   0.00000  Uiso   1.00
O947   O     0.43988   0.46042   0.74999   0.00000  Uiso   1.00
O948   O     0.49999   0.53960   0.68513   0.00000  Uiso   1.00
O949   O     0.50001   0.46040   0.81487   0.00000  Uiso   1.00
O950   O     0.50001   0.53960   0.81487   0.00000  Uiso   1.00
O951   O     0.49999   0.46040   0.68513   0.00000  Uiso   1.00
O952   O     0.44059   0.34691   0.52386   0.00000  Uiso   1.00
C953   C     0.75400   0.50000   0.74994   0.00000  Uiso   1.00
C954   C     0.70940   0.50000   0.74992   0.00000  Uiso   1.00
C955   C     0.80550   0.35764   0.72513   0.00000  Uiso   1.00
C956   C     0.86113   0.64236   0.77491   0.00000  Uiso   1.00
C957   C     0.86111   0.35868   0.77494   0.00000  Uiso   1.00
C958   C     0.80554   0.64132   0.72507   0.00000  Uiso   1.00
C959   C     0.83250   0.49940   0.66430   0.00000  Uiso   1.00
C960   C     0.83467   0.50059   0.83578   0.00000  Uiso   1.00
C961   C     0.85325   0.54074   0.90884   0.00000  Uiso   1.00
C962   C     0.81744   0.45902   0.59120   0.00000  Uiso   1.00
C963   C     0.83749   0.50157   0.88435   0.00000  Uiso   1.00
C964   C     0.91267   0.50000   0.75004   0.00000  Uiso   1.00
C965   C     0.83353   0.49767   0.61590   0.00000  Uiso   1.00
C966   C     0.82491   0.46148   0.90626   0.00000  Uiso   1.00
C967   C     0.85179   0.53507   0.59439   0.00000  Uiso   1.00
C968   C     0.82585   0.45983   0.95197   0.00000  Uiso   1.00
C969   C     0.85404   0.53532   0.54862   0.00000  Uiso   1.00
C970   C     0.84098   0.49829   0.97697   0.00000  Uiso   1.00
C971   C     0.83962   0.49659   0.52349   0.00000  Uiso   1.00
C972   C     0.85679   0.53854   0.95556   0.00000  Uiso   1.00
C973   C     0.82319   0.45665   0.54482   0.00000  Uiso   1.00
C974   C     0.81226   0.41939   0.97267   0.00000  Uiso   1.00
C975   C     0.81196   0.41656   0.51863   0.00000  Uiso   1.00
C976   C     0.87154   0.57374   0.52802   0.00000  Uiso   1.00
C977   C     0.80353   0.36972   0.53707   0.00000  Uiso   1.00
C978   C     0.89784   0.61532   0.96433   0.00000  Uiso   1.00
C979   C     0.87414   0.57556   0.98209   0.00000  Uiso   1.00
C980   C     0.68796   0.45734   0.74935   0.00000  Uiso   1.00
C981   C     0.97871   0.54266   0.75061   0.00000  Uiso   1.00
C982   C     0.97873   0.45734   0.74943   0.00000  Uiso   1.00
C983   C     0.68794   0.54266   0.75053   0.00000  Uiso   1.00
C984   C     0.95727   0.50000   0.75005   0.00000  Uiso   1.00
Cu985  Cu    0.83333   0.54689   0.75000   0.00000  Uiso   1.00
Cu986  Cu    0.83333   0.45311   0.75000   0.00000  Uiso   1.00
H987   H     0.81311   0.43148   0.88755   0.00000  Uiso   1.00
H988   H     0.88344   0.62405   0.79476   0.00000  Uiso   1.00
H989   H     0.88332   0.37784   0.79495   0.00000  Uiso   1.00
H990   H     0.78333   0.62217   0.70507   0.00000  Uiso   1.00
H991   H     0.88646   0.57569   0.86290   0.00000  Uiso   1.00
H992   H     0.83801   0.59806   0.87296   0.00000  Uiso   1.00
H993   H     0.80885   0.40439   0.63267   0.00000  Uiso   1.00
H994   H     0.76874   0.44304   0.63049   0.00000  Uiso   1.00
H995   H     0.82170   0.65184   0.57786   0.00000  Uiso   1.00
H996   H     0.94577   0.63646   0.92750   0.00000  Uiso   1.00
H997   H     0.86413   0.56451   0.61348   0.00000  Uiso   1.00
H998   H     0.80292   0.38912   0.95274   0.00000  Uiso   1.00
H999   H     0.88430   0.60226   0.54804   0.00000  Uiso   1.00
H1000  H     0.70398   0.42399   0.74883   0.00000  Uiso   1.00
H1001  H     0.96268   0.57601   0.75113   0.00000  Uiso   1.00
H1002  H     0.96272   0.42399   0.74898   0.00000  Uiso   1.00
H1003  H     0.70394   0.57601   0.75098   0.00000  Uiso   1.00
H1004  H     0.78314   0.37597   0.70533   0.00000  Uiso   1.00
N1005  N     0.83333   0.61736   0.75000   0.00000  Uiso   1.00
N1006  N     0.83333   0.38264   0.75000   0.00000  Uiso   1.00
N1007  N     0.86424   0.58313   0.88695   0.00000  Uiso   1.00
N1008  N     0.79127   0.42538   0.61198   0.00000  Uiso   1.00
O1009  O     0.77321   0.53958   0.74999   0.00000  Uiso   1.00
O1010  O     0.83065   0.35068   0.56787   0.00000  Uiso   1.00
O1011  O     0.88873   0.65561   0.97501   0.00000  Uiso   1.00
O1012  O     0.93181   0.60655   0.93713   0.00000  Uiso   1.00
O1013  O     0.89345   0.46042   0.75000   0.00000  Uiso   1.00
O1014  O     0.89345   0.53958   0.75000   0.00000  Uiso   1.00
O1015  O     0.77321   0.46042   0.74999   0.00000  Uiso   1.00
O1016  O     0.83332   0.53960   0.68513   0.00000  Uiso   1.00
O1017  O     0.83334   0.46040   0.81487   0.00000  Uiso   1.00
O1018  O     0.83334   0.53960   0.81487   0.00000  Uiso   1.00
O1019  O     0.83332   0.46040   0.68513   0.00000  Uiso   1.00
O1020  O     0.77393   0.34691   0.52386   0.00000  Uiso   1.00
C1021  C     0.08733   0.83334   0.74994   0.00000  Uiso   1.00
C1022  C     0.04273   0.83334   0.74992   0.00000  Uiso   1.00
C1023  C     0.13884   0.69098   0.72513   0.00000  Uiso   1.00
C1024  C     0.19446   0.97569   0.77491   0.00000  Uiso   1.00
C1025  C     0.19444   0.69201   0.77494   0.00000  Uiso   1.00
C1026  C     0.13888   0.97466   0.72507   0.00000  Uiso   1.00
C1027  C     0.16583   0.83273   0.66430   0.00000  Uiso   1.00
C1028  C     0.16800   0.83392   0.83578   0.00000  Uiso   1.00
C1029  C     0.18658   0.87408   0.90884   0.00000  Uiso   1.00
C1030  C     0.15077   0.79236   0.59120   0.00000  Uiso   1.00
C1031  C     0.17083   0.83491   0.88435   0.00000  Uiso   1.00
C1032  C     0.24600   0.83333   0.75004   0.00000  Uiso   1.00
C1033  C     0.16687   0.83100   0.61590   0.00000  Uiso   1.00
C1034  C     0.15824   0.79481   0.90626   0.00000  Uiso   1.00
C1035  C     0.18512   0.86840   0.59439   0.00000  Uiso   1.00
C1036  C     0.15918   0.79316   0.95197   0.00000  Uiso   1.00
C1037  C     0.18737   0.86865   0.54862   0.00000  Uiso   1.00
C1038  C     0.17432   0.83162   0.97697   0.00000  Uiso   1.00
C1039  C     0.17295   0.82992   0.52349   0.00000  Uiso   1.00
C1040  C     0.19013   0.87187   0.95556   0.00000  Uiso   1.00
C1041  C     0.15652   0.78998   0.54482   0.00000  Uiso   1.00
C1042  C     0.14560   0.75273   0.97267   0.00000  Uiso   1.00
C1043  C     0.14529   0.74989   0.51863   0.00000  Uiso   1.00
C1044  C     0.20488   0.90707   0.52802   0.00000  Uiso   1.00
C1045  C     0.13686   0.70305   0.53707   0.00000  Uiso   1.00
C1046  C     0.23117   0.94865   0.96433   0.00000  Uiso   1.00
C1047  C     0.20748   0.90889   0.98209   0.00000  Uiso   1.00
C1048  C     0.02129   0.79067   0.74935   0.00000  Uiso   1.00
C1049  C     0.31204   0.87599   0.75061   0.00000  Uiso   1.00
C1050  C     0.31206   0.79067   0.74943   0.00000  Uiso   1.00
C1051  C     0.02127   0.87600   0.75053   0.00000  Uiso   1.00
C1052  C     0.29060   0.83333   0.75005   0.00000  Uiso   1.00
Cu1053 Cu    0.16667   0.88022   0.75000   0.00000  Uiso   1.00
Cu1054 Cu    0.16667   0.78645   0.75000   0.00000  Uiso   1.00
H1055  H     0.14645   0.76481   0.88755   0.00000  Uiso   1.00
H1056  H     0.21677   0.95738   0.79476   0.00000  Uiso   1.00
H1057  H     0.21666   0.71117   0.79495   0.00000  Uiso   1.00
H1058  H     0.11666   0.95550   0.70507   0.00000  Uiso   1.00
H1059  H     0.21979   0.90902   0.86290   0.00000  Uiso   1.00
H1060  H     0.17134   0.93140   0.87296   0.00000  Uiso   1.00
H1061  H     0.14218   0.73772   0.63267   0.00000  Uiso   1.00
H1062  H     0.10207   0.77638   0.63049   0.00000  Uiso   1.00
H1063  H     0.15504   0.98517   0.57786   0.00000  Uiso   1.00
H1064  H     0.27910   0.96980   0.92750   0.00000  Uiso   1.00
H1065  H     0.19746   0.89784   0.61348   0.00000  Uiso   1.00
H1066  H     0.13625   0.72245   0.95274   0.00000  Uiso   1.00
H1067  H     0.21763   0.93560   0.54804   0.00000  Uiso   1.00
H1068  H     0.03732   0.75732   0.74883   0.00000  Uiso   1.00
H1069  H     0.29601   0.90934   0.75113   0.00000  Uiso   1.00
H1070  H     0.29606   0.75732   0.74898   0.00000  Uiso   1.00
H1071  H     0.03727   0.90935   0.75098   0.00000  Uiso   1.00
H1072  H     0.11648   0.70931   0.70533   0.00000  Uiso   1.00
N1073  N     0.16667   0.95069   0.75000   0.00000  Uiso   1.00
N1074  N     0.16667   0.71598   0.75000   0.00000  Uiso   1.00
N1075  N     0.19757   0.91646   0.88695   0.00000  Uiso   1.00
N1076  N     0.12460   0.75871   0.61198   0.00000  Uiso   1.00
O1077  O     0.10655   0.87291   0.74999   0.00000  Uiso   1.00
O1078  O     0.16398   0.68402   0.56787   0.00000  Uiso   1.00
O1079  O     0.22207   0.98895   0.97501   0.00000  Uiso   1.00
O1080  O     0.26514   0.93988   0.93713   0.00000  Uiso   1.00
O1081  O     0.22679   0.79375   0.75000   0.00000  Uiso   1.00
O1082  O     0.22679   0.87291   0.75000   0.00000  Uiso   1.00
O1083  O     0.10655   0.79375   0.74999   0.00000  Uiso   1.00
O1084  O     0.16666   0.87293   0.68513   0.00000  Uiso   1.00
O1085  O     0.16668   0.79373   0.81487   0.00000  Uiso   1.00
O1086  O     0.16668   0.87293   0.81487   0.00000  Uiso   1.00
O1087  O     0.16666   0.79373   0.68513   0.00000  Uiso   1.00
O1088  O     0.10726   0.68024   0.52386   0.00000  Uiso   1.00
C1089  C     0.42067   0.83334   0.74994   0.00000  Uiso   1.00
C1090  C     0.37606   0.83334   0.74992   0.00000  Uiso   1.00
C1091  C     0.47217   0.69098   0.72513   0.00000  Uiso   1.00
C1092  C     0.52780   0.97569   0.77491   0.00000  Uiso   1.00
C1093  C     0.52778   0.69201   0.77494   0.00000  Uiso   1.00
C1094  C     0.47221   0.97466   0.72507   0.00000  Uiso   1.00
C1095  C     0.49917   0.83273   0.66430   0.00000  Uiso   1.00
C1096  C     0.50133   0.83392   0.83578   0.00000  Uiso   1.00
C1097  C     0.51991   0.87408   0.90884   0.00000  Uiso   1.00
C1098  C     0.48411   0.79236   0.59120   0.00000  Uiso   1.00
C1099  C     0.50416   0.83491   0.88435   0.00000  Uiso   1.00
C1100  C     0.57933   0.83333   0.75004   0.00000  Uiso   1.00
C1101  C     0.50020   0.83100   0.61590   0.00000  Uiso   1.00
C1102  C     0.49157   0.79481   0.90626   0.00000  Uiso   1.00
C1103  C     0.51846   0.86840   0.59439   0.00000  Uiso   1.00
C1104  C     0.49252   0.79316   0.95197   0.00000  Uiso   1.00
C1105  C     0.52070   0.86865   0.54862   0.00000  Uiso   1.00
C1106  C     0.50765   0.83162   0.97697   0.00000  Uiso   1.00
C1107  C     0.50628   0.82992   0.52349   0.00000  Uiso   1.00
C1108  C     0.52346   0.87187   0.95556   0.00000  Uiso   1.00
C1109  C     0.48985   0.78998   0.54482   0.00000  Uiso   1.00
C1110  C     0.47893   0.75273   0.97267   0.00000  Uiso   1.00
C1111  C     0.47862   0.74989   0.51863   0.00000  Uiso   1.00
C1112  C     0.53821   0.90707   0.52802   0.00000  Uiso   1.00
C1113  C     0.47019   0.70305   0.53707   0.00000  Uiso   1.00
C1114  C     0.56451   0.94865   0.96433   0.00000  Uiso   1.00
C1115  C     0.54081   0.90889   0.98209   0.00000  Uiso   1.00
C1116  C     0.35463   0.79067   0.74935   0.00000  Uiso   1.00
C1117  C     0.64537   0.87599   0.75061   0.00000  Uiso   1.00
C1118  C     0.64540   0.79067   0.74943   0.00000  Uiso   1.00
C1119  C     0.35460   0.87600   0.75053   0.00000  Uiso   1.00
C1120  C     0.62394   0.83333   0.75005   0.00000  Uiso   1.00
Cu1121 Cu    0.50000   0.88022   0.75000   0.00000  Uiso   1.00
Cu1122 Cu    0.50000   0.78645   0.75000   0.00000  Uiso   1.00
H1123  H     0.47978   0.76481   0.88755   0.00000  Uiso   1.00
H1124  H     0.55011   0.95738   0.79476   0.00000  Uiso   1.00
H1125  H     0.54999   0.71117   0.79495   0.00000  Uiso   1.00
H1126  H     0.44999   0.95550   0.70507   0.00000  Uiso   1.00
H1127  H     0.55313   0.90902   0.86290   0.00000  Uiso   1.00
H1128  H     0.50467   0.93140   0.87296   0.00000  Uiso   1.00
H1129  H     0.47552   0.73772   0.63267   0.00000  Uiso   1.00
H1130  H     0.43541   0.77638   0.63049   0.00000  Uiso   1.00
H1131  H     0.48837   0.98517   0.57786   0.00000  Uiso   1.00
H1132  H     0.61243   0.96980   0.92750   0.00000  Uiso   1.00
H1133  H     0.53080   0.89784   0.61348   0.00000  Uiso   1.00
H1134  H     0.46958   0.72245   0.95274   0.00000  Uiso   1.00
H1135  H     0.55097   0.93560   0.54804   0.00000  Uiso   1.00
H1136  H     0.37065   0.75732   0.74883   0.00000  Uiso   1.00
H1137  H     0.62935   0.90934   0.75113   0.00000  Uiso   1.00
H1138  H     0.62939   0.75732   0.74898   0.00000  Uiso   1.00
H1139  H     0.37061   0.90935   0.75098   0.00000  Uiso   1.00
H1140  H     0.44981   0.70931   0.70533   0.00000  Uiso   1.00
N1141  N     0.50000   0.95069   0.75000   0.00000  Uiso   1.00
N1142  N     0.50000   0.71598   0.75000   0.00000  Uiso   1.00
N1143  N     0.53090   0.91646   0.88695   0.00000  Uiso   1.00
N1144  N     0.45794   0.75871   0.61198   0.00000  Uiso   1.00
O1145  O     0.43988   0.87291   0.74999   0.00000  Uiso   1.00
O1146  O     0.49731   0.68402   0.56787   0.00000  Uiso   1.00
O1147  O     0.55540   0.98895   0.97501   0.00000  Uiso   1.00
O1148  O     0.59848   0.93988   0.93713   0.00000  Uiso   1.00
O1149  O     0.56012   0.79375   0.75000   0.00000  Uiso   1.00
O1150  O     0.56012   0.87291   0.75000   0.00000  Uiso   1.00
O1151  O     0.43988   0.79375   0.74999   0.00000  Uiso   1.00
O1152  O     0.49999   0.87293   0.68513   0.00000  Uiso   1.00
O1153  O     0.50001   0.79373   0.81487   0.00000  Uiso   1.00
O1154  O     0.50001   0.87293   0.81487   0.00000  Uiso   1.00
O1155  O     0.49999   0.79373   0.68513   0.00000  Uiso   1.00
O1156  O     0.44059   0.68024   0.52386   0.00000  Uiso   1.00
C1157  C     0.75400   0.83334   0.74994   0.00000  Uiso   1.00
C1158  C     0.70940   0.83334   0.74992   0.00000  Uiso   1.00
C1159  C     0.80550   0.69098   0.72513   0.00000  Uiso   1.00
C1160  C     0.86113   0.97569   0.77491   0.00000  Uiso   1.00
C1161  C     0.86111   0.69201   0.77494   0.00000  Uiso   1.00
C1162  C     0.80554   0.97466   0.72507   0.00000  Uiso   1.00
C1163  C     0.83250   0.83273   0.66430   0.00000  Uiso   1.00
C1164  C     0.83467   0.83392   0.83578   0.00000  Uiso   1.00
C1165  C     0.85325   0.87408   0.90884   0.00000  Uiso   1.00
C1166  C     0.81744   0.79236   0.59120   0.00000  Uiso   1.00
C1167  C     0.83749   0.83491   0.88435   0.00000  Uiso   1.00
C1168  C     0.91267   0.83333   0.75004   0.00000  Uiso   1.00
C1169  C     0.83353   0.83100   0.61590   0.00000  Uiso   1.00
C1170  C     0.82491   0.79481   0.90626   0.00000  Uiso   1.00
C1171  C     0.85179   0.86840   0.59439   0.00000  Uiso   1.00
C1172  C     0.82585   0.79316   0.95197   0.00000  Uiso   1.00
C1173  C     0.85404   0.86865   0.54862   0.00000  Uiso   1.00
C1174  C     0.84098   0.83162   0.97697   0.00000  Uiso   1.00
C1175  C     0.83962   0.82992   0.52349   0.00000  Uiso   1.00
C1176  C     0.85679   0.87187   0.95556   0.00000  Uiso   1.00
C1177  C     0.82319   0.78998   0.54482   0.00000  Uiso   1.00
C1178  C     0.81226   0.75273   0.97267   0.00000  Uiso   1.00
C1179  C     0.81196   0.74989   0.51863   0.00000  Uiso   1.00
C1180  C     0.87154   0.90707   0.52802   0.00000  Uiso   1.00
C1181  C     0.80353   0.70305   0.53707   0.00000  Uiso   1.00
C1182  C     0.89784   0.94865   0.96433   0.00000  Uiso   1.00
C1183  C     0.87414   0.90889   0.98209   0.00000  Uiso   1.00
C1184  C     0.68796   0.79067   0.74935   0.00000  Uiso   1.00
C1185  C     0.97871   0.87599   0.75061   0.00000  Uiso   1.00
C1186  C     0.97873   0.79067   0.74943   0.00000  Uiso   1.00
C1187  C     0.68794   0.87600   0.75053   0.00000  Uiso   1.00
C1188  C     0.95727   0.83333   0.75005   0.00000  Uiso   1.00
Cu1189 Cu    0.83333   0.88022   0.75000   0.00000  Uiso   1.00
Cu1190 Cu    0.83333   0.78645   0.75000   0.00000  Uiso   1.00
H1191  H     0.81311   0.76481   0.88755   0.00000  Uiso   1.00
H1192  H     0.88344   0.95738   0.79476   0.00000  Uiso   1.00
H1193  H     0.88332   0.71117   0.79495   0.00000  Uiso   1.00
H1194  H     0.78333   0.95550   0.70507   0.00000  Uiso   1.00
H1195  H     0.88646   0.90902   0.86290   0.00000  Uiso   1.00
H1196  H     0.83801   0.93140   0.87296   0.00000  Uiso   1.00
H1197  H     0.80885   0.73772   0.63267   0.00000  Uiso   1.00
H1198  H     0.76874   0.77638   0.63049   0.00000  Uiso   1.00
H1199  H     0.82170   0.98517   0.57786   0.00000  Uiso   1.00
H1200  H     0.94577   0.96980   0.92750   0.00000  Uiso   1.00
H1201  H     0.86413   0.89784   0.61348   0.00000  Uiso   1.00
H1202  H     0.80292   0.72245   0.95274   0.00000  Uiso   1.00
H1203  H     0.88430   0.93560   0.54804   0.00000  Uiso   1.00
H1204  H     0.70398   0.75732   0.74883   0.00000  Uiso   1.00
H1205  H     0.96268   0.90934   0.75113   0.00000  Uiso   1.00
H1206  H     0.96272   0.75732   0.74898   0.00000  Uiso   1.00
H1207  H     0.70394   0.90935   0.75098   0.00000  Uiso   1.00
H1208  H     0.78314   0.70931   0.70533   0.00000  Uiso   1.00
N1209  N     0.83333   0.95069   0.75000   0.00000  Uiso   1.00
N1210  N     0.83333   0.71598   0.75000   0.00000  Uiso   1.00
N1211  N     0.86424   0.91646   0.88695   0.00000  Uiso   1.00
N1212  N     0.79127   0.75871   0.61198   0.00000  Uiso   1.00
O1213  O     0.77321   0.87291   0.74999   0.00000  Uiso   1.00
O1214  O     0.83065   0.68402   0.56787   0.00000  Uiso   1.00
O1215  O     0.88873   0.98895   0.97501   0.00000  Uiso   1.00
O1216  O     0.93181   0.93988   0.93713   0.00000  Uiso   1.00
O1217  O     0.89345   0.79375   0.75000   0.00000  Uiso   1.00
O1218  O     0.89345   0.87291   0.75000   0.00000  Uiso   1.00
O1219  O     0.77321   0.79375   0.74999   0.00000  Uiso   1.00
O1220  O     0.83332   0.87293   0.68513   0.00000  Uiso   1.00
O1221  O     0.83334   0.79373   0.81487   0.00000  Uiso   1.00
O1222  O     0.83334   0.87293   0.81487   0.00000  Uiso   1.00
O1223  O     0.83332   0.79373   0.68513   0.00000  Uiso   1.00
O1224  O     0.77393   0.68024   0.52386   0.00000  Uiso   1.00
loop_
_geom_bond_atom_site_label_1
_geom_bond_atom_site_label_2
_geom_bond_distance
_geom_bond_site_symmetry_2
_ccdc_geom_bond_type
C1     O63     1.289   .     A
C1     O57     1.289   .     A
C1     C2      1.450   .     S
C2     C28     1.401   .     A
C2     C31     1.401   .     A
C3     H52     1.081   .     S
C3     N54     1.366   .     A
C3     C414    1.415   1_545 S
C4     N53     1.366   .     A
C4     H36     1.081   .     S
C4     C209    1.415   .     S
C5     H37     1.082   .     S
C5     N54     1.366   .     A
C5     C412    1.415   1_545 S
C6     H38     1.082   .     S
C6     N53     1.367   .     A
C6     C207    1.415   .     S
C7     O64     1.297   .     A
C7     O67     1.289   .     A
C7     C13     1.465   .     S
C8     O66     1.291   .     A
C8     O65     1.298   .     A
C8     C11     1.472   .     S
C9     N55     1.435   .     S
C9     C20     1.420   .     A
C9     C11     1.422   .     A
C10    N56     1.437   .     S
C10    C21     1.416   .     A
C10    C13     1.418   .     A
C11    C14     1.394   .     A
C12    C32     1.450   .     S
C12    O61     1.289   .     A
C12    O62     1.289   .     A
C13    C15     1.393   .     A
C14    C16     1.385   .     A
C14    H35     1.085   .     S
C15    H45     1.085   .     S
C15    C17     1.387   .     A
C16    C18     1.407   .     A
C16    C22     1.395   .     A
C17    C24     1.393   .     A
C17    C19     1.407   .     A
C18    C20     1.425   .     A
C18    C631    1.410   .     S
C19    C21     1.424   .     A
C19    C630    1.410   1_554 S
C20    C27     1.428   .     A
C21    C23     1.424   .     A
C22    H46     1.086   .     S
C22    C635    1.394   .     S
C23    C25     1.483   .     S
C23    C634    1.394   1_554 S
C24    H47     1.086   .     S
C24    C639    1.394   1_554 S
C25    O68     1.223   .     D
C25    O58     1.398   .     S
C26    O59     1.223   .     D
C26    C27     1.481   .     S
C26    O60     1.398   .     S
C27    C636    1.394   .     S
C28    H48     1.083   .     S
C28    C166    1.383   1_455 S
C29    H49     1.083   .     S
C29    C32     1.401   .     A
C29    C99     1.383   .     S
C30    H50     1.083   .     S
C30    C32     1.401   .     A
C30    C96     1.383   .     S
C31    H51     1.083   .     S
C31    C165    1.383   1_455 S
Cu33   Cu34    2.672   .     S
Cu33   O57     1.965   .     S
Cu33   O66     1.978   .     S
Cu33   N53     2.008   .     S
Cu33   O62     1.965   .     S
Cu33   O64     1.969   .     S
Cu34   O67     1.978   .     S
Cu34   O65     1.969   .     S
Cu34   O63     1.965   .     S
Cu34   N54     2.008   .     S
Cu34   O61     1.965   .     S
H39    N55     1.045   .     S
H40    N55     1.045   .     S
H41    N56     1.043   .     S
H42    N56     1.046   .     S
H43    O262    1.014   .     S
H44    O60     1.014   .     S
O58    H451    1.014   1_545 S
C69    O131    1.289   .     A
C69    O125    1.289   .     A
C69    C70     1.450   .     S
C70    C96     1.401   .     A
C70    C99     1.401   .     A
C71    H120    1.081   .     S
C71    N122    1.366   .     A
C71    C482    1.415   1_545 S
C72    N121    1.366   .     A
C72    H104    1.081   .     S
C72    C277    1.415   .     S
C73    H105    1.082   .     S
C73    N122    1.366   .     A
C73    C480    1.415   1_545 S
C74    H106    1.082   .     S
C74    N121    1.367   .     A
C74    C275    1.415   .     S
C75    O132    1.297   .     A
C75    O135    1.289   .     A
C75    C81     1.465   .     S
C76    O134    1.291   .     A
C76    O133    1.298   .     A
C76    C79     1.472   .     S
C77    N123    1.435   .     S
C77    C88     1.420   .     A
C77    C79     1.422   .     A
C78    N124    1.437   .     S
C78    C89     1.416   .     A
C78    C81     1.418   .     A
C79    C82     1.394   .     A
C80    C100    1.450   .     S
C80    O129    1.289   .     A
C80    O130    1.289   .     A
C81    C83     1.393   .     A
C82    C84     1.385   .     A
C82    H103    1.085   .     S
C83    H113    1.085   .     S
C83    C85     1.387   .     A
C84    C86     1.407   .     A
C84    C90     1.395   .     A
C85    C92     1.393   .     A
C85    C87     1.407   .     A
C86    C88     1.425   .     A
C86    C699    1.410   .     S
C87    C89     1.424   .     A
C87    C698    1.410   1_554 S
C88    C95     1.428   .     A
C89    C91     1.424   .     A
C90    H114    1.086   .     S
C90    C703    1.394   .     S
C91    C93     1.483   .     S
C91    C702    1.394   1_554 S
C92    H115    1.086   .     S
C92    C707    1.394   1_554 S
C93    O136    1.223   .     D
C93    O126    1.398   .     S
C94    O127    1.223   .     D
C94    C95     1.481   .     S
C94    O128    1.398   .     S
C95    C704    1.394   .     S
C96    H116    1.083   .     S
C97    H117    1.083   .     S
C97    C100    1.401   .     A
C97    C167    1.383   .     S
C98    H118    1.083   .     S
C98    C100    1.401   .     A
C98    C164    1.383   .     S
C99    H119    1.083   .     S
Cu101  Cu102   2.672   .     S
Cu101  O125    1.965   .     S
Cu101  O134    1.978   .     S
Cu101  N121    2.008   .     S
Cu101  O130    1.965   .     S
Cu101  O132    1.969   .     S
Cu102  O135    1.978   .     S
Cu102  O133    1.969   .     S
Cu102  O131    1.965   .     S
Cu102  N122    2.008   .     S
Cu102  O129    1.965   .     S
H107   N123    1.045   .     S
H108   N123    1.045   .     S
H109   N124    1.043   .     S
H110   N124    1.046   .     S
H111   O330    1.014   .     S
H112   O128    1.014   .     S
O126   H519    1.014   1_545 S
C137   O199    1.289   .     A
C137   O193    1.289   .     A
C137   C138    1.450   .     S
C138   C164    1.401   .     A
C138   C167    1.401   .     A
C139   H188    1.081   .     S
C139   N190    1.366   .     A
C139   C550    1.415   1_545 S
C140   N189    1.366   .     A
C140   H172    1.081   .     S
C140   C345    1.415   .     S
C141   H173    1.082   .     S
C141   N190    1.366   .     A
C141   C548    1.415   1_545 S
C142   H174    1.082   .     S
C142   N189    1.367   .     A
C142   C343    1.415   .     S
C143   O200    1.297   .     A
C143   O203    1.289   .     A
C143   C149    1.465   .     S
C144   O202    1.291   .     A
C144   O201    1.298   .     A
C144   C147    1.472   .     S
C145   N191    1.435   .     S
C145   C156    1.420   .     A
C145   C147    1.422   .     A
C146   N192    1.437   .     S
C146   C157    1.416   .     A
C146   C149    1.418   .     A
C147   C150    1.394   .     A
C148   C168    1.450   .     S
C148   O197    1.289   .     A
C148   O198    1.289   .     A
C149   C151    1.393   .     A
C150   C152    1.385   .     A
C150   H171    1.085   .     S
C151   H181    1.085   .     S
C151   C153    1.387   .     A
C152   C154    1.407   .     A
C152   C158    1.395   .     A
C153   C160    1.393   .     A
C153   C155    1.407   .     A
C154   C156    1.425   .     A
C154   C767    1.410   .     S
C155   C157    1.424   .     A
C155   C766    1.410   1_554 S
C156   C163    1.428   .     A
C157   C159    1.424   .     A
C158   H182    1.086   .     S
C158   C771    1.394   .     S
C159   C161    1.483   .     S
C159   C770    1.394   1_554 S
C160   H183    1.086   .     S
C160   C775    1.394   1_554 S
C161   O204    1.223   .     D
C161   O194    1.398   .     S
C162   O195    1.223   .     D
C162   C163    1.481   .     S
C162   O196    1.398   .     S
C163   C772    1.394   .     S
C164   H184    1.083   .     S
C165   H185    1.083   .     S
C165   C168    1.401   .     A
C165   C31     1.383   1_655 S
C166   H186    1.083   .     S
C166   C168    1.401   .     A
C166   C28     1.383   1_655 S
C167   H187    1.083   .     S
Cu169  Cu170   2.672   .     S
Cu169  O193    1.965   .     S
Cu169  O202    1.978   .     S
Cu169  N189    2.008   .     S
Cu169  O198    1.965   .     S
Cu169  O200    1.969   .     S
Cu170  O203    1.978   .     S
Cu170  O201    1.969   .     S
Cu170  O199    1.965   .     S
Cu170  N190    2.008   .     S
Cu170  O197    1.965   .     S
H175   N191    1.045   .     S
H176   N191    1.045   .     S
H177   N192    1.043   .     S
H178   N192    1.046   .     S
H179   O398    1.014   .     S
H180   O196    1.014   .     S
O194   H587    1.014   1_545 S
C205   O267    1.289   .     A
C205   O261    1.289   .     A
C205   C206    1.450   .     S
C206   C232    1.401   .     A
C206   C235    1.401   .     A
C207   H256    1.081   .     S
C207   N258    1.366   .     A
C208   N257    1.366   .     A
C208   H240    1.081   .     S
C208   C413    1.415   .     S
C209   H241    1.082   .     S
C209   N258    1.366   .     A
C210   H242    1.082   .     S
C210   N257    1.367   .     A
C210   C411    1.415   .     S
C211   O268    1.297   .     A
C211   O271    1.289   .     A
C211   C217    1.465   .     S
C212   O270    1.291   .     A
C212   O269    1.298   .     A
C212   C215    1.472   .     S
C213   N259    1.435   .     S
C213   C224    1.420   .     A
C213   C215    1.422   .     A
C214   N260    1.437   .     S
C214   C225    1.416   .     A
C214   C217    1.418   .     A
C215   C218    1.394   .     A
C216   C236    1.450   .     S
C216   O265    1.289   .     A
C216   O266    1.289   .     A
C217   C219    1.393   .     A
C218   C220    1.385   .     A
C218   H239    1.085   .     S
C219   H249    1.085   .     S
C219   C221    1.387   .     A
C220   C222    1.407   .     A
C220   C226    1.395   .     A
C221   C228    1.393   .     A
C221   C223    1.407   .     A
C222   C224    1.425   .     A
C222   C835    1.410   .     S
C223   C225    1.424   .     A
C223   C834    1.410   1_554 S
C224   C231    1.428   .     A
C225   C227    1.424   .     A
C226   H250    1.086   .     S
C226   C839    1.394   .     S
C227   C229    1.483   .     S
C227   C838    1.394   1_554 S
C228   H251    1.086   .     S
C228   C843    1.394   1_554 S
C229   O272    1.223   .     D
C229   O262    1.398   .     S
C230   O263    1.223   .     D
C230   C231    1.481   .     S
C230   O264    1.398   .     S
C231   C840    1.394   .     S
C232   H252    1.083   .     S
C232   C370    1.383   1_455 S
C233   H253    1.083   .     S
C233   C236    1.401   .     A
C233   C303    1.383   .     S
C234   H254    1.083   .     S
C234   C236    1.401   .     A
C234   C300    1.383   .     S
C235   H255    1.083   .     S
C235   C369    1.383   1_455 S
Cu237  Cu238   2.672   .     S
Cu237  O261    1.965   .     S
Cu237  O270    1.978   .     S
Cu237  N257    2.008   .     S
Cu237  O266    1.965   .     S
Cu237  O268    1.969   .     S
Cu238  O271    1.978   .     S
Cu238  O269    1.969   .     S
Cu238  O267    1.965   .     S
Cu238  N258    2.008   .     S
Cu238  O265    1.965   .     S
H243   N259    1.045   .     S
H244   N259    1.045   .     S
H245   N260    1.043   .     S
H246   N260    1.046   .     S
H247   O466    1.014   .     S
H248   O264    1.014   .     S
C273   O335    1.289   .     A
C273   O329    1.289   .     A
C273   C274    1.450   .     S
C274   C300    1.401   .     A
C274   C303    1.401   .     A
C275   H324    1.081   .     S
C275   N326    1.366   .     A
C276   N325    1.366   .     A
C276   H308    1.081   .     S
C276   C481    1.415   .     S
C277   H309    1.082   .     S
C277   N326    1.366   .     A
C278   H310    1.082   .     S
C278   N325    1.367   .     A
C278   C479    1.415   .     S
C279   O336    1.297   .     A
C279   O339    1.289   .     A
C279   C285    1.465   .     S
C280   O338    1.291   .     A
C280   O337    1.298   .     A
C280   C283    1.472   .     S
C281   N327    1.435   .     S
C281   C292    1.420   .     A
C281   C283    1.422   .     A
C282   N328    1.437   .     S
C282   C293    1.416   .     A
C282   C285    1.418   .     A
C283   C286    1.394   .     A
C284   C304    1.450   .     S
C284   O333    1.289   .     A
C284   O334    1.289   .     A
C285   C287    1.393   .     A
C286   C288    1.385   .     A
C286   H307    1.085   .     S
C287   H317    1.085   .     S
C287   C289    1.387   .     A
C288   C290    1.407   .     A
C288   C294    1.395   .     A
C289   C296    1.393   .     A
C289   C291    1.407   .     A
C290   C292    1.425   .     A
C290   C903    1.410   .     S
C291   C293    1.424   .     A
C291   C902    1.410   1_554 S
C292   C299    1.428   .     A
C293   C295    1.424   .     A
C294   H318    1.086   .     S
C294   C907    1.394   .     S
C295   C297    1.483   .     S
C295   C906    1.394   1_554 S
C296   H319    1.086   .     S
C296   C911    1.394   1_554 S
C297   O340    1.223   .     D
C297   O330    1.398   .     S
C298   O331    1.223   .     D
C298   C299    1.481   .     S
C298   O332    1.398   .     S
C299   C908    1.394   .     S
C300   H320    1.083   .     S
C301   H321    1.083   .     S
C301   C304    1.401   .     A
C301   C371    1.383   .     S
C302   H322    1.083   .     S
C302   C304    1.401   .     A
C302   C368    1.383   .     S
C303   H323    1.083   .     S
Cu305  Cu306   2.672   .     S
Cu305  O329    1.965   .     S
Cu305  O338    1.978   .     S
Cu305  N325    2.008   .     S
Cu305  O334    1.965   .     S
Cu305  O336    1.969   .     S
Cu306  O339    1.978   .     S
Cu306  O337    1.969   .     S
Cu306  O335    1.965   .     S
Cu306  N326    2.008   .     S
Cu306  O333    1.965   .     S
H311   N327    1.045   .     S
H312   N327    1.045   .     S
H313   N328    1.043   .     S
H314   N328    1.046   .     S
H315   O534    1.014   .     S
H316   O332    1.014   .     S
C341   O403    1.289   .     A
C341   O397    1.289   .     A
C341   C342    1.450   .     S
C342   C368    1.401   .     A
C342   C371    1.401   .     A
C343   H392    1.081   .     S
C343   N394    1.366   .     A
C344   N393    1.366   .     A
C344   H376    1.081   .     S
C344   C549    1.415   .     S
C345   H377    1.082   .     S
C345   N394    1.366   .     A
C346   H378    1.082   .     S
C346   N393    1.367   .     A
C346   C547    1.415   .     S
C347   O404    1.297   .     A
C347   O407    1.289   .     A
C347   C353    1.465   .     S
C348   O406    1.291   .     A
C348   O405    1.298   .     A
C348   C351    1.472   .     S
C349   N395    1.435   .     S
C349   C360    1.420   .     A
C349   C351    1.422   .     A
C350   N396    1.437   .     S
C350   C361    1.416   .     A
C350   C353    1.418   .     A
C351   C354    1.394   .     A
C352   C372    1.450   .     S
C352   O401    1.289   .     A
C352   O402    1.289   .     A
C353   C355    1.393   .     A
C354   C356    1.385   .     A
C354   H375    1.085   .     S
C355   H385    1.085   .     S
C355   C357    1.387   .     A
C356   C358    1.407   .     A
C356   C362    1.395   .     A
C357   C364    1.393   .     A
C357   C359    1.407   .     A
C358   C360    1.425   .     A
C358   C971    1.410   .     S
C359   C361    1.424   .     A
C359   C970    1.410   1_554 S
C360   C367    1.428   .     A
C361   C363    1.424   .     A
C362   H386    1.086   .     S
C362   C975    1.394   .     S
C363   C365    1.483   .     S
C363   C974    1.394   1_554 S
C364   H387    1.086   .     S
C364   C979    1.394   1_554 S
C365   O408    1.223   .     D
C365   O398    1.398   .     S
C366   O399    1.223   .     D
C366   C367    1.481   .     S
C366   O400    1.398   .     S
C367   C976    1.394   .     S
C368   H388    1.083   .     S
C369   H389    1.083   .     S
C369   C372    1.401   .     A
C369   C235    1.383   1_655 S
C370   H390    1.083   .     S
C370   C372    1.401   .     A
C370   C232    1.383   1_655 S
C371   H391    1.083   .     S
Cu373  Cu374   2.672   .     S
Cu373  O397    1.965   .     S
Cu373  O406    1.978   .     S
Cu373  N393    2.008   .     S
Cu373  O402    1.965   .     S
Cu373  O404    1.969   .     S
Cu374  O407    1.978   .     S
Cu374  O405    1.969   .     S
Cu374  O403    1.965   .     S
Cu374  N394    2.008   .     S
Cu374  O401    1.965   .     S
H379   N395    1.045   .     S
H380   N395    1.045   .     S
H381   N396    1.043   .     S
H382   N396    1.046   .     S
H383   O602    1.014   .     S
H384   O400    1.014   .     S
C409   O471    1.289   .     A
C409   O465    1.289   .     A
C409   C410    1.450   .     S
C410   C436    1.401   .     A
C410   C439    1.401   .     A
C411   H460    1.081   .     S
C411   N462    1.366   .     A
C412   N461    1.366   .     A
C412   H444    1.081   .     S
C412   C5      1.415   1_565 S
C413   H445    1.082   .     S
C413   N462    1.366   .     A
C414   H446    1.082   .     S
C414   N461    1.367   .     A
C414   C3      1.415   1_565 S
C415   O472    1.297   .     A
C415   O475    1.289   .     A
C415   C421    1.465   .     S
C416   O474    1.291   .     A
C416   O473    1.298   .     A
C416   C419    1.472   .     S
C417   N463    1.435   .     S
C417   C428    1.420   .     A
C417   C419    1.422   .     A
C418   N464    1.437   .     S
C418   C429    1.416   .     A
C418   C421    1.418   .     A
C419   C422    1.394   .     A
C420   C440    1.450   .     S
C420   O469    1.289   .     A
C420   O470    1.289   .     A
C421   C423    1.393   .     A
C422   C424    1.385   .     A
C422   H443    1.085   .     S
C423   H453    1.085   .     S
C423   C425    1.387   .     A
C424   C426    1.407   .     A
C424   C430    1.395   .     A
C425   C432    1.393   .     A
C425   C427    1.407   .     A
C426   C428    1.425   .     A
C426   C1039   1.410   .     S
C427   C429    1.424   .     A
C427   C1038   1.410   1_554 S
C428   C435    1.428   .     A
C429   C431    1.424   .     A
C430   H454    1.086   .     S
C430   C1043   1.394   .     S
C431   C433    1.483   .     S
C431   C1042   1.394   1_554 S
C432   H455    1.086   .     S
C432   C1047   1.394   1_554 S
C433   O476    1.223   .     D
C433   O466    1.398   .     S
C434   O467    1.223   .     D
C434   C435    1.481   .     S
C434   O468    1.398   .     S
C435   C1044   1.394   .     S
C436   H456    1.083   .     S
C436   C574    1.383   1_455 S
C437   H457    1.083   .     S
C437   C440    1.401   .     A
C437   C507    1.383   .     S
C438   H458    1.083   .     S
C438   C440    1.401   .     A
C438   C504    1.383   .     S
C439   H459    1.083   .     S
C439   C573    1.383   1_455 S
Cu441  Cu442   2.672   .     S
Cu441  O465    1.965   .     S
Cu441  O474    1.978   .     S
Cu441  N461    2.008   .     S
Cu441  O470    1.965   .     S
Cu441  O472    1.969   .     S
Cu442  O475    1.978   .     S
Cu442  O473    1.969   .     S
Cu442  O471    1.965   .     S
Cu442  N462    2.008   .     S
Cu442  O469    1.965   .     S
H447   N463    1.045   .     S
H448   N463    1.045   .     S
H449   N464    1.043   .     S
H450   N464    1.046   .     S
H451   O58     1.014   1_565 S
H452   O468    1.014   .     S
C477   O539    1.289   .     A
C477   O533    1.289   .     A
C477   C478    1.450   .     S
C478   C504    1.401   .     A
C478   C507    1.401   .     A
C479   H528    1.081   .     S
C479   N530    1.366   .     A
C480   N529    1.366   .     A
C480   H512    1.081   .     S
C480   C73     1.415   1_565 S
C481   H513    1.082   .     S
C481   N530    1.366   .     A
C482   H514    1.082   .     S
C482   N529    1.367   .     A
C482   C71     1.415   1_565 S
C483   O540    1.297   .     A
C483   O543    1.289   .     A
C483   C489    1.465   .     S
C484   O542    1.291   .     A
C484   O541    1.298   .     A
C484   C487    1.472   .     S
C485   N531    1.435   .     S
C485   C496    1.420   .     A
C485   C487    1.422   .     A
C486   N532    1.437   .     S
C486   C497    1.416   .     A
C486   C489    1.418   .     A
C487   C490    1.394   .     A
C488   C508    1.450   .     S
C488   O537    1.289   .     A
C488   O538    1.289   .     A
C489   C491    1.393   .     A
C490   C492    1.385   .     A
C490   H511    1.085   .     S
C491   H521    1.085   .     S
C491   C493    1.387   .     A
C492   C494    1.407   .     A
C492   C498    1.395   .     A
C493   C500    1.393   .     A
C493   C495    1.407   .     A
C494   C496    1.425   .     A
C494   C1107   1.410   .     S
C495   C497    1.424   .     A
C495   C1106   1.410   1_554 S
C496   C503    1.428   .     A
C497   C499    1.424   .     A
C498   H522    1.086   .     S
C498   C1111   1.394   .     S
C499   C501    1.483   .     S
C499   C1110   1.394   1_554 S
C500   H523    1.086   .     S
C500   C1115   1.394   1_554 S
C501   O544    1.223   .     D
C501   O534    1.398   .     S
C502   O535    1.223   .     D
C502   C503    1.481   .     S
C502   O536    1.398   .     S
C503   C1112   1.394   .     S
C504   H524    1.083   .     S
C505   H525    1.083   .     S
C505   C508    1.401   .     A
C505   C575    1.383   .     S
C506   H526    1.083   .     S
C506   C508    1.401   .     A
C506   C572    1.383   .     S
C507   H527    1.083   .     S
Cu509  Cu510   2.672   .     S
Cu509  O533    1.965   .     S
Cu509  O542    1.978   .     S
Cu509  N529    2.008   .     S
Cu509  O538    1.965   .     S
Cu509  O540    1.969   .     S
Cu510  O543    1.978   .     S
Cu510  O541    1.969   .     S
Cu510  O539    1.965   .     S
Cu510  N530    2.008   .     S
Cu510  O537    1.965   .     S
H515   N531    1.045   .     S
H516   N531    1.045   .     S
H517   N532    1.043   .     S
H518   N532    1.046   .     S
H519   O126    1.014   1_565 S
H520   O536    1.014   .     S
C545   O607    1.289   .     A
C545   O601    1.289   .     A
C545   C546    1.450   .     S
C546   C572    1.401   .     A
C546   C575    1.401   .     A
C547   H596    1.081   .     S
C547   N598    1.366   .     A
C548   N597    1.366   .     A
C548   H580    1.081   .     S
C548   C141    1.415   1_565 S
C549   H581    1.082   .     S
C549   N598    1.366   .     A
C550   H582    1.082   .     S
C550   N597    1.367   .     A
C550   C139    1.415   1_565 S
C551   O608    1.297   .     A
C551   O611    1.289   .     A
C551   C557    1.465   .     S
C552   O610    1.291   .     A
C552   O609    1.298   .     A
C552   C555    1.472   .     S
C553   N599    1.435   .     S
C553   C564    1.420   .     A
C553   C555    1.422   .     A
C554   N600    1.437   .     S
C554   C565    1.416   .     A
C554   C557    1.418   .     A
C555   C558    1.394   .     A
C556   C576    1.450   .     S
C556   O605    1.289   .     A
C556   O606    1.289   .     A
C557   C559    1.393   .     A
C558   C560    1.385   .     A
C558   H579    1.085   .     S
C559   H589    1.085   .     S
C559   C561    1.387   .     A
C560   C562    1.407   .     A
C560   C566    1.395   .     A
C561   C568    1.393   .     A
C561   C563    1.407   .     A
C562   C564    1.425   .     A
C562   C1175   1.410   .     S
C563   C565    1.424   .     A
C563   C1174   1.410   1_554 S
C564   C571    1.428   .     A
C565   C567    1.424   .     A
C566   H590    1.086   .     S
C566   C1179   1.394   .     S
C567   C569    1.483   .     S
C567   C1178   1.394   1_554 S
C568   H591    1.086   .     S
C568   C1183   1.394   1_554 S
C569   O612    1.223   .     D
C569   O602    1.398   .     S
C570   O603    1.223   .     D
C570   C571    1.481   .     S
C570   O604    1.398   .     S
C571   C1180   1.394   .     S
C572   H592    1.083   .     S
C573   H593    1.083   .     S
C573   C576    1.401   .     A
C573   C439    1.383   1_655 S
C574   H594    1.083   .     S
C574   C576    1.401   .     A
C574   C436    1.383   1_655 S
C575   H595    1.083   .     S
Cu577  Cu578   2.672   .     S
Cu577  O601    1.965   .     S
Cu577  O610    1.978   .     S
Cu577  N597    2.008   .     S
Cu577  O606    1.965   .     S
Cu577  O608    1.969   .     S
Cu578  O611    1.978   .     S
Cu578  O609    1.969   .     S
Cu578  O607    1.965   .     S
Cu578  N598    2.008   .     S
Cu578  O605    1.965   .     S
H583   N599    1.045   .     S
H584   N599    1.045   .     S
H585   N600    1.043   .     S
H586   N600    1.046   .     S
H587   O194    1.014   1_565 S
H588   O604    1.014   .     S
C613   O675    1.289   .     A
C613   O669    1.289   .     A
C613   C614    1.450   .     S
C614   C640    1.401   .     A
C614   C643    1.401   .     A
C615   H664    1.081   .     S
C615   N666    1.366   .     A
C615   C1026   1.415   1_545 S
C616   N665    1.366   .     A
C616   H648    1.081   .     S
C616   C821    1.415   .     S
C617   H649    1.082   .     S
C617   N666    1.366   .     A
C617   C1024   1.415   1_545 S
C618   H650    1.082   .     S
C618   N665    1.367   .     A
C618   C819    1.415   .     S
C619   O676    1.297   .     A
C619   O679    1.289   .     A
C619   C625    1.465   .     S
C620   O678    1.291   .     A
C620   O677    1.298   .     A
C620   C623    1.472   .     S
C621   N667    1.435   .     S
C621   C632    1.420   .     A
C621   C623    1.422   .     A
C622   N668    1.437   .     S
C622   C633    1.416   .     A
C622   C625    1.418   .     A
C623   C626    1.394   .     A
C624   C644    1.450   .     S
C624   O673    1.289   .     A
C624   O674    1.289   .     A
C625   C627    1.393   .     A
C626   C628    1.385   .     A
C626   H647    1.085   .     S
C627   H657    1.085   .     S
C627   C629    1.387   .     A
C628   C630    1.407   .     A
C628   C634    1.395   .     A
C629   C636    1.393   .     A
C629   C631    1.407   .     A
C630   C632    1.425   .     A
C630   C19     1.410   1_556 S
C631   C633    1.424   .     A
C632   C639    1.428   .     A
C633   C635    1.424   .     A
C634   H658    1.086   .     S
C634   C23     1.394   1_556 S
C635   C637    1.483   .     S
C636   H659    1.086   .     S
C637   O680    1.223   .     D
C637   O670    1.398   .     S
C638   O671    1.223   .     D
C638   C639    1.481   .     S
C638   O672    1.398   .     S
C639   C24     1.394   1_556 S
C640   H660    1.083   .     S
C640   C778    1.383   1_455 S
C641   H661    1.083   .     S
C641   C644    1.401   .     A
C641   C711    1.383   .     S
C642   H662    1.083   .     S
C642   C644    1.401   .     A
C642   C708    1.383   .     S
C643   H663    1.083   .     S
C643   C777    1.383   1_455 S
Cu645  Cu646   2.672   .     S
Cu645  O669    1.965   .     S
Cu645  O678    1.978   .     S
Cu645  N665    2.008   .     S
Cu645  O674    1.965   .     S
Cu645  O676    1.969   .     S
Cu646  O679    1.978   .     S
Cu646  O677    1.969   .     S
Cu646  O675    1.965   .     S
Cu646  N666    2.008   .     S
Cu646  O673    1.965   .     S
H651   N667    1.045   .     S
H652   N667    1.045   .     S
H653   N668    1.043   .     S
H654   N668    1.046   .     S
H655   O874    1.014   .     S
H656   O672    1.014   .     S
O670   H1063   1.014   1_545 S
C681   O743    1.289   .     A
C681   O737    1.289   .     A
C681   C682    1.450   .     S
C682   C708    1.401   .     A
C682   C711    1.401   .     A
C683   H732    1.081   .     S
C683   N734    1.366   .     A
C683   C1094   1.415   1_545 S
C684   N733    1.366   .     A
C684   H716    1.081   .     S
C684   C889    1.415   .     S
C685   H717    1.082   .     S
C685   N734    1.366   .     A
C685   C1092   1.415   1_545 S
C686   H718    1.082   .     S
C686   N733    1.367   .     A
C686   C887    1.415   .     S
C687   O744    1.297   .     A
C687   O747    1.289   .     A
C687   C693    1.465   .     S
C688   O746    1.291   .     A
C688   O745    1.298   .     A
C688   C691    1.472   .     S
C689   N735    1.435   .     S
C689   C700    1.420   .     A
C689   C691    1.422   .     A
C690   N736    1.437   .     S
C690   C701    1.416   .     A
C690   C693    1.418   .     A
C691   C694    1.394   .     A
C692   C712    1.450   .     S
C692   O741    1.289   .     A
C692   O742    1.289   .     A
C693   C695    1.393   .     A
C694   C696    1.385   .     A
C694   H715    1.085   .     S
C695   H725    1.085   .     S
C695   C697    1.387   .     A
C696   C698    1.407   .     A
C696   C702    1.395   .     A
C697   C704    1.393   .     A
C697   C699    1.407   .     A
C698   C700    1.425   .     A
C698   C87     1.410   1_556 S
C699   C701    1.424   .     A
C700   C707    1.428   .     A
C701   C703    1.424   .     A
C702   H726    1.086   .     S
C702   C91     1.394   1_556 S
C703   C705    1.483   .     S
C704   H727    1.086   .     S
C705   O748    1.223   .     D
C705   O738    1.398   .     S
C706   O739    1.223   .     D
C706   C707    1.481   .     S
C706   O740    1.398   .     S
C707   C92     1.394   1_556 S
C708   H728    1.083   .     S
C709   H729    1.083   .     S
C709   C712    1.401   .     A
C709   C779    1.383   .     S
C710   H730    1.083   .     S
C710   C712    1.401   .     A
C710   C776    1.383   .     S
C711   H731    1.083   .     S
Cu713  Cu714   2.672   .     S
Cu713  O737    1.965   .     S
Cu713  O746    1.978   .     S
Cu713  N733    2.008   .     S
Cu713  O742    1.965   .     S
Cu713  O744    1.969   .     S
Cu714  O747    1.978   .     S
Cu714  O745    1.969   .     S
Cu714  O743    1.965   .     S
Cu714  N734    2.008   .     S
Cu714  O741    1.965   .     S
H719   N735    1.045   .     S
H720   N735    1.045   .     S
H721   N736    1.043   .     S
H722   N736    1.046   .     S
H723   O942    1.014   .     S
H724   O740    1.014   .     S
O738   H1131   1.014   1_545 S
C749   O811    1.289   .     A
C749   O805    1.289   .     A
C749   C750    1.450   .     S
C750   C776    1.401   .     A
C750   C779    1.401   .     A
C751   H800    1.081   .     S
C751   N802    1.366   .     A
C751   C1162   1.415   1_545 S
C752   N801    1.366   .     A
C752   H784    1.081   .     S
C752   C957    1.415   .     S
C753   H785    1.082   .     S
C753   N802    1.366   .     A
C753   C1160   1.415   1_545 S
C754   H786    1.082   .     S
C754   N801    1.367   .     A
C754   C955    1.415   .     S
C755   O812    1.297   .     A
C755   O815    1.289   .     A
C755   C761    1.465   .     S
C756   O814    1.291   .     A
C756   O813    1.298   .     A
C756   C759    1.472   .     S
C757   N803    1.435   .     S
C757   C768    1.420   .     A
C757   C759    1.422   .     A
C758   N804    1.437   .     S
C758   C769    1.416   .     A
C758   C761    1.418   .     A
C759   C762    1.394   .     A
C760   C780    1.450   .     S
C760   O809    1.289   .     A
C760   O810    1.289   .     A
C761   C763    1.393   .     A
C762   C764    1.385   .     A
C762   H783    1.085   .     S
C763   H793    1.085   .     S
C763   C765    1.387   .     A
C764   C766    1.407   .     A
C764   C770    1.395   .     A
C765   C772    1.393   .     A
C765   C767    1.407   .     A
C766   C768    1.425   .     A
C766   C155    1.410   1_556 S
C767   C769    1.424   .     A
C768   C775    1.428   .     A
C769   C771    1.424   .     A
C770   H794    1.086   .     S
C770   C159    1.394   1_556 S
C771   C773    1.483   .     S
C772   H795    1.086   .     S
C773   O816    1.223   .     D
C773   O806    1.398   .     S
C774   O807    1.223   .     D
C774   C775    1.481   .     S
C774   O808    1.398   .     S
C775   C160    1.394   1_556 S
C776   H796    1.083   .     S
C777   H797    1.083   .     S
C777   C780    1.401   .     A
C777   C643    1.383   1_655 S
C778   H798    1.083   .     S
C778   C780    1.401   .     A
C778   C640    1.383   1_655 S
C779   H799    1.083   .     S
Cu781  Cu782   2.672   .     S
Cu781  O805    1.965   .     S
Cu781  O814    1.978   .     S
Cu781  N801    2.008   .     S
Cu781  O810    1.965   .     S
Cu781  O812    1.969   .     S
Cu782  O815    1.978   .     S
Cu782  O813    1.969   .     S
Cu782  O811    1.965   .     S
Cu782  N802    2.008   .     S
Cu782  O809    1.965   .     S
H787   N803    1.045   .     S
H788   N803    1.045   .     S
H789   N804    1.043   .     S
H790   N804    1.046   .     S
H791   O1010   1.014   .     S
H792   O808    1.014   .     S
O806   H1199   1.014   1_545 S
C817   O879    1.289   .     A
C817   O873    1.289   .     A
C817   C818    1.450   .     S
C818   C844    1.401   .     A
C818   C847    1.401   .     A
C819   H868    1.081   .     S
C819   N870    1.366   .     A
C820   N869    1.366   .     A
C820   H852    1.081   .     S
C820   C1025   1.415   .     S
C821   H853    1.082   .     S
C821   N870    1.366   .     A
C822   H854    1.082   .     S
C822   N869    1.367   .     A
C822   C1023   1.415   .     S
C823   O880    1.297   .     A
C823   O883    1.289   .     A
C823   C829    1.465   .     S
C824   O882    1.291   .     A
C824   O881    1.298   .     A
C824   C827    1.472   .     S
C825   N871    1.435   .     S
C825   C836    1.420   .     A
C825   C827    1.422   .     A
C826   N872    1.437   .     S
C826   C837    1.416   .     A
C826   C829    1.418   .     A
C827   C830    1.394   .     A
C828   C848    1.450   .     S
C828   O877    1.289   .     A
C828   O878    1.289   .     A
C829   C831    1.393   .     A
C830   C832    1.385   .     A
C830   H851    1.085   .     S
C831   H861    1.085   .     S
C831   C833    1.387   .     A
C832   C834    1.407   .     A
C832   C838    1.395   .     A
C833   C840    1.393   .     A
C833   C835    1.407   .     A
C834   C836    1.425   .     A
C834   C223    1.410   1_556 S
C835   C837    1.424   .     A
C836   C843    1.428   .     A
C837   C839    1.424   .     A
C838   H862    1.086   .     S
C838   C227    1.394   1_556 S
C839   C841    1.483   .     S
C840   H863    1.086   .     S
C841   O884    1.223   .     D
C841   O874    1.398   .     S
C842   O875    1.223   .     D
C842   C843    1.481   .     S
C842   O876    1.398   .     S
C843   C228    1.394   1_556 S
C844   H864    1.083   .     S
C844   C982    1.383   1_455 S
C845   H865    1.083   .     S
C845   C848    1.401   .     A
C845   C915    1.383   .     S
C846   H866    1.083   .     S
C846   C848    1.401   .     A
C846   C912    1.383   .     S
C847   H867    1.083   .     S
C847   C981    1.383   1_455 S
Cu849  Cu850   2.672   .     S
Cu849  O873    1.965   .     S
Cu849  O882    1.978   .     S
Cu849  N869    2.008   .     S
Cu849  O878    1.965   .     S
Cu849  O880    1.969   .     S
Cu850  O883    1.978   .     S
Cu850  O881    1.969   .     S
Cu850  O879    1.965   .     S
Cu850  N870    2.008   .     S
Cu850  O877    1.965   .     S
H855   N871    1.045   .     S
H856   N871    1.045   .     S
H857   N872    1.043   .     S
H858   N872    1.046   .     S
H859   O1078   1.014   .     S
H860   O876    1.014   .     S
C885   O947    1.289   .     A
C885   O941    1.289   .     A
C885   C886    1.450   .     S
C886   C912    1.401   .     A
C886   C915    1.401   .     A
C887   H936    1.081   .     S
C887   N938    1.366   .     A
C888   N937    1.366   .     A
C888   H920    1.081   .     S
C888   C1093   1.415   .     S
C889   H921    1.082   .     S
C889   N938    1.366   .     A
C890   H922    1.082   .     S
C890   N937    1.367   .     A
C890   C1091   1.415   .     S
C891   O948    1.297   .     A
C891   O951    1.289   .     A
C891   C897    1.465   .     S
C892   O950    1.291   .     A
C892   O949    1.298   .     A
C892   C895    1.472   .     S
C893   N939    1.435   .     S
C893   C904    1.420   .     A
C893   C895    1.422   .     A
C894   N940    1.437   .     S
C894   C905    1.416   .     A
C894   C897    1.418   .     A
C895   C898    1.394   .     A
C896   C916    1.450   .     S
C896   O945    1.289   .     A
C896   O946    1.289   .     A
C897   C899    1.393   .     A
C898   C900    1.385   .     A
C898   H919    1.085   .     S
C899   H929    1.085   .     S
C899   C901    1.387   .     A
C900   C902    1.407   .     A
C900   C906    1.395   .     A
C901   C908    1.393   .     A
C901   C903    1.407   .     A
C902   C904    1.425   .     A
C902   C291    1.410   1_556 S
C903   C905    1.424   .     A
C904   C911    1.428   .     A
C905   C907    1.424   .     A
C906   H930    1.086   .     S
C906   C295    1.394   1_556 S
C907   C909    1.483   .     S
C908   H931    1.086   .     S
C909   O952    1.223   .     D
C909   O942    1.398   .     S
C910   O943    1.223   .     D
C910   C911    1.481   .     S
C910   O944    1.398   .     S
C911   C296    1.394   1_556 S
C912   H932    1.083   .     S
C913   H933    1.083   .     S
C913   C916    1.401   .     A
C913   C983    1.383   .     S
C914   H934    1.083   .     S
C914   C916    1.401   .     A
C914   C980    1.383   .     S
C915   H935    1.083   .     S
Cu917  Cu918   2.672   .     S
Cu917  O941    1.965   .     S
Cu917  O950    1.978   .     S
Cu917  N937    2.008   .     S
Cu917  O946    1.965   .     S
Cu917  O948    1.969   .     S
Cu918  O951    1.978   .     S
Cu918  O949    1.969   .     S
Cu918  O947    1.965   .     S
Cu918  N938    2.008   .     S
Cu918  O945    1.965   .     S
H923   N939    1.045   .     S
H924   N939    1.045   .     S
H925   N940    1.043   .     S
H926   N940    1.046   .     S
H927   O1146   1.014   .     S
H928   O944    1.014   .     S
C953   O1015   1.289   .     A
C953   O1009   1.289   .     A
C953   C954    1.450   .     S
C954   C980    1.401   .     A
C954   C983    1.401   .     A
C955   H1004   1.081   .     S
C955   N1006   1.366   .     A
C956   N1005   1.366   .     A
C956   H988    1.081   .     S
C956   C1161   1.415   .     S
C957   H989    1.082   .     S
C957   N1006   1.366   .     A
C958   H990    1.082   .     S
C958   N1005   1.367   .     A
C958   C1159   1.415   .     S
C959   O1016   1.297   .     A
C959   O1019   1.289   .     A
C959   C965    1.465   .     S
C960   O1018   1.291   .     A
C960   O1017   1.298   .     A
C960   C963    1.472   .     S
C961   N1007   1.435   .     S
C961   C972    1.420   .     A
C961   C963    1.422   .     A
C962   N1008   1.437   .     S
C962   C973    1.416   .     A
C962   C965    1.418   .     A
C963   C966    1.394   .     A
C964   C984    1.450   .     S
C964   O1013   1.289   .     A
C964   O1014   1.289   .     A
C965   C967    1.393   .     A
C966   C968    1.385   .     A
C966   H987    1.085   .     S
C967   H997    1.085   .     S
C967   C969    1.387   .     A
C968   C970    1.407   .     A
C968   C974    1.395   .     A
C969   C976    1.393   .     A
C969   C971    1.407   .     A
C970   C972    1.425   .     A
C970   C359    1.410   1_556 S
C971   C973    1.424   .     A
C972   C979    1.428   .     A
C973   C975    1.424   .     A
C974   H998    1.086   .     S
C974   C363    1.394   1_556 S
C975   C977    1.483   .     S
C976   H999    1.086   .     S
C977   O1020   1.223   .     D
C977   O1010   1.398   .     S
C978   O1011   1.223   .     D
C978   C979    1.481   .     S
C978   O1012   1.398   .     S
C979   C364    1.394   1_556 S
C980   H1000   1.083   .     S
C981   H1001   1.083   .     S
C981   C984    1.401   .     A
C981   C847    1.383   1_655 S
C982   H1002   1.083   .     S
C982   C984    1.401   .     A
C982   C844    1.383   1_655 S
C983   H1003   1.083   .     S
Cu985  Cu986   2.672   .     S
Cu985  O1009   1.965   .     S
Cu985  O1018   1.978   .     S
Cu985  N1005   2.008   .     S
Cu985  O1014   1.965   .     S
Cu985  O1016   1.969   .     S
Cu986  O1019   1.978   .     S
Cu986  O1017   1.969   .     S
Cu986  O1015   1.965   .     S
Cu986  N1006   2.008   .     S
Cu986  O1013   1.965   .     S
H991   N1007   1.045   .     S
H992   N1007   1.045   .     S
H993   N1008   1.043   .     S
H994   N1008   1.046   .     S
H995   O1214   1.014   .     S
H996   O1012   1.014   .     S
C1021  O1083   1.289   .     A
C1021  O1077   1.289   .     A
C1021  C1022   1.450   .     S
C1022  C1048   1.401   .     A
C1022  C1051   1.401   .     A
C1023  H1072   1.081   .     S
C1023  N1074   1.366   .     A
C1024  N1073   1.366   .     A
C1024  H1056   1.081   .     S
C1024  C617    1.415   1_565 S
C1025  H1057   1.082   .     S
C1025  N1074   1.366   .     A
C1026  H1058   1.082   .     S
C1026  N1073   1.367   .     A
C1026  C615    1.415   1_565 S
C1027  O1084   1.297   .     A
C1027  O1087   1.289   .     A
C1027  C1033   1.465   .     S
C1028  O1086   1.291   .     A
C1028  O1085   1.298   .     A
C1028  C1031   1.472   .     S
C1029  N1075   1.435   .     S
C1029  C1040   1.420   .     A
C1029  C1031   1.422   .     A
C1030  N1076   1.437   .     S
C1030  C1041   1.416   .     A
C1030  C1033   1.418   .     A
C1031  C1034   1.394   .     A
C1032  C1052   1.450   .     S
C1032  O1081   1.289   .     A
C1032  O1082   1.289   .     A
C1033  C1035   1.393   .     A
C1034  C1036   1.385   .     A
C1034  H1055   1.085   .     S
C1035  H1065   1.085   .     S
C1035  C1037   1.387   .     A
C1036  C1038   1.407   .     A
C1036  C1042   1.395   .     A
C1037  C1044   1.393   .     A
C1037  C1039   1.407   .     A
C1038  C1040   1.425   .     A
C1038  C427    1.410   1_556 S
C1039  C1041   1.424   .     A
C1040  C1047   1.428   .     A
C1041  C1043   1.424   .     A
C1042  H1066   1.086   .     S
C1042  C431    1.394   1_556 S
C1043  C1045   1.483   .     S
C1044  H1067   1.086   .     S
C1045  O1088   1.223   .     D
C1045  O1078   1.398   .     S
C1046  O1079   1.223   .     D
C1046  C1047   1.481   .     S
C1046  O1080   1.398   .     S
C1047  C432    1.394   1_556 S
C1048  H1068   1.083   .     S
C1048  C1186   1.383   1_455 S
C1049  H1069   1.083   .     S
C1049  C1052   1.401   .     A
C1049  C1119   1.383   .     S
C1050  H1070   1.083   .     S
C1050  C1052   1.401   .     A
C1050  C1116   1.383   .     S
C1051  H1071   1.083   .     S
C1051  C1185   1.383   1_455 S
Cu1053 Cu1054  2.672   .     S
Cu1053 O1077   1.965   .     S
Cu1053 O1086   1.978   .     S
Cu1053 N1073   2.008   .     S
Cu1053 O1082   1.965   .     S
Cu1053 O1084   1.969   .     S
Cu1054 O1087   1.978   .     S
Cu1054 O1085   1.969   .     S
Cu1054 O1083   1.965   .     S
Cu1054 N1074   2.008   .     S
Cu1054 O1081   1.965   .     S
H1059  N1075   1.045   .     S
H1060  N1075   1.045   .     S
H1061  N1076   1.043   .     S
H1062  N1076   1.046   .     S
H1063  O670    1.014   1_565 S
H1064  O1080   1.014   .     S
C1089  O1151   1.289   .     A
C1089  O1145   1.289   .     A
C1089  C1090   1.450   .     S
C1090  C1116   1.401   .     A
C1090  C1119   1.401   .     A
C1091  H1140   1.081   .     S
C1091  N1142   1.366   .     A
C1092  N1141   1.366   .     A
C1092  H1124   1.081   .     S
C1092  C685    1.415   1_565 S
C1093  H1125   1.082   .     S
C1093  N1142   1.366   .     A
C1094  H1126   1.082   .     S
C1094  N1141   1.367   .     A
C1094  C683    1.415   1_565 S
C1095  O1152   1.297   .     A
C1095  O1155   1.289   .     A
C1095  C1101   1.465   .     S
C1096  O1154   1.291   .     A
C1096  O1153   1.298   .     A
C1096  C1099   1.472   .     S
C1097  N1143   1.435   .     S
C1097  C1108   1.420   .     A
C1097  C1099   1.422   .     A
C1098  N1144   1.437   .     S
C1098  C1109   1.416   .     A
C1098  C1101   1.418   .     A
C1099  C1102   1.394   .     A
C1100  C1120   1.450   .     S
C1100  O1149   1.289   .     A
C1100  O1150   1.289   .     A
C1101  C1103   1.393   .     A
C1102  C1104   1.385   .     A
C1102  H1123   1.085   .     S
C1103  H1133   1.085   .     S
C1103  C1105   1.387   .     A
C1104  C1106   1.407   .     A
C1104  C1110   1.395   .     A
C1105  C1112   1.393   .     A
C1105  C1107   1.407   .     A
C1106  C1108   1.425   .     A
C1106  C495    1.410   1_556 S
C1107  C1109   1.424   .     A
C1108  C1115   1.428   .     A
C1109  C1111   1.424   .     A
C1110  H1134   1.086   .     S
C1110  C499    1.394   1_556 S
C1111  C1113   1.483   .     S
C1112  H1135   1.086   .     S
C1113  O1156   1.223   .     D
C1113  O1146   1.398   .     S
C1114  O1147   1.223   .     D
C1114  C1115   1.481   .     S
C1114  O1148   1.398   .     S
C1115  C500    1.394   1_556 S
C1116  H1136   1.083   .     S
C1117  H1137   1.083   .     S
C1117  C1120   1.401   .     A
C1117  C1187   1.383   .     S
C1118  H1138   1.083   .     S
C1118  C1120   1.401   .     A
C1118  C1184   1.383   .     S
C1119  H1139   1.083   .     S
Cu1121 Cu1122  2.672   .     S
Cu1121 O1145   1.965   .     S
Cu1121 O1154   1.978   .     S
Cu1121 N1141   2.008   .     S
Cu1121 O1150   1.965   .     S
Cu1121 O1152   1.969   .     S
Cu1122 O1155   1.978   .     S
Cu1122 O1153   1.969   .     S
Cu1122 O1151   1.965   .     S
Cu1122 N1142   2.008   .     S
Cu1122 O1149   1.965   .     S
H1127  N1143   1.045   .     S
H1128  N1143   1.045   .     S
H1129  N1144   1.043   .     S
H1130  N1144   1.046   .     S
H1131  O738    1.014   1_565 S
H1132  O1148   1.014   .     S
C1157  O1219   1.289   .     A
C1157  O1213   1.289   .     A
C1157  C1158   1.450   .     S
C1158  C1184   1.401   .     A
C1158  C1187   1.401   .     A
C1159  H1208   1.081   .     S
C1159  N1210   1.366   .     A
C1160  N1209   1.366   .     A
C1160  H1192   1.081   .     S
C1160  C753    1.415   1_565 S
C1161  H1193   1.082   .     S
C1161  N1210   1.366   .     A
C1162  H1194   1.082   .     S
C1162  N1209   1.367   .     A
C1162  C751    1.415   1_565 S
C1163  O1220   1.297   .     A
C1163  O1223   1.289   .     A
C1163  C1169   1.465   .     S
C1164  O1222   1.291   .     A
C1164  O1221   1.298   .     A
C1164  C1167   1.472   .     S
C1165  N1211   1.435   .     S
C1165  C1176   1.420   .     A
C1165  C1167   1.422   .     A
C1166  N1212   1.437   .     S
C1166  C1177   1.416   .     A
C1166  C1169   1.418   .     A
C1167  C1170   1.394   .     A
C1168  C1188   1.450   .     S
C1168  O1217   1.289   .     A
C1168  O1218   1.289   .     A
C1169  C1171   1.393   .     A
C1170  C1172   1.385   .     A
C1170  H1191   1.085   .     S
C1171  H1201   1.085   .     S
C1171  C1173   1.387   .     A
C1172  C1174   1.407   .     A
C1172  C1178   1.395   .     A
C1173  C1180   1.393   .     A
C1173  C1175   1.407   .     A
C1174  C1176   1.425   .     A
C1174  C563    1.410   1_556 S
C1175  C1177   1.424   .     A
C1176  C1183   1.428   .     A
C1177  C1179   1.424   .     A
C1178  H1202   1.086   .     S
C1178  C567    1.394   1_556 S
C1179  C1181   1.483   .     S
C1180  H1203   1.086   .     S
C1181  O1224   1.223   .     D
C1181  O1214   1.398   .     S
C1182  O1215   1.223   .     D
C1182  C1183   1.481   .     S
C1182  O1216   1.398   .     S
C1183  C568    1.394   1_556 S
C1184  H1204   1.083   .     S
C1185  H1205   1.083   .     S
C1185  C1188   1.401   .     A
C1185  C1051   1.383   1_655 S
C1186  H1206   1.083   .     S
C1186  C1188   1.401   .     A
C1186  C1048   1.383   1_655 S
C1187  H1207   1.083   .     S
Cu1189 Cu1190  2.672   .     S
Cu1189 O1213   1.965   .     S
Cu1189 O1222   1.978   .     S
Cu1189 N1209   2.008   .     S
Cu1189 O1218   1.965   .     S
Cu1189 O1220   1.969   .     S
Cu1190 O1223   1.978   .     S
Cu1190 O1221   1.969   .     S
Cu1190 O1219   1.965   .     S
Cu1190 N1210   2.008   .     S
Cu1190 O1217   1.965   .     S
H1195  N1211   1.045   .     S
H1196  N1211   1.045   .     S
H1197  N1212   1.043   .     S
H1198  N1212   1.046   .     S
H1199  O806    1.014   1_565 S
H1200  O1216   1.014   .     S
