data_str_m1_o10_o16_pcu_sym.169
_audit_creation_date              2020-01-03
_audit_creation_method            'Materials Studio'
_symmetry_space_group_name_H-M    'P1'
_symmetry_Int_Tables_number       1
_symmetry_cell_setting            triclinic
loop_
_symmetry_equiv_pos_as_xyz
  x,y,z
_cell_length_a                    32.4985
_cell_length_b                    32.6610
_cell_length_c                    31.0545
_cell_angle_alpha                 97.0010
_cell_angle_beta                  74.9980
_cell_angle_gamma                 98.5526
loop_
_atom_site_label
_atom_site_type_symbol
_atom_site_fract_x
_atom_site_fract_y
_atom_site_fract_z
_atom_site_U_iso_or_equiv
_atom_site_adp_type
_atom_site_occupancy
C1     C     0.05270   0.15956   0.26001   0.00000  Uiso   1.00
C2     C     0.18069   0.16688   0.05692   0.00000  Uiso   1.00
C3     C     0.19673   0.09816   0.06312   0.00000  Uiso   1.00
C4     C     0.28069   0.17379   0.24008   0.00000  Uiso   1.00
C5     C     0.14391   0.19479   0.41941   0.00000  Uiso   1.00
C6     C     0.32654   0.17657   0.23623   0.00000  Uiso   1.00
C7     C     0.00743   0.15699   0.26376   0.00000  Uiso   1.00
C8     C     0.17984   0.32243   0.23823   0.00000  Uiso   1.00
C9     C     0.15029   0.01219   0.26416   0.00000  Uiso   1.00
C10    C     0.15650   0.05598   0.25961   0.00000  Uiso   1.00
C11    C     0.17631   0.27782   0.24043   0.00000  Uiso   1.00
C12    C     0.14066   0.24926   0.48006   0.00000  Uiso   1.00
C13    C     0.18498   0.14792   0.12943   0.00000  Uiso   1.00
C14    C     0.14822   0.18433   0.37100   0.00000  Uiso   1.00
C15    C     0.19112   0.08486   0.02033   0.00000  Uiso   1.00
C16    C     0.19078   0.13861   0.08147   0.00000  Uiso   1.00
C17    C     0.13664   0.23537   0.43714   0.00000  Uiso   1.00
C18    C     0.15300   0.22337   0.00562   0.00000  Uiso   1.00
C19    C     0.15975   0.18178   0.48943   0.00000  Uiso   1.00
C20    C     0.15267   0.16693   0.44663   0.00000  Uiso   1.00
C21    C     0.17312   0.15440   0.01427   0.00000  Uiso   1.00
C22    C     0.17785   0.11248   0.49639   0.00000  Uiso   1.00
C23    C     0.16724   0.09812   0.45593   0.00000  Uiso   1.00
C24    C     0.15396   0.12451   0.43211   0.00000  Uiso   1.00
H25    H     0.20407   0.07646   0.08304   0.00000  Uiso   1.00
H26    H     0.01552   0.19460   0.21088   0.00000  Uiso   1.00
H27    H     0.09608   0.01837   0.31441   0.00000  Uiso   1.00
H28    H     0.09081   0.31409   0.27370   0.00000  Uiso   1.00
H29    H     0.22417   0.04419   0.47537   0.00000  Uiso   1.00
H30    H     0.20306   0.02575   0.02547   0.00000  Uiso   1.00
H31    H     0.31918   0.13878   0.28936   0.00000  Uiso   1.00
H32    H     0.20765   0.00378   0.21502   0.00000  Uiso   1.00
H33    H     0.16832   0.06595   0.44263   0.00000  Uiso   1.00
H34    H     0.17610   0.19738   0.07348   0.00000  Uiso   1.00
H35    H     0.12964   0.25709   0.41705   0.00000  Uiso   1.00
H36    H     0.15670   0.23701   0.03793   0.00000  Uiso   1.00
H37    H     0.13560   0.28090   0.49309   0.00000  Uiso   1.00
H38    H     0.14389   0.11077   0.40247   0.00000  Uiso   1.00
N39    N     0.11146   0.32795   0.29362   0.00000  Uiso   1.00
N40    N     0.19681   0.04285   0.00201   0.00000  Uiso   1.00
O41    O     0.16667   0.16667   0.25000   0.00000  Uiso   1.00
O42    O     0.15451   0.12637   0.15458   0.00000  Uiso   1.00
O43    O     0.12940   0.20391   0.34968   0.00000  Uiso   1.00
O44    O     0.20824   0.17759   0.14606   0.00000  Uiso   1.00
O45    O     0.17451   0.15880   0.34968   0.00000  Uiso   1.00
O46    O     0.17930   0.08019   0.28213   0.00000  Uiso   1.00
O47    O     0.14632   0.26085   0.27013   0.00000  Uiso   1.00
O48    O     0.07412   0.13291   0.23413   0.00000  Uiso   1.00
O49    O     0.26693   0.19272   0.21360   0.00000  Uiso   1.00
O50    O     0.07071   0.18878   0.28213   0.00000  Uiso   1.00
O51    O     0.25491   0.15226   0.27013   0.00000  Uiso   1.00
O52    O     0.13760   0.06944   0.23413   0.00000  Uiso   1.00
O53    O     0.20345   0.25620   0.21360   0.00000  Uiso   1.00
Zn54   Zn    0.19338   0.13994   0.28734   0.00000  Uiso   1.00
Zn55   Zn    0.13379   0.12458   0.21875   0.00000  Uiso   1.00
Zn56   Zn    0.21056   0.19775   0.20657   0.00000  Uiso   1.00
Zn57   Zn    0.12893   0.20439   0.28733   0.00000  Uiso   1.00
C58    C     0.38604   0.15956   0.26001   0.00000  Uiso   1.00
C59    C     0.51403   0.16688   0.05692   0.00000  Uiso   1.00
C60    C     0.53007   0.09816   0.06312   0.00000  Uiso   1.00
C61    C     0.61402   0.17379   0.24008   0.00000  Uiso   1.00
C62    C     0.47724   0.19479   0.41941   0.00000  Uiso   1.00
C63    C     0.65988   0.17657   0.23623   0.00000  Uiso   1.00
C64    C     0.34077   0.15699   0.26376   0.00000  Uiso   1.00
C65    C     0.51317   0.32243   0.23823   0.00000  Uiso   1.00
C66    C     0.48363   0.01219   0.26416   0.00000  Uiso   1.00
C67    C     0.48984   0.05598   0.25961   0.00000  Uiso   1.00
C68    C     0.50964   0.27782   0.24043   0.00000  Uiso   1.00
C69    C     0.47399   0.24926   0.48006   0.00000  Uiso   1.00
C70    C     0.51831   0.14792   0.12943   0.00000  Uiso   1.00
C71    C     0.48155   0.18433   0.37100   0.00000  Uiso   1.00
C72    C     0.52445   0.08486   0.02033   0.00000  Uiso   1.00
C73    C     0.52411   0.13861   0.08147   0.00000  Uiso   1.00
C74    C     0.46998   0.23537   0.43714   0.00000  Uiso   1.00
C75    C     0.48633   0.22337   0.00562   0.00000  Uiso   1.00
C76    C     0.49308   0.18178   0.48943   0.00000  Uiso   1.00
C77    C     0.48600   0.16693   0.44663   0.00000  Uiso   1.00
C78    C     0.50645   0.15440   0.01427   0.00000  Uiso   1.00
C79    C     0.51119   0.11248   0.49639   0.00000  Uiso   1.00
C80    C     0.50057   0.09812   0.45593   0.00000  Uiso   1.00
C81    C     0.48730   0.12451   0.43211   0.00000  Uiso   1.00
H82    H     0.53740   0.07646   0.08304   0.00000  Uiso   1.00
H83    H     0.34885   0.19460   0.21088   0.00000  Uiso   1.00
H84    H     0.42942   0.01837   0.31441   0.00000  Uiso   1.00
H85    H     0.42415   0.31409   0.27370   0.00000  Uiso   1.00
H86    H     0.55750   0.04419   0.47537   0.00000  Uiso   1.00
H87    H     0.53640   0.02575   0.02547   0.00000  Uiso   1.00
H88    H     0.65252   0.13878   0.28936   0.00000  Uiso   1.00
H89    H     0.54098   0.00378   0.21502   0.00000  Uiso   1.00
H90    H     0.50165   0.06595   0.44263   0.00000  Uiso   1.00
H91    H     0.50943   0.19738   0.07348   0.00000  Uiso   1.00
H92    H     0.46297   0.25709   0.41705   0.00000  Uiso   1.00
H93    H     0.49003   0.23701   0.03793   0.00000  Uiso   1.00
H94    H     0.46894   0.28090   0.49309   0.00000  Uiso   1.00
H95    H     0.47722   0.11077   0.40247   0.00000  Uiso   1.00
N96    N     0.44479   0.32795   0.29362   0.00000  Uiso   1.00
N97    N     0.53014   0.04285   0.00201   0.00000  Uiso   1.00
O98    O     0.50000   0.16667   0.25000   0.00000  Uiso   1.00
O99    O     0.48784   0.12637   0.15458   0.00000  Uiso   1.00
O100   O     0.46274   0.20391   0.34968   0.00000  Uiso   1.00
O101   O     0.54157   0.17759   0.14606   0.00000  Uiso   1.00
O102   O     0.50785   0.15880   0.34968   0.00000  Uiso   1.00
O103   O     0.51264   0.08019   0.28213   0.00000  Uiso   1.00
O104   O     0.47965   0.26085   0.27013   0.00000  Uiso   1.00
O105   O     0.40745   0.13291   0.23413   0.00000  Uiso   1.00
O106   O     0.60026   0.19272   0.21360   0.00000  Uiso   1.00
O107   O     0.40405   0.18878   0.28213   0.00000  Uiso   1.00
O108   O     0.58824   0.15226   0.27013   0.00000  Uiso   1.00
O109   O     0.47093   0.06944   0.23413   0.00000  Uiso   1.00
O110   O     0.53678   0.25620   0.21360   0.00000  Uiso   1.00
Zn111  Zn    0.52672   0.13994   0.28734   0.00000  Uiso   1.00
Zn112  Zn    0.46713   0.12458   0.21875   0.00000  Uiso   1.00
Zn113  Zn    0.54389   0.19775   0.20657   0.00000  Uiso   1.00
Zn114  Zn    0.46226   0.20439   0.28733   0.00000  Uiso   1.00
C115   C     0.71937   0.15956   0.26001   0.00000  Uiso   1.00
C116   C     0.84736   0.16688   0.05692   0.00000  Uiso   1.00
C117   C     0.86340   0.09816   0.06312   0.00000  Uiso   1.00
C118   C     0.94736   0.17379   0.24008   0.00000  Uiso   1.00
C119   C     0.81058   0.19479   0.41941   0.00000  Uiso   1.00
C120   C     0.99321   0.17657   0.23623   0.00000  Uiso   1.00
C121   C     0.67410   0.15699   0.26376   0.00000  Uiso   1.00
C122   C     0.84650   0.32243   0.23823   0.00000  Uiso   1.00
C123   C     0.81696   0.01219   0.26416   0.00000  Uiso   1.00
C124   C     0.82317   0.05598   0.25961   0.00000  Uiso   1.00
C125   C     0.84297   0.27782   0.24043   0.00000  Uiso   1.00
C126   C     0.80733   0.24926   0.48006   0.00000  Uiso   1.00
C127   C     0.85164   0.14792   0.12943   0.00000  Uiso   1.00
C128   C     0.81488   0.18433   0.37100   0.00000  Uiso   1.00
C129   C     0.85779   0.08486   0.02033   0.00000  Uiso   1.00
C130   C     0.85744   0.13861   0.08147   0.00000  Uiso   1.00
C131   C     0.80331   0.23537   0.43714   0.00000  Uiso   1.00
C132   C     0.81966   0.22337   0.00562   0.00000  Uiso   1.00
C133   C     0.82642   0.18178   0.48943   0.00000  Uiso   1.00
C134   C     0.81933   0.16693   0.44663   0.00000  Uiso   1.00
C135   C     0.83979   0.15440   0.01427   0.00000  Uiso   1.00
C136   C     0.84452   0.11248   0.49639   0.00000  Uiso   1.00
C137   C     0.83391   0.09812   0.45593   0.00000  Uiso   1.00
C138   C     0.82063   0.12451   0.43211   0.00000  Uiso   1.00
H139   H     0.87074   0.07646   0.08304   0.00000  Uiso   1.00
H140   H     0.68218   0.19460   0.21088   0.00000  Uiso   1.00
H141   H     0.76275   0.01837   0.31441   0.00000  Uiso   1.00
H142   H     0.75748   0.31409   0.27370   0.00000  Uiso   1.00
H143   H     0.89083   0.04419   0.47537   0.00000  Uiso   1.00
H144   H     0.86973   0.02575   0.02547   0.00000  Uiso   1.00
H145   H     0.98585   0.13878   0.28936   0.00000  Uiso   1.00
H146   H     0.87431   0.00378   0.21502   0.00000  Uiso   1.00
H147   H     0.83499   0.06595   0.44263   0.00000  Uiso   1.00
H148   H     0.84276   0.19738   0.07348   0.00000  Uiso   1.00
H149   H     0.79631   0.25709   0.41705   0.00000  Uiso   1.00
H150   H     0.82337   0.23701   0.03793   0.00000  Uiso   1.00
H151   H     0.80227   0.28090   0.49309   0.00000  Uiso   1.00
H152   H     0.81055   0.11077   0.40247   0.00000  Uiso   1.00
N153   N     0.77812   0.32795   0.29362   0.00000  Uiso   1.00
N154   N     0.86347   0.04285   0.00201   0.00000  Uiso   1.00
O155   O     0.83333   0.16667   0.25000   0.00000  Uiso   1.00
O156   O     0.82118   0.12637   0.15458   0.00000  Uiso   1.00
O157   O     0.79607   0.20391   0.34968   0.00000  Uiso   1.00
O158   O     0.87491   0.17759   0.14606   0.00000  Uiso   1.00
O159   O     0.84118   0.15880   0.34968   0.00000  Uiso   1.00
O160   O     0.84597   0.08019   0.28213   0.00000  Uiso   1.00
O161   O     0.81298   0.26085   0.27013   0.00000  Uiso   1.00
O162   O     0.74078   0.13291   0.23413   0.00000  Uiso   1.00
O163   O     0.93360   0.19272   0.21360   0.00000  Uiso   1.00
O164   O     0.73738   0.18878   0.28213   0.00000  Uiso   1.00
O165   O     0.92158   0.15226   0.27013   0.00000  Uiso   1.00
O166   O     0.80426   0.06944   0.23413   0.00000  Uiso   1.00
O167   O     0.87012   0.25620   0.21360   0.00000  Uiso   1.00
Zn168  Zn    0.86005   0.13994   0.28734   0.00000  Uiso   1.00
Zn169  Zn    0.80046   0.12458   0.21875   0.00000  Uiso   1.00
Zn170  Zn    0.87723   0.19775   0.20657   0.00000  Uiso   1.00
Zn171  Zn    0.79560   0.20439   0.28733   0.00000  Uiso   1.00
C172   C     0.05270   0.49289   0.26001   0.00000  Uiso   1.00
C173   C     0.18069   0.50021   0.05692   0.00000  Uiso   1.00
C174   C     0.19673   0.43149   0.06312   0.00000  Uiso   1.00
C175   C     0.28069   0.50712   0.24008   0.00000  Uiso   1.00
C176   C     0.14391   0.52812   0.41941   0.00000  Uiso   1.00
C177   C     0.32654   0.50990   0.23623   0.00000  Uiso   1.00
C178   C     0.00743   0.49032   0.26376   0.00000  Uiso   1.00
C179   C     0.17984   0.65577   0.23823   0.00000  Uiso   1.00
C180   C     0.15029   0.34553   0.26416   0.00000  Uiso   1.00
C181   C     0.15650   0.38931   0.25961   0.00000  Uiso   1.00
C182   C     0.17631   0.61115   0.24043   0.00000  Uiso   1.00
C183   C     0.14066   0.58259   0.48006   0.00000  Uiso   1.00
C184   C     0.18498   0.48125   0.12943   0.00000  Uiso   1.00
C185   C     0.14822   0.51766   0.37100   0.00000  Uiso   1.00
C186   C     0.19112   0.41819   0.02033   0.00000  Uiso   1.00
C187   C     0.19078   0.47194   0.08147   0.00000  Uiso   1.00
C188   C     0.13664   0.56870   0.43714   0.00000  Uiso   1.00
C189   C     0.15300   0.55670   0.00562   0.00000  Uiso   1.00
C190   C     0.15975   0.51511   0.48943   0.00000  Uiso   1.00
C191   C     0.15267   0.50026   0.44663   0.00000  Uiso   1.00
C192   C     0.17312   0.48773   0.01427   0.00000  Uiso   1.00
C193   C     0.17785   0.44581   0.49639   0.00000  Uiso   1.00
C194   C     0.16724   0.43145   0.45593   0.00000  Uiso   1.00
C195   C     0.15396   0.45784   0.43211   0.00000  Uiso   1.00
H196   H     0.20407   0.40979   0.08304   0.00000  Uiso   1.00
H197   H     0.01552   0.52794   0.21088   0.00000  Uiso   1.00
H198   H     0.09608   0.35171   0.31441   0.00000  Uiso   1.00
H199   H     0.09081   0.64742   0.27370   0.00000  Uiso   1.00
H200   H     0.22417   0.37753   0.47537   0.00000  Uiso   1.00
H201   H     0.20306   0.35908   0.02547   0.00000  Uiso   1.00
H202   H     0.31918   0.47211   0.28936   0.00000  Uiso   1.00
H203   H     0.20765   0.33711   0.21502   0.00000  Uiso   1.00
H204   H     0.16832   0.39929   0.44263   0.00000  Uiso   1.00
H205   H     0.17610   0.53072   0.07348   0.00000  Uiso   1.00
H206   H     0.12964   0.59043   0.41705   0.00000  Uiso   1.00
H207   H     0.15670   0.57034   0.03793   0.00000  Uiso   1.00
H208   H     0.13560   0.61423   0.49309   0.00000  Uiso   1.00
H209   H     0.14389   0.44410   0.40247   0.00000  Uiso   1.00
N210   N     0.11146   0.66129   0.29362   0.00000  Uiso   1.00
N211   N     0.19681   0.37618   0.00201   0.00000  Uiso   1.00
O212   O     0.16667   0.50000   0.25000   0.00000  Uiso   1.00
O213   O     0.15451   0.45970   0.15458   0.00000  Uiso   1.00
O214   O     0.12940   0.53724   0.34968   0.00000  Uiso   1.00
O215   O     0.20824   0.51092   0.14606   0.00000  Uiso   1.00
O216   O     0.17451   0.49213   0.34968   0.00000  Uiso   1.00
O217   O     0.17930   0.41352   0.28213   0.00000  Uiso   1.00
O218   O     0.14632   0.59418   0.27013   0.00000  Uiso   1.00
O219   O     0.07412   0.46625   0.23413   0.00000  Uiso   1.00
O220   O     0.26693   0.52605   0.21360   0.00000  Uiso   1.00
O221   O     0.07071   0.52211   0.28213   0.00000  Uiso   1.00
O222   O     0.25491   0.48559   0.27013   0.00000  Uiso   1.00
O223   O     0.13760   0.40277   0.23413   0.00000  Uiso   1.00
O224   O     0.20345   0.58953   0.21360   0.00000  Uiso   1.00
Zn225  Zn    0.19338   0.47327   0.28734   0.00000  Uiso   1.00
Zn226  Zn    0.13379   0.45791   0.21875   0.00000  Uiso   1.00
Zn227  Zn    0.21056   0.53109   0.20657   0.00000  Uiso   1.00
Zn228  Zn    0.12893   0.53773   0.28733   0.00000  Uiso   1.00
C229   C     0.38604   0.49289   0.26001   0.00000  Uiso   1.00
C230   C     0.51403   0.50021   0.05692   0.00000  Uiso   1.00
C231   C     0.53007   0.43149   0.06312   0.00000  Uiso   1.00
C232   C     0.61402   0.50712   0.24008   0.00000  Uiso   1.00
C233   C     0.47724   0.52812   0.41941   0.00000  Uiso   1.00
C234   C     0.65988   0.50990   0.23623   0.00000  Uiso   1.00
C235   C     0.34077   0.49032   0.26376   0.00000  Uiso   1.00
C236   C     0.51317   0.65577   0.23823   0.00000  Uiso   1.00
C237   C     0.48363   0.34553   0.26416   0.00000  Uiso   1.00
C238   C     0.48984   0.38931   0.25961   0.00000  Uiso   1.00
C239   C     0.50964   0.61115   0.24043   0.00000  Uiso   1.00
C240   C     0.47399   0.58259   0.48006   0.00000  Uiso   1.00
C241   C     0.51831   0.48125   0.12943   0.00000  Uiso   1.00
C242   C     0.48155   0.51766   0.37100   0.00000  Uiso   1.00
C243   C     0.52445   0.41819   0.02033   0.00000  Uiso   1.00
C244   C     0.52411   0.47194   0.08147   0.00000  Uiso   1.00
C245   C     0.46998   0.56870   0.43714   0.00000  Uiso   1.00
C246   C     0.48633   0.55670   0.00562   0.00000  Uiso   1.00
C247   C     0.49308   0.51511   0.48943   0.00000  Uiso   1.00
C248   C     0.48600   0.50026   0.44663   0.00000  Uiso   1.00
C249   C     0.50645   0.48773   0.01427   0.00000  Uiso   1.00
C250   C     0.51119   0.44581   0.49639   0.00000  Uiso   1.00
C251   C     0.50057   0.43145   0.45593   0.00000  Uiso   1.00
C252   C     0.48730   0.45784   0.43211   0.00000  Uiso   1.00
H253   H     0.53740   0.40979   0.08304   0.00000  Uiso   1.00
H254   H     0.34885   0.52794   0.21088   0.00000  Uiso   1.00
H255   H     0.42942   0.35171   0.31441   0.00000  Uiso   1.00
H256   H     0.42415   0.64742   0.27370   0.00000  Uiso   1.00
H257   H     0.55750   0.37753   0.47537   0.00000  Uiso   1.00
H258   H     0.53640   0.35908   0.02547   0.00000  Uiso   1.00
H259   H     0.65252   0.47211   0.28936   0.00000  Uiso   1.00
H260   H     0.54098   0.33711   0.21502   0.00000  Uiso   1.00
H261   H     0.50165   0.39929   0.44263   0.00000  Uiso   1.00
H262   H     0.50943   0.53072   0.07348   0.00000  Uiso   1.00
H263   H     0.46297   0.59043   0.41705   0.00000  Uiso   1.00
H264   H     0.49003   0.57034   0.03793   0.00000  Uiso   1.00
H265   H     0.46894   0.61423   0.49309   0.00000  Uiso   1.00
H266   H     0.47722   0.44410   0.40247   0.00000  Uiso   1.00
N267   N     0.44479   0.66129   0.29362   0.00000  Uiso   1.00
N268   N     0.53014   0.37618   0.00201   0.00000  Uiso   1.00
O269   O     0.50000   0.50000   0.25000   0.00000  Uiso   1.00
O270   O     0.48784   0.45970   0.15458   0.00000  Uiso   1.00
O271   O     0.46274   0.53724   0.34968   0.00000  Uiso   1.00
O272   O     0.54157   0.51092   0.14606   0.00000  Uiso   1.00
O273   O     0.50785   0.49213   0.34968   0.00000  Uiso   1.00
O274   O     0.51264   0.41352   0.28213   0.00000  Uiso   1.00
O275   O     0.47965   0.59418   0.27013   0.00000  Uiso   1.00
O276   O     0.40745   0.46625   0.23413   0.00000  Uiso   1.00
O277   O     0.60026   0.52605   0.21360   0.00000  Uiso   1.00
O278   O     0.40405   0.52211   0.28213   0.00000  Uiso   1.00
O279   O     0.58824   0.48559   0.27013   0.00000  Uiso   1.00
O280   O     0.47093   0.40277   0.23413   0.00000  Uiso   1.00
O281   O     0.53678   0.58953   0.21360   0.00000  Uiso   1.00
Zn282  Zn    0.52672   0.47327   0.28734   0.00000  Uiso   1.00
Zn283  Zn    0.46713   0.45791   0.21875   0.00000  Uiso   1.00
Zn284  Zn    0.54389   0.53109   0.20657   0.00000  Uiso   1.00
Zn285  Zn    0.46226   0.53773   0.28733   0.00000  Uiso   1.00
C286   C     0.71937   0.49289   0.26001   0.00000  Uiso   1.00
C287   C     0.84736   0.50021   0.05692   0.00000  Uiso   1.00
C288   C     0.86340   0.43149   0.06312   0.00000  Uiso   1.00
C289   C     0.94736   0.50712   0.24008   0.00000  Uiso   1.00
C290   C     0.81058   0.52812   0.41941   0.00000  Uiso   1.00
C291   C     0.99321   0.50990   0.23623   0.00000  Uiso   1.00
C292   C     0.67410   0.49032   0.26376   0.00000  Uiso   1.00
C293   C     0.84650   0.65577   0.23823   0.00000  Uiso   1.00
C294   C     0.81696   0.34553   0.26416   0.00000  Uiso   1.00
C295   C     0.82317   0.38931   0.25961   0.00000  Uiso   1.00
C296   C     0.84297   0.61115   0.24043   0.00000  Uiso   1.00
C297   C     0.80733   0.58259   0.48006   0.00000  Uiso   1.00
C298   C     0.85164   0.48125   0.12943   0.00000  Uiso   1.00
C299   C     0.81488   0.51766   0.37100   0.00000  Uiso   1.00
C300   C     0.85779   0.41819   0.02033   0.00000  Uiso   1.00
C301   C     0.85744   0.47194   0.08147   0.00000  Uiso   1.00
C302   C     0.80331   0.56870   0.43714   0.00000  Uiso   1.00
C303   C     0.81966   0.55670   0.00562   0.00000  Uiso   1.00
C304   C     0.82642   0.51511   0.48943   0.00000  Uiso   1.00
C305   C     0.81933   0.50026   0.44663   0.00000  Uiso   1.00
C306   C     0.83979   0.48773   0.01427   0.00000  Uiso   1.00
C307   C     0.84452   0.44581   0.49639   0.00000  Uiso   1.00
C308   C     0.83391   0.43145   0.45593   0.00000  Uiso   1.00
C309   C     0.82063   0.45784   0.43211   0.00000  Uiso   1.00
H310   H     0.87074   0.40979   0.08304   0.00000  Uiso   1.00
H311   H     0.68218   0.52794   0.21088   0.00000  Uiso   1.00
H312   H     0.76275   0.35171   0.31441   0.00000  Uiso   1.00
H313   H     0.75748   0.64742   0.27370   0.00000  Uiso   1.00
H314   H     0.89083   0.37753   0.47537   0.00000  Uiso   1.00
H315   H     0.86973   0.35908   0.02547   0.00000  Uiso   1.00
H316   H     0.98585   0.47211   0.28936   0.00000  Uiso   1.00
H317   H     0.87431   0.33711   0.21502   0.00000  Uiso   1.00
H318   H     0.83499   0.39929   0.44263   0.00000  Uiso   1.00
H319   H     0.84276   0.53072   0.07348   0.00000  Uiso   1.00
H320   H     0.79631   0.59043   0.41705   0.00000  Uiso   1.00
H321   H     0.82337   0.57034   0.03793   0.00000  Uiso   1.00
H322   H     0.80227   0.61423   0.49309   0.00000  Uiso   1.00
H323   H     0.81055   0.44410   0.40247   0.00000  Uiso   1.00
N324   N     0.77812   0.66129   0.29362   0.00000  Uiso   1.00
N325   N     0.86347   0.37618   0.00201   0.00000  Uiso   1.00
O326   O     0.83333   0.50000   0.25000   0.00000  Uiso   1.00
O327   O     0.82118   0.45970   0.15458   0.00000  Uiso   1.00
O328   O     0.79607   0.53724   0.34968   0.00000  Uiso   1.00
O329   O     0.87491   0.51092   0.14606   0.00000  Uiso   1.00
O330   O     0.84118   0.49213   0.34968   0.00000  Uiso   1.00
O331   O     0.84597   0.41352   0.28213   0.00000  Uiso   1.00
O332   O     0.81298   0.59418   0.27013   0.00000  Uiso   1.00
O333   O     0.74078   0.46625   0.23413   0.00000  Uiso   1.00
O334   O     0.93360   0.52605   0.21360   0.00000  Uiso   1.00
O335   O     0.73738   0.52211   0.28213   0.00000  Uiso   1.00
O336   O     0.92158   0.48559   0.27013   0.00000  Uiso   1.00
O337   O     0.80426   0.40277   0.23413   0.00000  Uiso   1.00
O338   O     0.87012   0.58953   0.21360   0.00000  Uiso   1.00
Zn339  Zn    0.86005   0.47327   0.28734   0.00000  Uiso   1.00
Zn340  Zn    0.80046   0.45791   0.21875   0.00000  Uiso   1.00
Zn341  Zn    0.87723   0.53109   0.20657   0.00000  Uiso   1.00
Zn342  Zn    0.79560   0.53773   0.28733   0.00000  Uiso   1.00
C343   C     0.05270   0.82622   0.26001   0.00000  Uiso   1.00
C344   C     0.18069   0.83354   0.05692   0.00000  Uiso   1.00
C345   C     0.19673   0.76483   0.06312   0.00000  Uiso   1.00
C346   C     0.28069   0.84045   0.24008   0.00000  Uiso   1.00
C347   C     0.14391   0.86145   0.41941   0.00000  Uiso   1.00
C348   C     0.32654   0.84323   0.23623   0.00000  Uiso   1.00
C349   C     0.00743   0.82365   0.26376   0.00000  Uiso   1.00
C350   C     0.17984   0.98910   0.23823   0.00000  Uiso   1.00
C351   C     0.15029   0.67886   0.26416   0.00000  Uiso   1.00
C352   C     0.15650   0.72265   0.25961   0.00000  Uiso   1.00
C353   C     0.17631   0.94449   0.24043   0.00000  Uiso   1.00
C354   C     0.14066   0.91593   0.48006   0.00000  Uiso   1.00
C355   C     0.18498   0.81459   0.12943   0.00000  Uiso   1.00
C356   C     0.14822   0.85100   0.37100   0.00000  Uiso   1.00
C357   C     0.19112   0.75153   0.02033   0.00000  Uiso   1.00
C358   C     0.19078   0.80528   0.08147   0.00000  Uiso   1.00
C359   C     0.13664   0.90204   0.43714   0.00000  Uiso   1.00
C360   C     0.15300   0.89003   0.00562   0.00000  Uiso   1.00
C361   C     0.15975   0.84844   0.48943   0.00000  Uiso   1.00
C362   C     0.15267   0.83359   0.44663   0.00000  Uiso   1.00
C363   C     0.17312   0.82106   0.01427   0.00000  Uiso   1.00
C364   C     0.17785   0.77915   0.49639   0.00000  Uiso   1.00
C365   C     0.16724   0.76478   0.45593   0.00000  Uiso   1.00
C366   C     0.15396   0.79117   0.43211   0.00000  Uiso   1.00
H367   H     0.20407   0.74313   0.08304   0.00000  Uiso   1.00
H368   H     0.01552   0.86127   0.21088   0.00000  Uiso   1.00
H369   H     0.09608   0.68504   0.31441   0.00000  Uiso   1.00
H370   H     0.09081   0.98075   0.27370   0.00000  Uiso   1.00
H371   H     0.22417   0.71086   0.47537   0.00000  Uiso   1.00
H372   H     0.20306   0.69242   0.02547   0.00000  Uiso   1.00
H373   H     0.31918   0.80544   0.28936   0.00000  Uiso   1.00
H374   H     0.20765   0.67045   0.21502   0.00000  Uiso   1.00
H375   H     0.16832   0.73262   0.44263   0.00000  Uiso   1.00
H376   H     0.17610   0.86405   0.07348   0.00000  Uiso   1.00
H377   H     0.12964   0.92376   0.41705   0.00000  Uiso   1.00
H378   H     0.15670   0.90367   0.03793   0.00000  Uiso   1.00
H379   H     0.13560   0.94757   0.49309   0.00000  Uiso   1.00
H380   H     0.14389   0.77743   0.40247   0.00000  Uiso   1.00
N381   N     0.11146   0.99462   0.29362   0.00000  Uiso   1.00
N382   N     0.19681   0.70951   0.00201   0.00000  Uiso   1.00
O383   O     0.16667   0.83333   0.25000   0.00000  Uiso   1.00
O384   O     0.15451   0.79304   0.15458   0.00000  Uiso   1.00
O385   O     0.12940   0.87058   0.34968   0.00000  Uiso   1.00
O386   O     0.20824   0.84425   0.14606   0.00000  Uiso   1.00
O387   O     0.17451   0.82546   0.34968   0.00000  Uiso   1.00
O388   O     0.17930   0.74686   0.28213   0.00000  Uiso   1.00
O389   O     0.14632   0.92751   0.27013   0.00000  Uiso   1.00
O390   O     0.07412   0.79958   0.23413   0.00000  Uiso   1.00
O391   O     0.26693   0.85939   0.21360   0.00000  Uiso   1.00
O392   O     0.07071   0.85544   0.28213   0.00000  Uiso   1.00
O393   O     0.25491   0.81892   0.27013   0.00000  Uiso   1.00
O394   O     0.13760   0.73610   0.23413   0.00000  Uiso   1.00
O395   O     0.20345   0.92286   0.21360   0.00000  Uiso   1.00
Zn396  Zn    0.19338   0.80661   0.28734   0.00000  Uiso   1.00
Zn397  Zn    0.13379   0.79124   0.21875   0.00000  Uiso   1.00
Zn398  Zn    0.21056   0.86442   0.20657   0.00000  Uiso   1.00
Zn399  Zn    0.12893   0.87106   0.28733   0.00000  Uiso   1.00
C400   C     0.38604   0.82622   0.26001   0.00000  Uiso   1.00
C401   C     0.51403   0.83354   0.05692   0.00000  Uiso   1.00
C402   C     0.53007   0.76483   0.06312   0.00000  Uiso   1.00
C403   C     0.61402   0.84045   0.24008   0.00000  Uiso   1.00
C404   C     0.47724   0.86145   0.41941   0.00000  Uiso   1.00
C405   C     0.65988   0.84323   0.23623   0.00000  Uiso   1.00
C406   C     0.34077   0.82365   0.26376   0.00000  Uiso   1.00
C407   C     0.51317   0.98910   0.23823   0.00000  Uiso   1.00
C408   C     0.48363   0.67886   0.26416   0.00000  Uiso   1.00
C409   C     0.48984   0.72265   0.25961   0.00000  Uiso   1.00
C410   C     0.50964   0.94449   0.24043   0.00000  Uiso   1.00
C411   C     0.47399   0.91593   0.48006   0.00000  Uiso   1.00
C412   C     0.51831   0.81459   0.12943   0.00000  Uiso   1.00
C413   C     0.48155   0.85100   0.37100   0.00000  Uiso   1.00
C414   C     0.52445   0.75153   0.02033   0.00000  Uiso   1.00
C415   C     0.52411   0.80528   0.08147   0.00000  Uiso   1.00
C416   C     0.46998   0.90204   0.43714   0.00000  Uiso   1.00
C417   C     0.48633   0.89003   0.00562   0.00000  Uiso   1.00
C418   C     0.49308   0.84844   0.48943   0.00000  Uiso   1.00
C419   C     0.48600   0.83359   0.44663   0.00000  Uiso   1.00
C420   C     0.50645   0.82106   0.01427   0.00000  Uiso   1.00
C421   C     0.51119   0.77915   0.49639   0.00000  Uiso   1.00
C422   C     0.50057   0.76478   0.45593   0.00000  Uiso   1.00
C423   C     0.48730   0.79117   0.43211   0.00000  Uiso   1.00
H424   H     0.53740   0.74313   0.08304   0.00000  Uiso   1.00
H425   H     0.34885   0.86127   0.21088   0.00000  Uiso   1.00
H426   H     0.42942   0.68504   0.31441   0.00000  Uiso   1.00
H427   H     0.42415   0.98075   0.27370   0.00000  Uiso   1.00
H428   H     0.55750   0.71086   0.47537   0.00000  Uiso   1.00
H429   H     0.53640   0.69242   0.02547   0.00000  Uiso   1.00
H430   H     0.65252   0.80544   0.28936   0.00000  Uiso   1.00
H431   H     0.54098   0.67045   0.21502   0.00000  Uiso   1.00
H432   H     0.50165   0.73262   0.44263   0.00000  Uiso   1.00
H433   H     0.50943   0.86405   0.07348   0.00000  Uiso   1.00
H434   H     0.46297   0.92376   0.41705   0.00000  Uiso   1.00
H435   H     0.49003   0.90367   0.03793   0.00000  Uiso   1.00
H436   H     0.46894   0.94757   0.49309   0.00000  Uiso   1.00
H437   H     0.47722   0.77743   0.40247   0.00000  Uiso   1.00
N438   N     0.44479   0.99462   0.29362   0.00000  Uiso   1.00
N439   N     0.53014   0.70951   0.00201   0.00000  Uiso   1.00
O440   O     0.50000   0.83333   0.25000   0.00000  Uiso   1.00
O441   O     0.48784   0.79304   0.15458   0.00000  Uiso   1.00
O442   O     0.46274   0.87058   0.34968   0.00000  Uiso   1.00
O443   O     0.54157   0.84425   0.14606   0.00000  Uiso   1.00
O444   O     0.50785   0.82546   0.34968   0.00000  Uiso   1.00
O445   O     0.51264   0.74686   0.28213   0.00000  Uiso   1.00
O446   O     0.47965   0.92751   0.27013   0.00000  Uiso   1.00
O447   O     0.40745   0.79958   0.23413   0.00000  Uiso   1.00
O448   O     0.60026   0.85939   0.21360   0.00000  Uiso   1.00
O449   O     0.40405   0.85544   0.28213   0.00000  Uiso   1.00
O450   O     0.58824   0.81892   0.27013   0.00000  Uiso   1.00
O451   O     0.47093   0.73610   0.23413   0.00000  Uiso   1.00
O452   O     0.53678   0.92286   0.21360   0.00000  Uiso   1.00
Zn453  Zn    0.52672   0.80661   0.28734   0.00000  Uiso   1.00
Zn454  Zn    0.46713   0.79124   0.21875   0.00000  Uiso   1.00
Zn455  Zn    0.54389   0.86442   0.20657   0.00000  Uiso   1.00
Zn456  Zn    0.46226   0.87106   0.28733   0.00000  Uiso   1.00
C457   C     0.71937   0.82622   0.26001   0.00000  Uiso   1.00
C458   C     0.84736   0.83354   0.05692   0.00000  Uiso   1.00
C459   C     0.86340   0.76483   0.06312   0.00000  Uiso   1.00
C460   C     0.94736   0.84045   0.24008   0.00000  Uiso   1.00
C461   C     0.81058   0.86145   0.41941   0.00000  Uiso   1.00
C462   C     0.99321   0.84323   0.23623   0.00000  Uiso   1.00
C463   C     0.67410   0.82365   0.26376   0.00000  Uiso   1.00
C464   C     0.84650   0.98910   0.23823   0.00000  Uiso   1.00
C465   C     0.81696   0.67886   0.26416   0.00000  Uiso   1.00
C466   C     0.82317   0.72265   0.25961   0.00000  Uiso   1.00
C467   C     0.84297   0.94449   0.24043   0.00000  Uiso   1.00
C468   C     0.80733   0.91593   0.48006   0.00000  Uiso   1.00
C469   C     0.85164   0.81459   0.12943   0.00000  Uiso   1.00
C470   C     0.81488   0.85100   0.37100   0.00000  Uiso   1.00
C471   C     0.85779   0.75153   0.02033   0.00000  Uiso   1.00
C472   C     0.85744   0.80528   0.08147   0.00000  Uiso   1.00
C473   C     0.80331   0.90204   0.43714   0.00000  Uiso   1.00
C474   C     0.81966   0.89003   0.00562   0.00000  Uiso   1.00
C475   C     0.82642   0.84844   0.48943   0.00000  Uiso   1.00
C476   C     0.81933   0.83359   0.44663   0.00000  Uiso   1.00
C477   C     0.83979   0.82106   0.01427   0.00000  Uiso   1.00
C478   C     0.84452   0.77915   0.49639   0.00000  Uiso   1.00
C479   C     0.83391   0.76478   0.45593   0.00000  Uiso   1.00
C480   C     0.82063   0.79117   0.43211   0.00000  Uiso   1.00
H481   H     0.87074   0.74313   0.08304   0.00000  Uiso   1.00
H482   H     0.68218   0.86127   0.21088   0.00000  Uiso   1.00
H483   H     0.76275   0.68504   0.31441   0.00000  Uiso   1.00
H484   H     0.75748   0.98075   0.27370   0.00000  Uiso   1.00
H485   H     0.89083   0.71086   0.47537   0.00000  Uiso   1.00
H486   H     0.86973   0.69242   0.02547   0.00000  Uiso   1.00
H487   H     0.98585   0.80544   0.28936   0.00000  Uiso   1.00
H488   H     0.87431   0.67045   0.21502   0.00000  Uiso   1.00
H489   H     0.83499   0.73262   0.44263   0.00000  Uiso   1.00
H490   H     0.84276   0.86405   0.07348   0.00000  Uiso   1.00
H491   H     0.79631   0.92376   0.41705   0.00000  Uiso   1.00
H492   H     0.82337   0.90367   0.03793   0.00000  Uiso   1.00
H493   H     0.80227   0.94757   0.49309   0.00000  Uiso   1.00
H494   H     0.81055   0.77743   0.40247   0.00000  Uiso   1.00
N495   N     0.77812   0.99462   0.29362   0.00000  Uiso   1.00
N496   N     0.86347   0.70951   0.00201   0.00000  Uiso   1.00
O497   O     0.83333   0.83333   0.25000   0.00000  Uiso   1.00
O498   O     0.82118   0.79304   0.15458   0.00000  Uiso   1.00
O499   O     0.79607   0.87058   0.34968   0.00000  Uiso   1.00
O500   O     0.87491   0.84425   0.14606   0.00000  Uiso   1.00
O501   O     0.84118   0.82546   0.34968   0.00000  Uiso   1.00
O502   O     0.84597   0.74686   0.28213   0.00000  Uiso   1.00
O503   O     0.81298   0.92751   0.27013   0.00000  Uiso   1.00
O504   O     0.74078   0.79958   0.23413   0.00000  Uiso   1.00
O505   O     0.93360   0.85939   0.21360   0.00000  Uiso   1.00
O506   O     0.73738   0.85544   0.28213   0.00000  Uiso   1.00
O507   O     0.92158   0.81892   0.27013   0.00000  Uiso   1.00
O508   O     0.80426   0.73610   0.23413   0.00000  Uiso   1.00
O509   O     0.87012   0.92286   0.21360   0.00000  Uiso   1.00
Zn510  Zn    0.86005   0.80661   0.28734   0.00000  Uiso   1.00
Zn511  Zn    0.80046   0.79124   0.21875   0.00000  Uiso   1.00
Zn512  Zn    0.87723   0.86442   0.20657   0.00000  Uiso   1.00
Zn513  Zn    0.79560   0.87106   0.28733   0.00000  Uiso   1.00
C514   C     0.05270   0.15956   0.76001   0.00000  Uiso   1.00
C515   C     0.18069   0.16688   0.55692   0.00000  Uiso   1.00
C516   C     0.19673   0.09816   0.56312   0.00000  Uiso   1.00
C517   C     0.28069   0.17379   0.74008   0.00000  Uiso   1.00
C518   C     0.14391   0.19479   0.91941   0.00000  Uiso   1.00
C519   C     0.32654   0.17657   0.73623   0.00000  Uiso   1.00
C520   C     0.00743   0.15699   0.76376   0.00000  Uiso   1.00
C521   C     0.17984   0.32243   0.73823   0.00000  Uiso   1.00
C522   C     0.15029   0.01219   0.76416   0.00000  Uiso   1.00
C523   C     0.15650   0.05598   0.75961   0.00000  Uiso   1.00
C524   C     0.17631   0.27782   0.74043   0.00000  Uiso   1.00
C525   C     0.14066   0.24926   0.98006   0.00000  Uiso   1.00
C526   C     0.18498   0.14792   0.62943   0.00000  Uiso   1.00
C527   C     0.14822   0.18433   0.87100   0.00000  Uiso   1.00
C528   C     0.19112   0.08486   0.52033   0.00000  Uiso   1.00
C529   C     0.19078   0.13861   0.58147   0.00000  Uiso   1.00
C530   C     0.13664   0.23537   0.93714   0.00000  Uiso   1.00
C531   C     0.15300   0.22337   0.50562   0.00000  Uiso   1.00
C532   C     0.15975   0.18178   0.98943   0.00000  Uiso   1.00
C533   C     0.15267   0.16693   0.94663   0.00000  Uiso   1.00
C534   C     0.17312   0.15440   0.51427   0.00000  Uiso   1.00
C535   C     0.17785   0.11248   0.99639   0.00000  Uiso   1.00
C536   C     0.16724   0.09812   0.95593   0.00000  Uiso   1.00
C537   C     0.15396   0.12451   0.93211   0.00000  Uiso   1.00
H538   H     0.20407   0.07646   0.58304   0.00000  Uiso   1.00
H539   H     0.01552   0.19460   0.71088   0.00000  Uiso   1.00
H540   H     0.09608   0.01837   0.81441   0.00000  Uiso   1.00
H541   H     0.09081   0.31409   0.77370   0.00000  Uiso   1.00
H542   H     0.22417   0.04419   0.97537   0.00000  Uiso   1.00
H543   H     0.20306   0.02575   0.52547   0.00000  Uiso   1.00
H544   H     0.31918   0.13878   0.78936   0.00000  Uiso   1.00
H545   H     0.20765   0.00378   0.71502   0.00000  Uiso   1.00
H546   H     0.16832   0.06595   0.94263   0.00000  Uiso   1.00
H547   H     0.17610   0.19738   0.57348   0.00000  Uiso   1.00
H548   H     0.12964   0.25709   0.91705   0.00000  Uiso   1.00
H549   H     0.15670   0.23701   0.53793   0.00000  Uiso   1.00
H550   H     0.13560   0.28090   0.99309   0.00000  Uiso   1.00
H551   H     0.14389   0.11077   0.90247   0.00000  Uiso   1.00
N552   N     0.11146   0.32795   0.79362   0.00000  Uiso   1.00
N553   N     0.19681   0.04285   0.50201   0.00000  Uiso   1.00
O554   O     0.16667   0.16667   0.75000   0.00000  Uiso   1.00
O555   O     0.15451   0.12637   0.65458   0.00000  Uiso   1.00
O556   O     0.12940   0.20391   0.84968   0.00000  Uiso   1.00
O557   O     0.20824   0.17759   0.64606   0.00000  Uiso   1.00
O558   O     0.17451   0.15880   0.84968   0.00000  Uiso   1.00
O559   O     0.17930   0.08019   0.78213   0.00000  Uiso   1.00
O560   O     0.14632   0.26085   0.77013   0.00000  Uiso   1.00
O561   O     0.07412   0.13291   0.73413   0.00000  Uiso   1.00
O562   O     0.26693   0.19272   0.71360   0.00000  Uiso   1.00
O563   O     0.07071   0.18878   0.78213   0.00000  Uiso   1.00
O564   O     0.25491   0.15226   0.77013   0.00000  Uiso   1.00
O565   O     0.13760   0.06944   0.73413   0.00000  Uiso   1.00
O566   O     0.20345   0.25620   0.71360   0.00000  Uiso   1.00
Zn567  Zn    0.19338   0.13994   0.78734   0.00000  Uiso   1.00
Zn568  Zn    0.13379   0.12458   0.71875   0.00000  Uiso   1.00
Zn569  Zn    0.21056   0.19775   0.70657   0.00000  Uiso   1.00
Zn570  Zn    0.12893   0.20439   0.78733   0.00000  Uiso   1.00
C571   C     0.38604   0.15956   0.76001   0.00000  Uiso   1.00
C572   C     0.51403   0.16688   0.55692   0.00000  Uiso   1.00
C573   C     0.53007   0.09816   0.56312   0.00000  Uiso   1.00
C574   C     0.61402   0.17379   0.74008   0.00000  Uiso   1.00
C575   C     0.47724   0.19479   0.91941   0.00000  Uiso   1.00
C576   C     0.65988   0.17657   0.73623   0.00000  Uiso   1.00
C577   C     0.34077   0.15699   0.76376   0.00000  Uiso   1.00
C578   C     0.51317   0.32243   0.73823   0.00000  Uiso   1.00
C579   C     0.48363   0.01219   0.76416   0.00000  Uiso   1.00
C580   C     0.48984   0.05598   0.75961   0.00000  Uiso   1.00
C581   C     0.50964   0.27782   0.74043   0.00000  Uiso   1.00
C582   C     0.47399   0.24926   0.98006   0.00000  Uiso   1.00
C583   C     0.51831   0.14792   0.62943   0.00000  Uiso   1.00
C584   C     0.48155   0.18433   0.87100   0.00000  Uiso   1.00
C585   C     0.52445   0.08486   0.52033   0.00000  Uiso   1.00
C586   C     0.52411   0.13861   0.58147   0.00000  Uiso   1.00
C587   C     0.46998   0.23537   0.93714   0.00000  Uiso   1.00
C588   C     0.48633   0.22337   0.50562   0.00000  Uiso   1.00
C589   C     0.49308   0.18178   0.98943   0.00000  Uiso   1.00
C590   C     0.48600   0.16693   0.94663   0.00000  Uiso   1.00
C591   C     0.50645   0.15440   0.51427   0.00000  Uiso   1.00
C592   C     0.51119   0.11248   0.99639   0.00000  Uiso   1.00
C593   C     0.50057   0.09812   0.95593   0.00000  Uiso   1.00
C594   C     0.48730   0.12451   0.93211   0.00000  Uiso   1.00
H595   H     0.53740   0.07646   0.58304   0.00000  Uiso   1.00
H596   H     0.34885   0.19460   0.71088   0.00000  Uiso   1.00
H597   H     0.42942   0.01837   0.81441   0.00000  Uiso   1.00
H598   H     0.42415   0.31409   0.77370   0.00000  Uiso   1.00
H599   H     0.55750   0.04419   0.97537   0.00000  Uiso   1.00
H600   H     0.53640   0.02575   0.52547   0.00000  Uiso   1.00
H601   H     0.65252   0.13878   0.78936   0.00000  Uiso   1.00
H602   H     0.54098   0.00378   0.71502   0.00000  Uiso   1.00
H603   H     0.50165   0.06595   0.94263   0.00000  Uiso   1.00
H604   H     0.50943   0.19738   0.57348   0.00000  Uiso   1.00
H605   H     0.46297   0.25709   0.91705   0.00000  Uiso   1.00
H606   H     0.49003   0.23701   0.53793   0.00000  Uiso   1.00
H607   H     0.46894   0.28090   0.99309   0.00000  Uiso   1.00
H608   H     0.47722   0.11077   0.90247   0.00000  Uiso   1.00
N609   N     0.44479   0.32795   0.79362   0.00000  Uiso   1.00
N610   N     0.53014   0.04285   0.50201   0.00000  Uiso   1.00
O611   O     0.50000   0.16667   0.75000   0.00000  Uiso   1.00
O612   O     0.48784   0.12637   0.65458   0.00000  Uiso   1.00
O613   O     0.46274   0.20391   0.84968   0.00000  Uiso   1.00
O614   O     0.54157   0.17759   0.64606   0.00000  Uiso   1.00
O615   O     0.50785   0.15880   0.84968   0.00000  Uiso   1.00
O616   O     0.51264   0.08019   0.78213   0.00000  Uiso   1.00
O617   O     0.47965   0.26085   0.77013   0.00000  Uiso   1.00
O618   O     0.40745   0.13291   0.73413   0.00000  Uiso   1.00
O619   O     0.60026   0.19272   0.71360   0.00000  Uiso   1.00
O620   O     0.40405   0.18878   0.78213   0.00000  Uiso   1.00
O621   O     0.58824   0.15226   0.77013   0.00000  Uiso   1.00
O622   O     0.47093   0.06944   0.73413   0.00000  Uiso   1.00
O623   O     0.53678   0.25620   0.71360   0.00000  Uiso   1.00
Zn624  Zn    0.52672   0.13994   0.78734   0.00000  Uiso   1.00
Zn625  Zn    0.46713   0.12458   0.71875   0.00000  Uiso   1.00
Zn626  Zn    0.54389   0.19775   0.70657   0.00000  Uiso   1.00
Zn627  Zn    0.46226   0.20439   0.78733   0.00000  Uiso   1.00
C628   C     0.71937   0.15956   0.76001   0.00000  Uiso   1.00
C629   C     0.84736   0.16688   0.55692   0.00000  Uiso   1.00
C630   C     0.86340   0.09816   0.56312   0.00000  Uiso   1.00
C631   C     0.94736   0.17379   0.74008   0.00000  Uiso   1.00
C632   C     0.81058   0.19479   0.91941   0.00000  Uiso   1.00
C633   C     0.99321   0.17657   0.73623   0.00000  Uiso   1.00
C634   C     0.67410   0.15699   0.76376   0.00000  Uiso   1.00
C635   C     0.84650   0.32243   0.73823   0.00000  Uiso   1.00
C636   C     0.81696   0.01219   0.76416   0.00000  Uiso   1.00
C637   C     0.82317   0.05598   0.75961   0.00000  Uiso   1.00
C638   C     0.84297   0.27782   0.74043   0.00000  Uiso   1.00
C639   C     0.80733   0.24926   0.98006   0.00000  Uiso   1.00
C640   C     0.85164   0.14792   0.62943   0.00000  Uiso   1.00
C641   C     0.81488   0.18433   0.87100   0.00000  Uiso   1.00
C642   C     0.85779   0.08486   0.52033   0.00000  Uiso   1.00
C643   C     0.85744   0.13861   0.58147   0.00000  Uiso   1.00
C644   C     0.80331   0.23537   0.93714   0.00000  Uiso   1.00
C645   C     0.81966   0.22337   0.50562   0.00000  Uiso   1.00
C646   C     0.82642   0.18178   0.98943   0.00000  Uiso   1.00
C647   C     0.81933   0.16693   0.94663   0.00000  Uiso   1.00
C648   C     0.83979   0.15440   0.51427   0.00000  Uiso   1.00
C649   C     0.84452   0.11248   0.99639   0.00000  Uiso   1.00
C650   C     0.83391   0.09812   0.95593   0.00000  Uiso   1.00
C651   C     0.82063   0.12451   0.93211   0.00000  Uiso   1.00
H652   H     0.87074   0.07646   0.58304   0.00000  Uiso   1.00
H653   H     0.68218   0.19460   0.71088   0.00000  Uiso   1.00
H654   H     0.76275   0.01837   0.81441   0.00000  Uiso   1.00
H655   H     0.75748   0.31409   0.77370   0.00000  Uiso   1.00
H656   H     0.89083   0.04419   0.97537   0.00000  Uiso   1.00
H657   H     0.86973   0.02575   0.52547   0.00000  Uiso   1.00
H658   H     0.98585   0.13878   0.78936   0.00000  Uiso   1.00
H659   H     0.87431   0.00378   0.71502   0.00000  Uiso   1.00
H660   H     0.83499   0.06595   0.94263   0.00000  Uiso   1.00
H661   H     0.84276   0.19738   0.57348   0.00000  Uiso   1.00
H662   H     0.79631   0.25709   0.91705   0.00000  Uiso   1.00
H663   H     0.82337   0.23701   0.53793   0.00000  Uiso   1.00
H664   H     0.80227   0.28090   0.99309   0.00000  Uiso   1.00
H665   H     0.81055   0.11077   0.90247   0.00000  Uiso   1.00
N666   N     0.77812   0.32795   0.79362   0.00000  Uiso   1.00
N667   N     0.86347   0.04285   0.50201   0.00000  Uiso   1.00
O668   O     0.83333   0.16667   0.75000   0.00000  Uiso   1.00
O669   O     0.82118   0.12637   0.65458   0.00000  Uiso   1.00
O670   O     0.79607   0.20391   0.84968   0.00000  Uiso   1.00
O671   O     0.87491   0.17759   0.64606   0.00000  Uiso   1.00
O672   O     0.84118   0.15880   0.84968   0.00000  Uiso   1.00
O673   O     0.84597   0.08019   0.78213   0.00000  Uiso   1.00
O674   O     0.81298   0.26085   0.77013   0.00000  Uiso   1.00
O675   O     0.74078   0.13291   0.73413   0.00000  Uiso   1.00
O676   O     0.93360   0.19272   0.71360   0.00000  Uiso   1.00
O677   O     0.73738   0.18878   0.78213   0.00000  Uiso   1.00
O678   O     0.92158   0.15226   0.77013   0.00000  Uiso   1.00
O679   O     0.80426   0.06944   0.73413   0.00000  Uiso   1.00
O680   O     0.87012   0.25620   0.71360   0.00000  Uiso   1.00
Zn681  Zn    0.86005   0.13994   0.78734   0.00000  Uiso   1.00
Zn682  Zn    0.80046   0.12458   0.71875   0.00000  Uiso   1.00
Zn683  Zn    0.87723   0.19775   0.70657   0.00000  Uiso   1.00
Zn684  Zn    0.79560   0.20439   0.78733   0.00000  Uiso   1.00
C685   C     0.05270   0.49289   0.76001   0.00000  Uiso   1.00
C686   C     0.18069   0.50021   0.55692   0.00000  Uiso   1.00
C687   C     0.19673   0.43149   0.56312   0.00000  Uiso   1.00
C688   C     0.28069   0.50712   0.74008   0.00000  Uiso   1.00
C689   C     0.14391   0.52812   0.91941   0.00000  Uiso   1.00
C690   C     0.32654   0.50990   0.73623   0.00000  Uiso   1.00
C691   C     0.00743   0.49032   0.76376   0.00000  Uiso   1.00
C692   C     0.17984   0.65577   0.73823   0.00000  Uiso   1.00
C693   C     0.15029   0.34553   0.76416   0.00000  Uiso   1.00
C694   C     0.15650   0.38931   0.75961   0.00000  Uiso   1.00
C695   C     0.17631   0.61115   0.74043   0.00000  Uiso   1.00
C696   C     0.14066   0.58259   0.98006   0.00000  Uiso   1.00
C697   C     0.18498   0.48125   0.62943   0.00000  Uiso   1.00
C698   C     0.14822   0.51766   0.87100   0.00000  Uiso   1.00
C699   C     0.19112   0.41819   0.52033   0.00000  Uiso   1.00
C700   C     0.19078   0.47194   0.58147   0.00000  Uiso   1.00
C701   C     0.13664   0.56870   0.93714   0.00000  Uiso   1.00
C702   C     0.15300   0.55670   0.50562   0.00000  Uiso   1.00
C703   C     0.15975   0.51511   0.98943   0.00000  Uiso   1.00
C704   C     0.15267   0.50026   0.94663   0.00000  Uiso   1.00
C705   C     0.17312   0.48773   0.51427   0.00000  Uiso   1.00
C706   C     0.17785   0.44581   0.99639   0.00000  Uiso   1.00
C707   C     0.16724   0.43145   0.95593   0.00000  Uiso   1.00
C708   C     0.15396   0.45784   0.93211   0.00000  Uiso   1.00
H709   H     0.20407   0.40979   0.58304   0.00000  Uiso   1.00
H710   H     0.01552   0.52794   0.71088   0.00000  Uiso   1.00
H711   H     0.09608   0.35171   0.81441   0.00000  Uiso   1.00
H712   H     0.09081   0.64742   0.77370   0.00000  Uiso   1.00
H713   H     0.22417   0.37753   0.97537   0.00000  Uiso   1.00
H714   H     0.20306   0.35908   0.52547   0.00000  Uiso   1.00
H715   H     0.31918   0.47211   0.78936   0.00000  Uiso   1.00
H716   H     0.20765   0.33711   0.71502   0.00000  Uiso   1.00
H717   H     0.16832   0.39929   0.94263   0.00000  Uiso   1.00
H718   H     0.17610   0.53072   0.57348   0.00000  Uiso   1.00
H719   H     0.12964   0.59043   0.91705   0.00000  Uiso   1.00
H720   H     0.15670   0.57034   0.53793   0.00000  Uiso   1.00
H721   H     0.13560   0.61423   0.99309   0.00000  Uiso   1.00
H722   H     0.14389   0.44410   0.90247   0.00000  Uiso   1.00
N723   N     0.11146   0.66129   0.79362   0.00000  Uiso   1.00
N724   N     0.19681   0.37618   0.50201   0.00000  Uiso   1.00
O725   O     0.16667   0.50000   0.75000   0.00000  Uiso   1.00
O726   O     0.15451   0.45970   0.65458   0.00000  Uiso   1.00
O727   O     0.12940   0.53724   0.84968   0.00000  Uiso   1.00
O728   O     0.20824   0.51092   0.64606   0.00000  Uiso   1.00
O729   O     0.17451   0.49213   0.84968   0.00000  Uiso   1.00
O730   O     0.17930   0.41352   0.78213   0.00000  Uiso   1.00
O731   O     0.14632   0.59418   0.77013   0.00000  Uiso   1.00
O732   O     0.07412   0.46625   0.73413   0.00000  Uiso   1.00
O733   O     0.26693   0.52605   0.71360   0.00000  Uiso   1.00
O734   O     0.07071   0.52211   0.78213   0.00000  Uiso   1.00
O735   O     0.25491   0.48559   0.77013   0.00000  Uiso   1.00
O736   O     0.13760   0.40277   0.73413   0.00000  Uiso   1.00
O737   O     0.20345   0.58953   0.71360   0.00000  Uiso   1.00
Zn738  Zn    0.19338   0.47327   0.78734   0.00000  Uiso   1.00
Zn739  Zn    0.13379   0.45791   0.71875   0.00000  Uiso   1.00
Zn740  Zn    0.21056   0.53109   0.70657   0.00000  Uiso   1.00
Zn741  Zn    0.12893   0.53773   0.78733   0.00000  Uiso   1.00
C742   C     0.38604   0.49289   0.76001   0.00000  Uiso   1.00
C743   C     0.51403   0.50021   0.55692   0.00000  Uiso   1.00
C744   C     0.53007   0.43149   0.56312   0.00000  Uiso   1.00
C745   C     0.61402   0.50712   0.74008   0.00000  Uiso   1.00
C746   C     0.47724   0.52812   0.91941   0.00000  Uiso   1.00
C747   C     0.65988   0.50990   0.73623   0.00000  Uiso   1.00
C748   C     0.34077   0.49032   0.76376   0.00000  Uiso   1.00
C749   C     0.51317   0.65577   0.73823   0.00000  Uiso   1.00
C750   C     0.48363   0.34553   0.76416   0.00000  Uiso   1.00
C751   C     0.48984   0.38931   0.75961   0.00000  Uiso   1.00
C752   C     0.50964   0.61115   0.74043   0.00000  Uiso   1.00
C753   C     0.47399   0.58259   0.98006   0.00000  Uiso   1.00
C754   C     0.51831   0.48125   0.62943   0.00000  Uiso   1.00
C755   C     0.48155   0.51766   0.87100   0.00000  Uiso   1.00
C756   C     0.52445   0.41819   0.52033   0.00000  Uiso   1.00
C757   C     0.52411   0.47194   0.58147   0.00000  Uiso   1.00
C758   C     0.46998   0.56870   0.93714   0.00000  Uiso   1.00
C759   C     0.48633   0.55670   0.50562   0.00000  Uiso   1.00
C760   C     0.49308   0.51511   0.98943   0.00000  Uiso   1.00
C761   C     0.48600   0.50026   0.94663   0.00000  Uiso   1.00
C762   C     0.50645   0.48773   0.51427   0.00000  Uiso   1.00
C763   C     0.51119   0.44581   0.99639   0.00000  Uiso   1.00
C764   C     0.50057   0.43145   0.95593   0.00000  Uiso   1.00
C765   C     0.48730   0.45784   0.93211   0.00000  Uiso   1.00
H766   H     0.53740   0.40979   0.58304   0.00000  Uiso   1.00
H767   H     0.34885   0.52794   0.71088   0.00000  Uiso   1.00
H768   H     0.42942   0.35171   0.81441   0.00000  Uiso   1.00
H769   H     0.42415   0.64742   0.77370   0.00000  Uiso   1.00
H770   H     0.55750   0.37753   0.97537   0.00000  Uiso   1.00
H771   H     0.53640   0.35908   0.52547   0.00000  Uiso   1.00
H772   H     0.65252   0.47211   0.78936   0.00000  Uiso   1.00
H773   H     0.54098   0.33711   0.71502   0.00000  Uiso   1.00
H774   H     0.50165   0.39929   0.94263   0.00000  Uiso   1.00
H775   H     0.50943   0.53072   0.57348   0.00000  Uiso   1.00
H776   H     0.46297   0.59043   0.91705   0.00000  Uiso   1.00
H777   H     0.49003   0.57034   0.53793   0.00000  Uiso   1.00
H778   H     0.46894   0.61423   0.99309   0.00000  Uiso   1.00
H779   H     0.47722   0.44410   0.90247   0.00000  Uiso   1.00
N780   N     0.44479   0.66129   0.79362   0.00000  Uiso   1.00
N781   N     0.53014   0.37618   0.50201   0.00000  Uiso   1.00
O782   O     0.50000   0.50000   0.75000   0.00000  Uiso   1.00
O783   O     0.48784   0.45970   0.65458   0.00000  Uiso   1.00
O784   O     0.46274   0.53724   0.84968   0.00000  Uiso   1.00
O785   O     0.54157   0.51092   0.64606   0.00000  Uiso   1.00
O786   O     0.50785   0.49213   0.84968   0.00000  Uiso   1.00
O787   O     0.51264   0.41352   0.78213   0.00000  Uiso   1.00
O788   O     0.47965   0.59418   0.77013   0.00000  Uiso   1.00
O789   O     0.40745   0.46625   0.73413   0.00000  Uiso   1.00
O790   O     0.60026   0.52605   0.71360   0.00000  Uiso   1.00
O791   O     0.40405   0.52211   0.78213   0.00000  Uiso   1.00
O792   O     0.58824   0.48559   0.77013   0.00000  Uiso   1.00
O793   O     0.47093   0.40277   0.73413   0.00000  Uiso   1.00
O794   O     0.53678   0.58953   0.71360   0.00000  Uiso   1.00
Zn795  Zn    0.52672   0.47327   0.78734   0.00000  Uiso   1.00
Zn796  Zn    0.46713   0.45791   0.71875   0.00000  Uiso   1.00
Zn797  Zn    0.54389   0.53109   0.70657   0.00000  Uiso   1.00
Zn798  Zn    0.46226   0.53773   0.78733   0.00000  Uiso   1.00
C799   C     0.71937   0.49289   0.76001   0.00000  Uiso   1.00
C800   C     0.84736   0.50021   0.55692   0.00000  Uiso   1.00
C801   C     0.86340   0.43149   0.56312   0.00000  Uiso   1.00
C802   C     0.94736   0.50712   0.74008   0.00000  Uiso   1.00
C803   C     0.81058   0.52812   0.91941   0.00000  Uiso   1.00
C804   C     0.99321   0.50990   0.73623   0.00000  Uiso   1.00
C805   C     0.67410   0.49032   0.76376   0.00000  Uiso   1.00
C806   C     0.84650   0.65577   0.73823   0.00000  Uiso   1.00
C807   C     0.81696   0.34553   0.76416   0.00000  Uiso   1.00
C808   C     0.82317   0.38931   0.75961   0.00000  Uiso   1.00
C809   C     0.84297   0.61115   0.74043   0.00000  Uiso   1.00
C810   C     0.80733   0.58259   0.98006   0.00000  Uiso   1.00
C811   C     0.85164   0.48125   0.62943   0.00000  Uiso   1.00
C812   C     0.81488   0.51766   0.87100   0.00000  Uiso   1.00
C813   C     0.85779   0.41819   0.52033   0.00000  Uiso   1.00
C814   C     0.85744   0.47194   0.58147   0.00000  Uiso   1.00
C815   C     0.80331   0.56870   0.93714   0.00000  Uiso   1.00
C816   C     0.81966   0.55670   0.50562   0.00000  Uiso   1.00
C817   C     0.82642   0.51511   0.98943   0.00000  Uiso   1.00
C818   C     0.81933   0.50026   0.94663   0.00000  Uiso   1.00
C819   C     0.83979   0.48773   0.51427   0.00000  Uiso   1.00
C820   C     0.84452   0.44581   0.99639   0.00000  Uiso   1.00
C821   C     0.83391   0.43145   0.95593   0.00000  Uiso   1.00
C822   C     0.82063   0.45784   0.93211   0.00000  Uiso   1.00
H823   H     0.87074   0.40979   0.58304   0.00000  Uiso   1.00
H824   H     0.68218   0.52794   0.71088   0.00000  Uiso   1.00
H825   H     0.76275   0.35171   0.81441   0.00000  Uiso   1.00
H826   H     0.75748   0.64742   0.77370   0.00000  Uiso   1.00
H827   H     0.89083   0.37753   0.97537   0.00000  Uiso   1.00
H828   H     0.86973   0.35908   0.52547   0.00000  Uiso   1.00
H829   H     0.98585   0.47211   0.78936   0.00000  Uiso   1.00
H830   H     0.87431   0.33711   0.71502   0.00000  Uiso   1.00
H831   H     0.83499   0.39929   0.94263   0.00000  Uiso   1.00
H832   H     0.84276   0.53072   0.57348   0.00000  Uiso   1.00
H833   H     0.79631   0.59043   0.91705   0.00000  Uiso   1.00
H834   H     0.82337   0.57034   0.53793   0.00000  Uiso   1.00
H835   H     0.80227   0.61423   0.99309   0.00000  Uiso   1.00
H836   H     0.81055   0.44410   0.90247   0.00000  Uiso   1.00
N837   N     0.77812   0.66129   0.79362   0.00000  Uiso   1.00
N838   N     0.86347   0.37618   0.50201   0.00000  Uiso   1.00
O839   O     0.83333   0.50000   0.75000   0.00000  Uiso   1.00
O840   O     0.82118   0.45970   0.65458   0.00000  Uiso   1.00
O841   O     0.79607   0.53724   0.84968   0.00000  Uiso   1.00
O842   O     0.87491   0.51092   0.64606   0.00000  Uiso   1.00
O843   O     0.84118   0.49213   0.84968   0.00000  Uiso   1.00
O844   O     0.84597   0.41352   0.78213   0.00000  Uiso   1.00
O845   O     0.81298   0.59418   0.77013   0.00000  Uiso   1.00
O846   O     0.74078   0.46625   0.73413   0.00000  Uiso   1.00
O847   O     0.93360   0.52605   0.71360   0.00000  Uiso   1.00
O848   O     0.73738   0.52211   0.78213   0.00000  Uiso   1.00
O849   O     0.92158   0.48559   0.77013   0.00000  Uiso   1.00
O850   O     0.80426   0.40277   0.73413   0.00000  Uiso   1.00
O851   O     0.87012   0.58953   0.71360   0.00000  Uiso   1.00
Zn852  Zn    0.86005   0.47327   0.78734   0.00000  Uiso   1.00
Zn853  Zn    0.80046   0.45791   0.71875   0.00000  Uiso   1.00
Zn854  Zn    0.87723   0.53109   0.70657   0.00000  Uiso   1.00
Zn855  Zn    0.79560   0.53773   0.78733   0.00000  Uiso   1.00
C856   C     0.05270   0.82622   0.76001   0.00000  Uiso   1.00
C857   C     0.18069   0.83354   0.55692   0.00000  Uiso   1.00
C858   C     0.19673   0.76483   0.56312   0.00000  Uiso   1.00
C859   C     0.28069   0.84045   0.74008   0.00000  Uiso   1.00
C860   C     0.14391   0.86145   0.91941   0.00000  Uiso   1.00
C861   C     0.32654   0.84323   0.73623   0.00000  Uiso   1.00
C862   C     0.00743   0.82365   0.76376   0.00000  Uiso   1.00
C863   C     0.17984   0.98910   0.73823   0.00000  Uiso   1.00
C864   C     0.15029   0.67886   0.76416   0.00000  Uiso   1.00
C865   C     0.15650   0.72265   0.75961   0.00000  Uiso   1.00
C866   C     0.17631   0.94449   0.74043   0.00000  Uiso   1.00
C867   C     0.14066   0.91593   0.98006   0.00000  Uiso   1.00
C868   C     0.18498   0.81459   0.62943   0.00000  Uiso   1.00
C869   C     0.14822   0.85100   0.87100   0.00000  Uiso   1.00
C870   C     0.19112   0.75153   0.52033   0.00000  Uiso   1.00
C871   C     0.19078   0.80528   0.58147   0.00000  Uiso   1.00
C872   C     0.13664   0.90204   0.93714   0.00000  Uiso   1.00
C873   C     0.15300   0.89003   0.50562   0.00000  Uiso   1.00
C874   C     0.15975   0.84844   0.98943   0.00000  Uiso   1.00
C875   C     0.15267   0.83359   0.94663   0.00000  Uiso   1.00
C876   C     0.17312   0.82106   0.51427   0.00000  Uiso   1.00
C877   C     0.17785   0.77915   0.99639   0.00000  Uiso   1.00
C878   C     0.16724   0.76478   0.95593   0.00000  Uiso   1.00
C879   C     0.15396   0.79117   0.93211   0.00000  Uiso   1.00
H880   H     0.20407   0.74313   0.58304   0.00000  Uiso   1.00
H881   H     0.01552   0.86127   0.71088   0.00000  Uiso   1.00
H882   H     0.09608   0.68504   0.81441   0.00000  Uiso   1.00
H883   H     0.09081   0.98075   0.77370   0.00000  Uiso   1.00
H884   H     0.22417   0.71086   0.97537   0.00000  Uiso   1.00
H885   H     0.20306   0.69242   0.52547   0.00000  Uiso   1.00
H886   H     0.31918   0.80544   0.78936   0.00000  Uiso   1.00
H887   H     0.20765   0.67045   0.71502   0.00000  Uiso   1.00
H888   H     0.16832   0.73262   0.94263   0.00000  Uiso   1.00
H889   H     0.17610   0.86405   0.57348   0.00000  Uiso   1.00
H890   H     0.12964   0.92376   0.91705   0.00000  Uiso   1.00
H891   H     0.15670   0.90367   0.53793   0.00000  Uiso   1.00
H892   H     0.13560   0.94757   0.99309   0.00000  Uiso   1.00
H893   H     0.14389   0.77743   0.90247   0.00000  Uiso   1.00
N894   N     0.11146   0.99462   0.79362   0.00000  Uiso   1.00
N895   N     0.19681   0.70951   0.50201   0.00000  Uiso   1.00
O896   O     0.16667   0.83333   0.75000   0.00000  Uiso   1.00
O897   O     0.15451   0.79304   0.65458   0.00000  Uiso   1.00
O898   O     0.12940   0.87058   0.84968   0.00000  Uiso   1.00
O899   O     0.20824   0.84425   0.64606   0.00000  Uiso   1.00
O900   O     0.17451   0.82546   0.84968   0.00000  Uiso   1.00
O901   O     0.17930   0.74686   0.78213   0.00000  Uiso   1.00
O902   O     0.14632   0.92751   0.77013   0.00000  Uiso   1.00
O903   O     0.07412   0.79958   0.73413   0.00000  Uiso   1.00
O904   O     0.26693   0.85939   0.71360   0.00000  Uiso   1.00
O905   O     0.07071   0.85544   0.78213   0.00000  Uiso   1.00
O906   O     0.25491   0.81892   0.77013   0.00000  Uiso   1.00
O907   O     0.13760   0.73610   0.73413   0.00000  Uiso   1.00
O908   O     0.20345   0.92286   0.71360   0.00000  Uiso   1.00
Zn909  Zn    0.19338   0.80661   0.78734   0.00000  Uiso   1.00
Zn910  Zn    0.13379   0.79124   0.71875   0.00000  Uiso   1.00
Zn911  Zn    0.21056   0.86442   0.70657   0.00000  Uiso   1.00
Zn912  Zn    0.12893   0.87106   0.78733   0.00000  Uiso   1.00
C913   C     0.38604   0.82622   0.76001   0.00000  Uiso   1.00
C914   C     0.51403   0.83354   0.55692   0.00000  Uiso   1.00
C915   C     0.53007   0.76483   0.56312   0.00000  Uiso   1.00
C916   C     0.61402   0.84045   0.74008   0.00000  Uiso   1.00
C917   C     0.47724   0.86145   0.91941   0.00000  Uiso   1.00
C918   C     0.65988   0.84323   0.73623   0.00000  Uiso   1.00
C919   C     0.34077   0.82365   0.76376   0.00000  Uiso   1.00
C920   C     0.51317   0.98910   0.73823   0.00000  Uiso   1.00
C921   C     0.48363   0.67886   0.76416   0.00000  Uiso   1.00
C922   C     0.48984   0.72265   0.75961   0.00000  Uiso   1.00
C923   C     0.50964   0.94449   0.74043   0.00000  Uiso   1.00
C924   C     0.47399   0.91593   0.98006   0.00000  Uiso   1.00
C925   C     0.51831   0.81459   0.62943   0.00000  Uiso   1.00
C926   C     0.48155   0.85100   0.87100   0.00000  Uiso   1.00
C927   C     0.52445   0.75153   0.52033   0.00000  Uiso   1.00
C928   C     0.52411   0.80528   0.58147   0.00000  Uiso   1.00
C929   C     0.46998   0.90204   0.93714   0.00000  Uiso   1.00
C930   C     0.48633   0.89003   0.50562   0.00000  Uiso   1.00
C931   C     0.49308   0.84844   0.98943   0.00000  Uiso   1.00
C932   C     0.48600   0.83359   0.94663   0.00000  Uiso   1.00
C933   C     0.50645   0.82106   0.51427   0.00000  Uiso   1.00
C934   C     0.51119   0.77915   0.99639   0.00000  Uiso   1.00
C935   C     0.50057   0.76478   0.95593   0.00000  Uiso   1.00
C936   C     0.48730   0.79117   0.93211   0.00000  Uiso   1.00
H937   H     0.53740   0.74313   0.58304   0.00000  Uiso   1.00
H938   H     0.34885   0.86127   0.71088   0.00000  Uiso   1.00
H939   H     0.42942   0.68504   0.81441   0.00000  Uiso   1.00
H940   H     0.42415   0.98075   0.77370   0.00000  Uiso   1.00
H941   H     0.55750   0.71086   0.97537   0.00000  Uiso   1.00
H942   H     0.53640   0.69242   0.52547   0.00000  Uiso   1.00
H943   H     0.65252   0.80544   0.78936   0.00000  Uiso   1.00
H944   H     0.54098   0.67045   0.71502   0.00000  Uiso   1.00
H945   H     0.50165   0.73262   0.94263   0.00000  Uiso   1.00
H946   H     0.50943   0.86405   0.57348   0.00000  Uiso   1.00
H947   H     0.46297   0.92376   0.91705   0.00000  Uiso   1.00
H948   H     0.49003   0.90367   0.53793   0.00000  Uiso   1.00
H949   H     0.46894   0.94757   0.99309   0.00000  Uiso   1.00
H950   H     0.47722   0.77743   0.90247   0.00000  Uiso   1.00
N951   N     0.44479   0.99462   0.79362   0.00000  Uiso   1.00
N952   N     0.53014   0.70951   0.50201   0.00000  Uiso   1.00
O953   O     0.50000   0.83333   0.75000   0.00000  Uiso   1.00
O954   O     0.48784   0.79304   0.65458   0.00000  Uiso   1.00
O955   O     0.46274   0.87058   0.84968   0.00000  Uiso   1.00
O956   O     0.54157   0.84425   0.64606   0.00000  Uiso   1.00
O957   O     0.50785   0.82546   0.84968   0.00000  Uiso   1.00
O958   O     0.51264   0.74686   0.78213   0.00000  Uiso   1.00
O959   O     0.47965   0.92751   0.77013   0.00000  Uiso   1.00
O960   O     0.40745   0.79958   0.73413   0.00000  Uiso   1.00
O961   O     0.60026   0.85939   0.71360   0.00000  Uiso   1.00
O962   O     0.40405   0.85544   0.78213   0.00000  Uiso   1.00
O963   O     0.58824   0.81892   0.77013   0.00000  Uiso   1.00
O964   O     0.47093   0.73610   0.73413   0.00000  Uiso   1.00
O965   O     0.53678   0.92286   0.71360   0.00000  Uiso   1.00
Zn966  Zn    0.52672   0.80661   0.78734   0.00000  Uiso   1.00
Zn967  Zn    0.46713   0.79124   0.71875   0.00000  Uiso   1.00
Zn968  Zn    0.54389   0.86442   0.70657   0.00000  Uiso   1.00
Zn969  Zn    0.46226   0.87106   0.78733   0.00000  Uiso   1.00
C970   C     0.71937   0.82622   0.76001   0.00000  Uiso   1.00
C971   C     0.84736   0.83354   0.55692   0.00000  Uiso   1.00
C972   C     0.86340   0.76483   0.56312   0.00000  Uiso   1.00
C973   C     0.94736   0.84045   0.74008   0.00000  Uiso   1.00
C974   C     0.81058   0.86145   0.91941   0.00000  Uiso   1.00
C975   C     0.99321   0.84323   0.73623   0.00000  Uiso   1.00
C976   C     0.67410   0.82365   0.76376   0.00000  Uiso   1.00
C977   C     0.84650   0.98910   0.73823   0.00000  Uiso   1.00
C978   C     0.81696   0.67886   0.76416   0.00000  Uiso   1.00
C979   C     0.82317   0.72265   0.75961   0.00000  Uiso   1.00
C980   C     0.84297   0.94449   0.74043   0.00000  Uiso   1.00
C981   C     0.80733   0.91593   0.98006   0.00000  Uiso   1.00
C982   C     0.85164   0.81459   0.62943   0.00000  Uiso   1.00
C983   C     0.81488   0.85100   0.87100   0.00000  Uiso   1.00
C984   C     0.85779   0.75153   0.52033   0.00000  Uiso   1.00
C985   C     0.85744   0.80528   0.58147   0.00000  Uiso   1.00
C986   C     0.80331   0.90204   0.93714   0.00000  Uiso   1.00
C987   C     0.81966   0.89003   0.50562   0.00000  Uiso   1.00
C988   C     0.82642   0.84844   0.98943   0.00000  Uiso   1.00
C989   C     0.81933   0.83359   0.94663   0.00000  Uiso   1.00
C990   C     0.83979   0.82106   0.51427   0.00000  Uiso   1.00
C991   C     0.84452   0.77915   0.99639   0.00000  Uiso   1.00
C992   C     0.83391   0.76478   0.95593   0.00000  Uiso   1.00
C993   C     0.82063   0.79117   0.93211   0.00000  Uiso   1.00
H994   H     0.87074   0.74313   0.58304   0.00000  Uiso   1.00
H995   H     0.68218   0.86127   0.71088   0.00000  Uiso   1.00
H996   H     0.76275   0.68504   0.81441   0.00000  Uiso   1.00
H997   H     0.75748   0.98075   0.77370   0.00000  Uiso   1.00
H998   H     0.89083   0.71086   0.97537   0.00000  Uiso   1.00
H999   H     0.86973   0.69242   0.52547   0.00000  Uiso   1.00
H1000  H     0.98585   0.80544   0.78936   0.00000  Uiso   1.00
H1001  H     0.87431   0.67045   0.71502   0.00000  Uiso   1.00
H1002  H     0.83499   0.73262   0.94263   0.00000  Uiso   1.00
H1003  H     0.84276   0.86405   0.57348   0.00000  Uiso   1.00
H1004  H     0.79631   0.92376   0.91705   0.00000  Uiso   1.00
H1005  H     0.82337   0.90367   0.53793   0.00000  Uiso   1.00
H1006  H     0.80227   0.94757   0.99309   0.00000  Uiso   1.00
H1007  H     0.81055   0.77743   0.90247   0.00000  Uiso   1.00
N1008  N     0.77812   0.99462   0.79362   0.00000  Uiso   1.00
N1009  N     0.86347   0.70951   0.50201   0.00000  Uiso   1.00
O1010  O     0.83333   0.83333   0.75000   0.00000  Uiso   1.00
O1011  O     0.82118   0.79304   0.65458   0.00000  Uiso   1.00
O1012  O     0.79607   0.87058   0.84968   0.00000  Uiso   1.00
O1013  O     0.87491   0.84425   0.64606   0.00000  Uiso   1.00
O1014  O     0.84118   0.82546   0.84968   0.00000  Uiso   1.00
O1015  O     0.84597   0.74686   0.78213   0.00000  Uiso   1.00
O1016  O     0.81298   0.92751   0.77013   0.00000  Uiso   1.00
O1017  O     0.74078   0.79958   0.73413   0.00000  Uiso   1.00
O1018  O     0.93360   0.85939   0.71360   0.00000  Uiso   1.00
O1019  O     0.73738   0.85544   0.78213   0.00000  Uiso   1.00
O1020  O     0.92158   0.81892   0.77013   0.00000  Uiso   1.00
O1021  O     0.80426   0.73610   0.73413   0.00000  Uiso   1.00
O1022  O     0.87012   0.92286   0.71360   0.00000  Uiso   1.00
Zn1023 Zn    0.86005   0.80661   0.78734   0.00000  Uiso   1.00
Zn1024 Zn    0.80046   0.79124   0.71875   0.00000  Uiso   1.00
Zn1025 Zn    0.87723   0.86442   0.70657   0.00000  Uiso   1.00
Zn1026 Zn    0.79560   0.87106   0.78733   0.00000  Uiso   1.00
loop_
_geom_bond_atom_site_label_1
_geom_bond_atom_site_label_2
_geom_bond_distance
_geom_bond_site_symmetry_2
_ccdc_geom_bond_type
C1     O48     1.268   .     A
C1     O50     1.268   .     A
C1     C7      1.436   .     S
C2     C16     1.390   .     A
C2     C21     1.410   .     A
C2     H34     1.077   .     S
C3     H25     1.084   .     S
C3     C15     1.396   .     A
C3     C16     1.394   .     A
C4     O49     1.286   .     A
C4     O51     1.284   .     A
C4     C6      1.454   .     S
C5     C20     1.419   .     A
C5     C14     1.475   .     S
C5     C17     1.401   .     A
C6     C64     1.334   .     S
C6     H83     1.088   .     S
C7     C120    1.334   1_455 S
C7     H145    1.086   1_455 S
C8     C11     1.453   .     S
C8     C180    1.344   .     S
C8     H203    1.088   .     S
C9     C10     1.433   .     S
C9     C350    1.344   1_545 S
C9     N381    1.440   1_545 S
C10    O46     1.274   .     A
C10    O52     1.270   .     A
C11    O47     1.268   .     A
C11    O53     1.278   .     A
C12    C17     1.387   .     A
C12    H37     1.083   .     S
C12    C531    1.391   .     S
C13    O42     1.270   .     A
C13    C16     1.452   .     S
C13    O44     1.280   .     A
C14    O45     1.284   .     A
C14    O43     1.285   .     A
C15    N40     1.439   .     S
C15    C535    1.413   1_554 S
C17    H35     1.083   .     S
C18    H36     1.076   .     S
C18    C525    1.391   1_554 S
C18    C532    1.418   1_554 S
C19    C20     1.422   .     A
C19    C531    1.418   .     S
C19    C534    1.428   .     S
C20    C24     1.407   .     A
C21    C532    1.428   1_554 S
C21    C535    1.428   1_554 S
C22    C23     1.397   .     A
C22    C534    1.428   .     S
C22    C528    1.413   .     S
C23    C24     1.381   .     A
C23    H33     1.083   .     S
C24    H38     1.081   .     S
H26    C120    1.088   1_455 S
H27    N381    1.046   1_545 S
H28    N39     1.046   .     S
H29    N553    1.046   .     S
H30    N40     1.046   .     S
H31    C64     1.086   .     S
H32    C350    1.088   1_545 S
N39    H198    1.046   .     S
N39    C180    1.440   .     S
N40    H542    1.046   1_554 S
O41    Zn56    1.947   .     S
O41    Zn57    1.932   .     S
O41    Zn54    1.963   .     S
O41    Zn55    1.936   .     S
O42    Zn55    1.936   .     S
O43    Zn57    1.942   .     S
O44    Zn56    1.931   .     S
O45    Zn54    1.926   .     S
O46    Zn54    1.934   .     S
O47    Zn57    1.944   .     S
O48    Zn55    1.926   .     S
O49    Zn56    1.933   .     S
O50    Zn57    1.928   .     S
O51    Zn54    1.925   .     S
O52    Zn55    1.948   .     S
O53    Zn56    1.936   .     S
C58    O105    1.268   .     A
C58    O107    1.268   .     A
C58    C64     1.436   .     S
C59    C73     1.390   .     A
C59    C78     1.410   .     A
C59    H91     1.077   .     S
C60    H82     1.084   .     S
C60    C72     1.396   .     A
C60    C73     1.394   .     A
C61    O106    1.286   .     A
C61    O108    1.284   .     A
C61    C63     1.454   .     S
C62    C77     1.419   .     A
C62    C71     1.475   .     S
C62    C74     1.401   .     A
C63    C121    1.334   .     S
C63    H140    1.088   .     S
C65    C68     1.453   .     S
C65    C237    1.344   .     S
C65    H260    1.088   .     S
C66    C67     1.433   .     S
C66    C407    1.344   1_545 S
C66    N438    1.440   1_545 S
C67    O103    1.274   .     A
C67    O109    1.270   .     A
C68    O104    1.268   .     A
C68    O110    1.278   .     A
C69    C74     1.387   .     A
C69    H94     1.083   .     S
C69    C588    1.391   .     S
C70    O99     1.270   .     A
C70    C73     1.452   .     S
C70    O101    1.280   .     A
C71    O102    1.284   .     A
C71    O100    1.285   .     A
C72    N97     1.439   .     S
C72    C592    1.413   1_554 S
C74    H92     1.083   .     S
C75    H93     1.076   .     S
C75    C582    1.391   1_554 S
C75    C589    1.418   1_554 S
C76    C77     1.422   .     A
C76    C588    1.418   .     S
C76    C591    1.428   .     S
C77    C81     1.407   .     A
C78    C589    1.428   1_554 S
C78    C592    1.428   1_554 S
C79    C80     1.397   .     A
C79    C591    1.428   .     S
C79    C585    1.413   .     S
C80    C81     1.381   .     A
C80    H90     1.083   .     S
C81    H95     1.081   .     S
H84    N438    1.046   1_545 S
H85    N96     1.046   .     S
H86    N610    1.046   .     S
H87    N97     1.046   .     S
H88    C121    1.086   .     S
H89    C407    1.088   1_545 S
N96    H255    1.046   .     S
N96    C237    1.440   .     S
N97    H599    1.046   1_554 S
O98    Zn113   1.947   .     S
O98    Zn114   1.932   .     S
O98    Zn111   1.963   .     S
O98    Zn112   1.936   .     S
O99    Zn112   1.936   .     S
O100   Zn114   1.942   .     S
O101   Zn113   1.931   .     S
O102   Zn111   1.926   .     S
O103   Zn111   1.934   .     S
O104   Zn114   1.944   .     S
O105   Zn112   1.926   .     S
O106   Zn113   1.933   .     S
O107   Zn114   1.928   .     S
O108   Zn111   1.925   .     S
O109   Zn112   1.948   .     S
O110   Zn113   1.936   .     S
C115   O162    1.268   .     A
C115   O164    1.268   .     A
C115   C121    1.436   .     S
C116   C130    1.390   .     A
C116   C135    1.410   .     A
C116   H148    1.077   .     S
C117   H139    1.084   .     S
C117   C129    1.396   .     A
C117   C130    1.394   .     A
C118   O163    1.286   .     A
C118   O165    1.284   .     A
C118   C120    1.454   .     S
C119   C134    1.419   .     A
C119   C128    1.475   .     S
C119   C131    1.401   .     A
C120   C7      1.334   1_655 S
C120   H26     1.088   1_655 S
C122   C125    1.453   .     S
C122   C294    1.344   .     S
C122   H317    1.088   .     S
C123   C124    1.433   .     S
C123   C464    1.344   1_545 S
C123   N495    1.440   1_545 S
C124   O160    1.274   .     A
C124   O166    1.270   .     A
C125   O161    1.268   .     A
C125   O167    1.278   .     A
C126   C131    1.387   .     A
C126   H151    1.083   .     S
C126   C645    1.391   .     S
C127   O156    1.270   .     A
C127   C130    1.452   .     S
C127   O158    1.280   .     A
C128   O159    1.284   .     A
C128   O157    1.285   .     A
C129   N154    1.439   .     S
C129   C649    1.413   1_554 S
C131   H149    1.083   .     S
C132   H150    1.076   .     S
C132   C639    1.391   1_554 S
C132   C646    1.418   1_554 S
C133   C134    1.422   .     A
C133   C645    1.418   .     S
C133   C648    1.428   .     S
C134   C138    1.407   .     A
C135   C646    1.428   1_554 S
C135   C649    1.428   1_554 S
C136   C137    1.397   .     A
C136   C648    1.428   .     S
C136   C642    1.413   .     S
C137   C138    1.381   .     A
C137   H147    1.083   .     S
C138   H152    1.081   .     S
H141   N495    1.046   1_545 S
H142   N153    1.046   .     S
H143   N667    1.046   .     S
H144   N154    1.046   .     S
H145   C7      1.086   1_655 S
H146   C464    1.088   1_545 S
N153   H312    1.046   .     S
N153   C294    1.440   .     S
N154   H656    1.046   1_554 S
O155   Zn170   1.947   .     S
O155   Zn171   1.932   .     S
O155   Zn168   1.963   .     S
O155   Zn169   1.936   .     S
O156   Zn169   1.936   .     S
O157   Zn171   1.942   .     S
O158   Zn170   1.931   .     S
O159   Zn168   1.926   .     S
O160   Zn168   1.934   .     S
O161   Zn171   1.944   .     S
O162   Zn169   1.926   .     S
O163   Zn170   1.933   .     S
O164   Zn171   1.928   .     S
O165   Zn168   1.925   .     S
O166   Zn169   1.948   .     S
O167   Zn170   1.936   .     S
C172   O219    1.268   .     A
C172   O221    1.268   .     A
C172   C178    1.436   .     S
C173   C187    1.390   .     A
C173   C192    1.410   .     A
C173   H205    1.077   .     S
C174   H196    1.084   .     S
C174   C186    1.396   .     A
C174   C187    1.394   .     A
C175   O220    1.286   .     A
C175   O222    1.284   .     A
C175   C177    1.454   .     S
C176   C191    1.419   .     A
C176   C185    1.475   .     S
C176   C188    1.401   .     A
C177   C235    1.334   .     S
C177   H254    1.088   .     S
C178   C291    1.334   1_455 S
C178   H316    1.086   1_455 S
C179   C182    1.453   .     S
C179   C351    1.344   .     S
C179   H374    1.088   .     S
C180   C181    1.433   .     S
C181   O217    1.274   .     A
C181   O223    1.270   .     A
C182   O218    1.268   .     A
C182   O224    1.278   .     A
C183   C188    1.387   .     A
C183   H208    1.083   .     S
C183   C702    1.391   .     S
C184   O213    1.270   .     A
C184   C187    1.452   .     S
C184   O215    1.280   .     A
C185   O216    1.284   .     A
C185   O214    1.285   .     A
C186   N211    1.439   .     S
C186   C706    1.413   1_554 S
C188   H206    1.083   .     S
C189   H207    1.076   .     S
C189   C696    1.391   1_554 S
C189   C703    1.418   1_554 S
C190   C191    1.422   .     A
C190   C702    1.418   .     S
C190   C705    1.428   .     S
C191   C195    1.407   .     A
C192   C703    1.428   1_554 S
C192   C706    1.428   1_554 S
C193   C194    1.397   .     A
C193   C705    1.428   .     S
C193   C699    1.413   .     S
C194   C195    1.381   .     A
C194   H204    1.083   .     S
C195   H209    1.081   .     S
H197   C291    1.088   1_455 S
H199   N210    1.046   .     S
H200   N724    1.046   .     S
H201   N211    1.046   .     S
H202   C235    1.086   .     S
N210   H369    1.046   .     S
N210   C351    1.440   .     S
N211   H713    1.046   1_554 S
O212   Zn227   1.947   .     S
O212   Zn228   1.932   .     S
O212   Zn225   1.963   .     S
O212   Zn226   1.936   .     S
O213   Zn226   1.936   .     S
O214   Zn228   1.942   .     S
O215   Zn227   1.931   .     S
O216   Zn225   1.926   .     S
O217   Zn225   1.934   .     S
O218   Zn228   1.944   .     S
O219   Zn226   1.926   .     S
O220   Zn227   1.933   .     S
O221   Zn228   1.928   .     S
O222   Zn225   1.925   .     S
O223   Zn226   1.948   .     S
O224   Zn227   1.936   .     S
C229   O276    1.268   .     A
C229   O278    1.268   .     A
C229   C235    1.436   .     S
C230   C244    1.390   .     A
C230   C249    1.410   .     A
C230   H262    1.077   .     S
C231   H253    1.084   .     S
C231   C243    1.396   .     A
C231   C244    1.394   .     A
C232   O277    1.286   .     A
C232   O279    1.284   .     A
C232   C234    1.454   .     S
C233   C248    1.419   .     A
C233   C242    1.475   .     S
C233   C245    1.401   .     A
C234   C292    1.334   .     S
C234   H311    1.088   .     S
C236   C239    1.453   .     S
C236   C408    1.344   .     S
C236   H431    1.088   .     S
C237   C238    1.433   .     S
C238   O274    1.274   .     A
C238   O280    1.270   .     A
C239   O275    1.268   .     A
C239   O281    1.278   .     A
C240   C245    1.387   .     A
C240   H265    1.083   .     S
C240   C759    1.391   .     S
C241   O270    1.270   .     A
C241   C244    1.452   .     S
C241   O272    1.280   .     A
C242   O273    1.284   .     A
C242   O271    1.285   .     A
C243   N268    1.439   .     S
C243   C763    1.413   1_554 S
C245   H263    1.083   .     S
C246   H264    1.076   .     S
C246   C753    1.391   1_554 S
C246   C760    1.418   1_554 S
C247   C248    1.422   .     A
C247   C759    1.418   .     S
C247   C762    1.428   .     S
C248   C252    1.407   .     A
C249   C760    1.428   1_554 S
C249   C763    1.428   1_554 S
C250   C251    1.397   .     A
C250   C762    1.428   .     S
C250   C756    1.413   .     S
C251   C252    1.381   .     A
C251   H261    1.083   .     S
C252   H266    1.081   .     S
H256   N267    1.046   .     S
H257   N781    1.046   .     S
H258   N268    1.046   .     S
H259   C292    1.086   .     S
N267   H426    1.046   .     S
N267   C408    1.440   .     S
N268   H770    1.046   1_554 S
O269   Zn284   1.947   .     S
O269   Zn285   1.932   .     S
O269   Zn282   1.963   .     S
O269   Zn283   1.936   .     S
O270   Zn283   1.936   .     S
O271   Zn285   1.942   .     S
O272   Zn284   1.931   .     S
O273   Zn282   1.926   .     S
O274   Zn282   1.934   .     S
O275   Zn285   1.944   .     S
O276   Zn283   1.926   .     S
O277   Zn284   1.933   .     S
O278   Zn285   1.928   .     S
O279   Zn282   1.925   .     S
O280   Zn283   1.948   .     S
O281   Zn284   1.936   .     S
C286   O333    1.268   .     A
C286   O335    1.268   .     A
C286   C292    1.436   .     S
C287   C301    1.390   .     A
C287   C306    1.410   .     A
C287   H319    1.077   .     S
C288   H310    1.084   .     S
C288   C300    1.396   .     A
C288   C301    1.394   .     A
C289   O334    1.286   .     A
C289   O336    1.284   .     A
C289   C291    1.454   .     S
C290   C305    1.419   .     A
C290   C299    1.475   .     S
C290   C302    1.401   .     A
C291   C178    1.334   1_655 S
C291   H197    1.088   1_655 S
C293   C296    1.453   .     S
C293   C465    1.344   .     S
C293   H488    1.088   .     S
C294   C295    1.433   .     S
C295   O331    1.274   .     A
C295   O337    1.270   .     A
C296   O332    1.268   .     A
C296   O338    1.278   .     A
C297   C302    1.387   .     A
C297   H322    1.083   .     S
C297   C816    1.391   .     S
C298   O327    1.270   .     A
C298   C301    1.452   .     S
C298   O329    1.280   .     A
C299   O330    1.284   .     A
C299   O328    1.285   .     A
C300   N325    1.439   .     S
C300   C820    1.413   1_554 S
C302   H320    1.083   .     S
C303   H321    1.076   .     S
C303   C810    1.391   1_554 S
C303   C817    1.418   1_554 S
C304   C305    1.422   .     A
C304   C816    1.418   .     S
C304   C819    1.428   .     S
C305   C309    1.407   .     A
C306   C817    1.428   1_554 S
C306   C820    1.428   1_554 S
C307   C308    1.397   .     A
C307   C819    1.428   .     S
C307   C813    1.413   .     S
C308   C309    1.381   .     A
C308   H318    1.083   .     S
C309   H323    1.081   .     S
H313   N324    1.046   .     S
H314   N838    1.046   .     S
H315   N325    1.046   .     S
H316   C178    1.086   1_655 S
N324   H483    1.046   .     S
N324   C465    1.440   .     S
N325   H827    1.046   1_554 S
O326   Zn341   1.947   .     S
O326   Zn342   1.932   .     S
O326   Zn339   1.963   .     S
O326   Zn340   1.936   .     S
O327   Zn340   1.936   .     S
O328   Zn342   1.942   .     S
O329   Zn341   1.931   .     S
O330   Zn339   1.926   .     S
O331   Zn339   1.934   .     S
O332   Zn342   1.944   .     S
O333   Zn340   1.926   .     S
O334   Zn341   1.933   .     S
O335   Zn342   1.928   .     S
O336   Zn339   1.925   .     S
O337   Zn340   1.948   .     S
O338   Zn341   1.936   .     S
C343   O390    1.268   .     A
C343   O392    1.268   .     A
C343   C349    1.436   .     S
C344   C358    1.390   .     A
C344   C363    1.410   .     A
C344   H376    1.077   .     S
C345   H367    1.084   .     S
C345   C357    1.396   .     A
C345   C358    1.394   .     A
C346   O391    1.286   .     A
C346   O393    1.284   .     A
C346   C348    1.454   .     S
C347   C362    1.419   .     A
C347   C356    1.475   .     S
C347   C359    1.401   .     A
C348   C406    1.334   .     S
C348   H425    1.088   .     S
C349   C462    1.334   1_455 S
C349   H487    1.086   1_455 S
C350   C353    1.453   .     S
C350   C9      1.344   1_565 S
C350   H32     1.088   1_565 S
C351   C352    1.433   .     S
C352   O388    1.274   .     A
C352   O394    1.270   .     A
C353   O389    1.268   .     A
C353   O395    1.278   .     A
C354   C359    1.387   .     A
C354   H379    1.083   .     S
C354   C873    1.391   .     S
C355   O384    1.270   .     A
C355   C358    1.452   .     S
C355   O386    1.280   .     A
C356   O387    1.284   .     A
C356   O385    1.285   .     A
C357   N382    1.439   .     S
C357   C877    1.413   1_554 S
C359   H377    1.083   .     S
C360   H378    1.076   .     S
C360   C867    1.391   1_554 S
C360   C874    1.418   1_554 S
C361   C362    1.422   .     A
C361   C873    1.418   .     S
C361   C876    1.428   .     S
C362   C366    1.407   .     A
C363   C874    1.428   1_554 S
C363   C877    1.428   1_554 S
C364   C365    1.397   .     A
C364   C876    1.428   .     S
C364   C870    1.413   .     S
C365   C366    1.381   .     A
C365   H375    1.083   .     S
C366   H380    1.081   .     S
H368   C462    1.088   1_455 S
H370   N381    1.046   .     S
H371   N895    1.046   .     S
H372   N382    1.046   .     S
H373   C406    1.086   .     S
N381   H27     1.046   1_565 S
N381   C9      1.440   1_565 S
N382   H884    1.046   1_554 S
O383   Zn398   1.947   .     S
O383   Zn399   1.932   .     S
O383   Zn396   1.963   .     S
O383   Zn397   1.936   .     S
O384   Zn397   1.936   .     S
O385   Zn399   1.942   .     S
O386   Zn398   1.931   .     S
O387   Zn396   1.926   .     S
O388   Zn396   1.934   .     S
O389   Zn399   1.944   .     S
O390   Zn397   1.926   .     S
O391   Zn398   1.933   .     S
O392   Zn399   1.928   .     S
O393   Zn396   1.925   .     S
O394   Zn397   1.948   .     S
O395   Zn398   1.936   .     S
C400   O447    1.268   .     A
C400   O449    1.268   .     A
C400   C406    1.436   .     S
C401   C415    1.390   .     A
C401   C420    1.410   .     A
C401   H433    1.077   .     S
C402   H424    1.084   .     S
C402   C414    1.396   .     A
C402   C415    1.394   .     A
C403   O448    1.286   .     A
C403   O450    1.284   .     A
C403   C405    1.454   .     S
C404   C419    1.419   .     A
C404   C413    1.475   .     S
C404   C416    1.401   .     A
C405   C463    1.334   .     S
C405   H482    1.088   .     S
C407   C410    1.453   .     S
C407   C66     1.344   1_565 S
C407   H89     1.088   1_565 S
C408   C409    1.433   .     S
C409   O445    1.274   .     A
C409   O451    1.270   .     A
C410   O446    1.268   .     A
C410   O452    1.278   .     A
C411   C416    1.387   .     A
C411   H436    1.083   .     S
C411   C930    1.391   .     S
C412   O441    1.270   .     A
C412   C415    1.452   .     S
C412   O443    1.280   .     A
C413   O444    1.284   .     A
C413   O442    1.285   .     A
C414   N439    1.439   .     S
C414   C934    1.413   1_554 S
C416   H434    1.083   .     S
C417   H435    1.076   .     S
C417   C924    1.391   1_554 S
C417   C931    1.418   1_554 S
C418   C419    1.422   .     A
C418   C930    1.418   .     S
C418   C933    1.428   .     S
C419   C423    1.407   .     A
C420   C931    1.428   1_554 S
C420   C934    1.428   1_554 S
C421   C422    1.397   .     A
C421   C933    1.428   .     S
C421   C927    1.413   .     S
C422   C423    1.381   .     A
C422   H432    1.083   .     S
C423   H437    1.081   .     S
H427   N438    1.046   .     S
H428   N952    1.046   .     S
H429   N439    1.046   .     S
H430   C463    1.086   .     S
N438   H84     1.046   1_565 S
N438   C66     1.440   1_565 S
N439   H941    1.046   1_554 S
O440   Zn455   1.947   .     S
O440   Zn456   1.932   .     S
O440   Zn453   1.963   .     S
O440   Zn454   1.936   .     S
O441   Zn454   1.936   .     S
O442   Zn456   1.942   .     S
O443   Zn455   1.931   .     S
O444   Zn453   1.926   .     S
O445   Zn453   1.934   .     S
O446   Zn456   1.944   .     S
O447   Zn454   1.926   .     S
O448   Zn455   1.933   .     S
O449   Zn456   1.928   .     S
O450   Zn453   1.925   .     S
O451   Zn454   1.948   .     S
O452   Zn455   1.936   .     S
C457   O504    1.268   .     A
C457   O506    1.268   .     A
C457   C463    1.436   .     S
C458   C472    1.390   .     A
C458   C477    1.410   .     A
C458   H490    1.077   .     S
C459   H481    1.084   .     S
C459   C471    1.396   .     A
C459   C472    1.394   .     A
C460   O505    1.286   .     A
C460   O507    1.284   .     A
C460   C462    1.454   .     S
C461   C476    1.419   .     A
C461   C470    1.475   .     S
C461   C473    1.401   .     A
C462   C349    1.334   1_655 S
C462   H368    1.088   1_655 S
C464   C467    1.453   .     S
C464   C123    1.344   1_565 S
C464   H146    1.088   1_565 S
C465   C466    1.433   .     S
C466   O502    1.274   .     A
C466   O508    1.270   .     A
C467   O503    1.268   .     A
C467   O509    1.278   .     A
C468   C473    1.387   .     A
C468   H493    1.083   .     S
C468   C987    1.391   .     S
C469   O498    1.270   .     A
C469   C472    1.452   .     S
C469   O500    1.280   .     A
C470   O501    1.284   .     A
C470   O499    1.285   .     A
C471   N496    1.439   .     S
C471   C991    1.413   1_554 S
C473   H491    1.083   .     S
C474   H492    1.076   .     S
C474   C981    1.391   1_554 S
C474   C988    1.418   1_554 S
C475   C476    1.422   .     A
C475   C987    1.418   .     S
C475   C990    1.428   .     S
C476   C480    1.407   .     A
C477   C988    1.428   1_554 S
C477   C991    1.428   1_554 S
C478   C479    1.397   .     A
C478   C990    1.428   .     S
C478   C984    1.413   .     S
C479   C480    1.381   .     A
C479   H489    1.083   .     S
C480   H494    1.081   .     S
H484   N495    1.046   .     S
H485   N1009   1.046   .     S
H486   N496    1.046   .     S
H487   C349    1.086   1_655 S
N495   H141    1.046   1_565 S
N495   C123    1.440   1_565 S
N496   H998    1.046   1_554 S
O497   Zn512   1.947   .     S
O497   Zn513   1.932   .     S
O497   Zn510   1.963   .     S
O497   Zn511   1.936   .     S
O498   Zn511   1.936   .     S
O499   Zn513   1.942   .     S
O500   Zn512   1.931   .     S
O501   Zn510   1.926   .     S
O502   Zn510   1.934   .     S
O503   Zn513   1.944   .     S
O504   Zn511   1.926   .     S
O505   Zn512   1.933   .     S
O506   Zn513   1.928   .     S
O507   Zn510   1.925   .     S
O508   Zn511   1.948   .     S
O509   Zn512   1.936   .     S
C514   O561    1.268   .     A
C514   O563    1.268   .     A
C514   C520    1.436   .     S
C515   C529    1.390   .     A
C515   C534    1.410   .     A
C515   H547    1.077   .     S
C516   H538    1.084   .     S
C516   C528    1.396   .     A
C516   C529    1.394   .     A
C517   O562    1.286   .     A
C517   O564    1.284   .     A
C517   C519    1.454   .     S
C518   C533    1.419   .     A
C518   C527    1.475   .     S
C518   C530    1.401   .     A
C519   C577    1.334   .     S
C519   H596    1.088   .     S
C520   C633    1.334   1_455 S
C520   H658    1.086   1_455 S
C521   C524    1.453   .     S
C521   C693    1.344   .     S
C521   H716    1.088   .     S
C522   C523    1.433   .     S
C522   C863    1.344   1_545 S
C522   N894    1.440   1_545 S
C523   O559    1.274   .     A
C523   O565    1.270   .     A
C524   O560    1.268   .     A
C524   O566    1.278   .     A
C525   C530    1.387   .     A
C525   H550    1.083   .     S
C525   C18     1.391   1_556 S
C526   O555    1.270   .     A
C526   C529    1.452   .     S
C526   O557    1.280   .     A
C527   O558    1.284   .     A
C527   O556    1.285   .     A
C528   N553    1.439   .     S
C530   H548    1.083   .     S
C531   H549    1.076   .     S
C532   C533    1.422   .     A
C532   C18     1.418   1_556 S
C532   C21     1.428   1_556 S
C533   C537    1.407   .     A
C535   C536    1.397   .     A
C535   C21     1.428   1_556 S
C535   C15     1.413   1_556 S
C536   C537    1.381   .     A
C536   H546    1.083   .     S
C537   H551    1.081   .     S
H539   C633    1.088   1_455 S
H540   N894    1.046   1_545 S
H541   N552    1.046   .     S
H542   N40     1.046   1_556 S
H543   N553    1.046   .     S
H544   C577    1.086   .     S
H545   C863    1.088   1_545 S
N552   H711    1.046   .     S
N552   C693    1.440   .     S
O554   Zn569   1.947   .     S
O554   Zn570   1.932   .     S
O554   Zn567   1.963   .     S
O554   Zn568   1.936   .     S
O555   Zn568   1.936   .     S
O556   Zn570   1.942   .     S
O557   Zn569   1.931   .     S
O558   Zn567   1.926   .     S
O559   Zn567   1.934   .     S
O560   Zn570   1.944   .     S
O561   Zn568   1.926   .     S
O562   Zn569   1.933   .     S
O563   Zn570   1.928   .     S
O564   Zn567   1.925   .     S
O565   Zn568   1.948   .     S
O566   Zn569   1.936   .     S
C571   O618    1.268   .     A
C571   O620    1.268   .     A
C571   C577    1.436   .     S
C572   C586    1.390   .     A
C572   C591    1.410   .     A
C572   H604    1.077   .     S
C573   H595    1.084   .     S
C573   C585    1.396   .     A
C573   C586    1.394   .     A
C574   O619    1.286   .     A
C574   O621    1.284   .     A
C574   C576    1.454   .     S
C575   C590    1.419   .     A
C575   C584    1.475   .     S
C575   C587    1.401   .     A
C576   C634    1.334   .     S
C576   H653    1.088   .     S
C578   C581    1.453   .     S
C578   C750    1.344   .     S
C578   H773    1.088   .     S
C579   C580    1.433   .     S
C579   C920    1.344   1_545 S
C579   N951    1.440   1_545 S
C580   O616    1.274   .     A
C580   O622    1.270   .     A
C581   O617    1.268   .     A
C581   O623    1.278   .     A
C582   C587    1.387   .     A
C582   H607    1.083   .     S
C582   C75     1.391   1_556 S
C583   O612    1.270   .     A
C583   C586    1.452   .     S
C583   O614    1.280   .     A
C584   O615    1.284   .     A
C584   O613    1.285   .     A
C585   N610    1.439   .     S
C587   H605    1.083   .     S
C588   H606    1.076   .     S
C589   C590    1.422   .     A
C589   C75     1.418   1_556 S
C589   C78     1.428   1_556 S
C590   C594    1.407   .     A
C592   C593    1.397   .     A
C592   C78     1.428   1_556 S
C592   C72     1.413   1_556 S
C593   C594    1.381   .     A
C593   H603    1.083   .     S
C594   H608    1.081   .     S
H597   N951    1.046   1_545 S
H598   N609    1.046   .     S
H599   N97     1.046   1_556 S
H600   N610    1.046   .     S
H601   C634    1.086   .     S
H602   C920    1.088   1_545 S
N609   H768    1.046   .     S
N609   C750    1.440   .     S
O611   Zn626   1.947   .     S
O611   Zn627   1.932   .     S
O611   Zn624   1.963   .     S
O611   Zn625   1.936   .     S
O612   Zn625   1.936   .     S
O613   Zn627   1.942   .     S
O614   Zn626   1.931   .     S
O615   Zn624   1.926   .     S
O616   Zn624   1.934   .     S
O617   Zn627   1.944   .     S
O618   Zn625   1.926   .     S
O619   Zn626   1.933   .     S
O620   Zn627   1.928   .     S
O621   Zn624   1.925   .     S
O622   Zn625   1.948   .     S
O623   Zn626   1.936   .     S
C628   O675    1.268   .     A
C628   O677    1.268   .     A
C628   C634    1.436   .     S
C629   C643    1.390   .     A
C629   C648    1.410   .     A
C629   H661    1.077   .     S
C630   H652    1.084   .     S
C630   C642    1.396   .     A
C630   C643    1.394   .     A
C631   O676    1.286   .     A
C631   O678    1.284   .     A
C631   C633    1.454   .     S
C632   C647    1.419   .     A
C632   C641    1.475   .     S
C632   C644    1.401   .     A
C633   C520    1.334   1_655 S
C633   H539    1.088   1_655 S
C635   C638    1.453   .     S
C635   C807    1.344   .     S
C635   H830    1.088   .     S
C636   C637    1.433   .     S
C636   C977    1.344   1_545 S
C636   N1008   1.440   1_545 S
C637   O673    1.274   .     A
C637   O679    1.270   .     A
C638   O674    1.268   .     A
C638   O680    1.278   .     A
C639   C644    1.387   .     A
C639   H664    1.083   .     S
C639   C132    1.391   1_556 S
C640   O669    1.270   .     A
C640   C643    1.452   .     S
C640   O671    1.280   .     A
C641   O672    1.284   .     A
C641   O670    1.285   .     A
C642   N667    1.439   .     S
C644   H662    1.083   .     S
C645   H663    1.076   .     S
C646   C647    1.422   .     A
C646   C132    1.418   1_556 S
C646   C135    1.428   1_556 S
C647   C651    1.407   .     A
C649   C650    1.397   .     A
C649   C135    1.428   1_556 S
C649   C129    1.413   1_556 S
C650   C651    1.381   .     A
C650   H660    1.083   .     S
C651   H665    1.081   .     S
H654   N1008   1.046   1_545 S
H655   N666    1.046   .     S
H656   N154    1.046   1_556 S
H657   N667    1.046   .     S
H658   C520    1.086   1_655 S
H659   C977    1.088   1_545 S
N666   H825    1.046   .     S
N666   C807    1.440   .     S
O668   Zn683   1.947   .     S
O668   Zn684   1.932   .     S
O668   Zn681   1.963   .     S
O668   Zn682   1.936   .     S
O669   Zn682   1.936   .     S
O670   Zn684   1.942   .     S
O671   Zn683   1.931   .     S
O672   Zn681   1.926   .     S
O673   Zn681   1.934   .     S
O674   Zn684   1.944   .     S
O675   Zn682   1.926   .     S
O676   Zn683   1.933   .     S
O677   Zn684   1.928   .     S
O678   Zn681   1.925   .     S
O679   Zn682   1.948   .     S
O680   Zn683   1.936   .     S
C685   O732    1.268   .     A
C685   O734    1.268   .     A
C685   C691    1.436   .     S
C686   C700    1.390   .     A
C686   C705    1.410   .     A
C686   H718    1.077   .     S
C687   H709    1.084   .     S
C687   C699    1.396   .     A
C687   C700    1.394   .     A
C688   O733    1.286   .     A
C688   O735    1.284   .     A
C688   C690    1.454   .     S
C689   C704    1.419   .     A
C689   C698    1.475   .     S
C689   C701    1.401   .     A
C690   C748    1.334   .     S
C690   H767    1.088   .     S
C691   C804    1.334   1_455 S
C691   H829    1.086   1_455 S
C692   C695    1.453   .     S
C692   C864    1.344   .     S
C692   H887    1.088   .     S
C693   C694    1.433   .     S
C694   O730    1.274   .     A
C694   O736    1.270   .     A
C695   O731    1.268   .     A
C695   O737    1.278   .     A
C696   C701    1.387   .     A
C696   H721    1.083   .     S
C696   C189    1.391   1_556 S
C697   O726    1.270   .     A
C697   C700    1.452   .     S
C697   O728    1.280   .     A
C698   O729    1.284   .     A
C698   O727    1.285   .     A
C699   N724    1.439   .     S
C701   H719    1.083   .     S
C702   H720    1.076   .     S
C703   C704    1.422   .     A
C703   C189    1.418   1_556 S
C703   C192    1.428   1_556 S
C704   C708    1.407   .     A
C706   C707    1.397   .     A
C706   C192    1.428   1_556 S
C706   C186    1.413   1_556 S
C707   C708    1.381   .     A
C707   H717    1.083   .     S
C708   H722    1.081   .     S
H710   C804    1.088   1_455 S
H712   N723    1.046   .     S
H713   N211    1.046   1_556 S
H714   N724    1.046   .     S
H715   C748    1.086   .     S
N723   H882    1.046   .     S
N723   C864    1.440   .     S
O725   Zn740   1.947   .     S
O725   Zn741   1.932   .     S
O725   Zn738   1.963   .     S
O725   Zn739   1.936   .     S
O726   Zn739   1.936   .     S
O727   Zn741   1.942   .     S
O728   Zn740   1.931   .     S
O729   Zn738   1.926   .     S
O730   Zn738   1.934   .     S
O731   Zn741   1.944   .     S
O732   Zn739   1.926   .     S
O733   Zn740   1.933   .     S
O734   Zn741   1.928   .     S
O735   Zn738   1.925   .     S
O736   Zn739   1.948   .     S
O737   Zn740   1.936   .     S
C742   O789    1.268   .     A
C742   O791    1.268   .     A
C742   C748    1.436   .     S
C743   C757    1.390   .     A
C743   C762    1.410   .     A
C743   H775    1.077   .     S
C744   H766    1.084   .     S
C744   C756    1.396   .     A
C744   C757    1.394   .     A
C745   O790    1.286   .     A
C745   O792    1.284   .     A
C745   C747    1.454   .     S
C746   C761    1.419   .     A
C746   C755    1.475   .     S
C746   C758    1.401   .     A
C747   C805    1.334   .     S
C747   H824    1.088   .     S
C749   C752    1.453   .     S
C749   C921    1.344   .     S
C749   H944    1.088   .     S
C750   C751    1.433   .     S
C751   O787    1.274   .     A
C751   O793    1.270   .     A
C752   O788    1.268   .     A
C752   O794    1.278   .     A
C753   C758    1.387   .     A
C753   H778    1.083   .     S
C753   C246    1.391   1_556 S
C754   O783    1.270   .     A
C754   C757    1.452   .     S
C754   O785    1.280   .     A
C755   O786    1.284   .     A
C755   O784    1.285   .     A
C756   N781    1.439   .     S
C758   H776    1.083   .     S
C759   H777    1.076   .     S
C760   C761    1.422   .     A
C760   C246    1.418   1_556 S
C760   C249    1.428   1_556 S
C761   C765    1.407   .     A
C763   C764    1.397   .     A
C763   C249    1.428   1_556 S
C763   C243    1.413   1_556 S
C764   C765    1.381   .     A
C764   H774    1.083   .     S
C765   H779    1.081   .     S
H769   N780    1.046   .     S
H770   N268    1.046   1_556 S
H771   N781    1.046   .     S
H772   C805    1.086   .     S
N780   H939    1.046   .     S
N780   C921    1.440   .     S
O782   Zn797   1.947   .     S
O782   Zn798   1.932   .     S
O782   Zn795   1.963   .     S
O782   Zn796   1.936   .     S
O783   Zn796   1.936   .     S
O784   Zn798   1.942   .     S
O785   Zn797   1.931   .     S
O786   Zn795   1.926   .     S
O787   Zn795   1.934   .     S
O788   Zn798   1.944   .     S
O789   Zn796   1.926   .     S
O790   Zn797   1.933   .     S
O791   Zn798   1.928   .     S
O792   Zn795   1.925   .     S
O793   Zn796   1.948   .     S
O794   Zn797   1.936   .     S
C799   O846    1.268   .     A
C799   O848    1.268   .     A
C799   C805    1.436   .     S
C800   C814    1.390   .     A
C800   C819    1.410   .     A
C800   H832    1.077   .     S
C801   H823    1.084   .     S
C801   C813    1.396   .     A
C801   C814    1.394   .     A
C802   O847    1.286   .     A
C802   O849    1.284   .     A
C802   C804    1.454   .     S
C803   C818    1.419   .     A
C803   C812    1.475   .     S
C803   C815    1.401   .     A
C804   C691    1.334   1_655 S
C804   H710    1.088   1_655 S
C806   C809    1.453   .     S
C806   C978    1.344   .     S
C806   H1001   1.088   .     S
C807   C808    1.433   .     S
C808   O844    1.274   .     A
C808   O850    1.270   .     A
C809   O845    1.268   .     A
C809   O851    1.278   .     A
C810   C815    1.387   .     A
C810   H835    1.083   .     S
C810   C303    1.391   1_556 S
C811   O840    1.270   .     A
C811   C814    1.452   .     S
C811   O842    1.280   .     A
C812   O843    1.284   .     A
C812   O841    1.285   .     A
C813   N838    1.439   .     S
C815   H833    1.083   .     S
C816   H834    1.076   .     S
C817   C818    1.422   .     A
C817   C303    1.418   1_556 S
C817   C306    1.428   1_556 S
C818   C822    1.407   .     A
C820   C821    1.397   .     A
C820   C306    1.428   1_556 S
C820   C300    1.413   1_556 S
C821   C822    1.381   .     A
C821   H831    1.083   .     S
C822   H836    1.081   .     S
H826   N837    1.046   .     S
H827   N325    1.046   1_556 S
H828   N838    1.046   .     S
H829   C691    1.086   1_655 S
N837   H996    1.046   .     S
N837   C978    1.440   .     S
O839   Zn854   1.947   .     S
O839   Zn855   1.932   .     S
O839   Zn852   1.963   .     S
O839   Zn853   1.936   .     S
O840   Zn853   1.936   .     S
O841   Zn855   1.942   .     S
O842   Zn854   1.931   .     S
O843   Zn852   1.926   .     S
O844   Zn852   1.934   .     S
O845   Zn855   1.944   .     S
O846   Zn853   1.926   .     S
O847   Zn854   1.933   .     S
O848   Zn855   1.928   .     S
O849   Zn852   1.925   .     S
O850   Zn853   1.948   .     S
O851   Zn854   1.936   .     S
C856   O903    1.268   .     A
C856   O905    1.268   .     A
C856   C862    1.436   .     S
C857   C871    1.390   .     A
C857   C876    1.410   .     A
C857   H889    1.077   .     S
C858   H880    1.084   .     S
C858   C870    1.396   .     A
C858   C871    1.394   .     A
C859   O904    1.286   .     A
C859   O906    1.284   .     A
C859   C861    1.454   .     S
C860   C875    1.419   .     A
C860   C869    1.475   .     S
C860   C872    1.401   .     A
C861   C919    1.334   .     S
C861   H938    1.088   .     S
C862   C975    1.334   1_455 S
C862   H1000   1.086   1_455 S
C863   C866    1.453   .     S
C863   C522    1.344   1_565 S
C863   H545    1.088   1_565 S
C864   C865    1.433   .     S
C865   O901    1.274   .     A
C865   O907    1.270   .     A
C866   O902    1.268   .     A
C866   O908    1.278   .     A
C867   C872    1.387   .     A
C867   H892    1.083   .     S
C867   C360    1.391   1_556 S
C868   O897    1.270   .     A
C868   C871    1.452   .     S
C868   O899    1.280   .     A
C869   O900    1.284   .     A
C869   O898    1.285   .     A
C870   N895    1.439   .     S
C872   H890    1.083   .     S
C873   H891    1.076   .     S
C874   C875    1.422   .     A
C874   C360    1.418   1_556 S
C874   C363    1.428   1_556 S
C875   C879    1.407   .     A
C877   C878    1.397   .     A
C877   C363    1.428   1_556 S
C877   C357    1.413   1_556 S
C878   C879    1.381   .     A
C878   H888    1.083   .     S
C879   H893    1.081   .     S
H881   C975    1.088   1_455 S
H883   N894    1.046   .     S
H884   N382    1.046   1_556 S
H885   N895    1.046   .     S
H886   C919    1.086   .     S
N894   H540    1.046   1_565 S
N894   C522    1.440   1_565 S
O896   Zn911   1.947   .     S
O896   Zn912   1.932   .     S
O896   Zn909   1.963   .     S
O896   Zn910   1.936   .     S
O897   Zn910   1.936   .     S
O898   Zn912   1.942   .     S
O899   Zn911   1.931   .     S
O900   Zn909   1.926   .     S
O901   Zn909   1.934   .     S
O902   Zn912   1.944   .     S
O903   Zn910   1.926   .     S
O904   Zn911   1.933   .     S
O905   Zn912   1.928   .     S
O906   Zn909   1.925   .     S
O907   Zn910   1.948   .     S
O908   Zn911   1.936   .     S
C913   O960    1.268   .     A
C913   O962    1.268   .     A
C913   C919    1.436   .     S
C914   C928    1.390   .     A
C914   C933    1.410   .     A
C914   H946    1.077   .     S
C915   H937    1.084   .     S
C915   C927    1.396   .     A
C915   C928    1.394   .     A
C916   O961    1.286   .     A
C916   O963    1.284   .     A
C916   C918    1.454   .     S
C917   C932    1.419   .     A
C917   C926    1.475   .     S
C917   C929    1.401   .     A
C918   C976    1.334   .     S
C918   H995    1.088   .     S
C920   C923    1.453   .     S
C920   C579    1.344   1_565 S
C920   H602    1.088   1_565 S
C921   C922    1.433   .     S
C922   O958    1.274   .     A
C922   O964    1.270   .     A
C923   O959    1.268   .     A
C923   O965    1.278   .     A
C924   C929    1.387   .     A
C924   H949    1.083   .     S
C924   C417    1.391   1_556 S
C925   O954    1.270   .     A
C925   C928    1.452   .     S
C925   O956    1.280   .     A
C926   O957    1.284   .     A
C926   O955    1.285   .     A
C927   N952    1.439   .     S
C929   H947    1.083   .     S
C930   H948    1.076   .     S
C931   C932    1.422   .     A
C931   C417    1.418   1_556 S
C931   C420    1.428   1_556 S
C932   C936    1.407   .     A
C934   C935    1.397   .     A
C934   C420    1.428   1_556 S
C934   C414    1.413   1_556 S
C935   C936    1.381   .     A
C935   H945    1.083   .     S
C936   H950    1.081   .     S
H940   N951    1.046   .     S
H941   N439    1.046   1_556 S
H942   N952    1.046   .     S
H943   C976    1.086   .     S
N951   H597    1.046   1_565 S
N951   C579    1.440   1_565 S
O953   Zn968   1.947   .     S
O953   Zn969   1.932   .     S
O953   Zn966   1.963   .     S
O953   Zn967   1.936   .     S
O954   Zn967   1.936   .     S
O955   Zn969   1.942   .     S
O956   Zn968   1.931   .     S
O957   Zn966   1.926   .     S
O958   Zn966   1.934   .     S
O959   Zn969   1.944   .     S
O960   Zn967   1.926   .     S
O961   Zn968   1.933   .     S
O962   Zn969   1.928   .     S
O963   Zn966   1.925   .     S
O964   Zn967   1.948   .     S
O965   Zn968   1.936   .     S
C970   O1017   1.268   .     A
C970   O1019   1.268   .     A
C970   C976    1.436   .     S
C971   C985    1.390   .     A
C971   C990    1.410   .     A
C971   H1003   1.077   .     S
C972   H994    1.084   .     S
C972   C984    1.396   .     A
C972   C985    1.394   .     A
C973   O1018   1.286   .     A
C973   O1020   1.284   .     A
C973   C975    1.454   .     S
C974   C989    1.419   .     A
C974   C983    1.475   .     S
C974   C986    1.401   .     A
C975   C862    1.334   1_655 S
C975   H881    1.088   1_655 S
C977   C980    1.453   .     S
C977   C636    1.344   1_565 S
C977   H659    1.088   1_565 S
C978   C979    1.433   .     S
C979   O1015   1.274   .     A
C979   O1021   1.270   .     A
C980   O1016   1.268   .     A
C980   O1022   1.278   .     A
C981   C986    1.387   .     A
C981   H1006   1.083   .     S
C981   C474    1.391   1_556 S
C982   O1011   1.270   .     A
C982   C985    1.452   .     S
C982   O1013   1.280   .     A
C983   O1014   1.284   .     A
C983   O1012   1.285   .     A
C984   N1009   1.439   .     S
C986   H1004   1.083   .     S
C987   H1005   1.076   .     S
C988   C989    1.422   .     A
C988   C474    1.418   1_556 S
C988   C477    1.428   1_556 S
C989   C993    1.407   .     A
C991   C992    1.397   .     A
C991   C477    1.428   1_556 S
C991   C471    1.413   1_556 S
C992   C993    1.381   .     A
C992   H1002   1.083   .     S
C993   H1007   1.081   .     S
H997   N1008   1.046   .     S
H998   N496    1.046   1_556 S
H999   N1009   1.046   .     S
H1000  C862    1.086   1_655 S
N1008  H654    1.046   1_565 S
N1008  C636    1.440   1_565 S
O1010  Zn1025  1.947   .     S
O1010  Zn1026  1.932   .     S
O1010  Zn1023  1.963   .     S
O1010  Zn1024  1.936   .     S
O1011  Zn1024  1.936   .     S
O1012  Zn1026  1.942   .     S
O1013  Zn1025  1.931   .     S
O1014  Zn1023  1.926   .     S
O1015  Zn1023  1.934   .     S
O1016  Zn1026  1.944   .     S
O1017  Zn1024  1.926   .     S
O1018  Zn1025  1.933   .     S
O1019  Zn1026  1.928   .     S
O1020  Zn1023  1.925   .     S
O1021  Zn1024  1.948   .     S
O1022  Zn1025  1.936   .     S
