data_str_m3_o2_o5_pcu_sym.70
_audit_creation_date              2020-01-03
_audit_creation_method            'Materials Studio'
_symmetry_space_group_name_H-M    'P1'
_symmetry_Int_Tables_number       1
_symmetry_cell_setting            triclinic
loop_
_symmetry_equiv_pos_as_xyz
  x,y,z
_cell_length_a                    29.9651
_cell_length_b                    28.3368
_cell_length_c                    26.7397
_cell_angle_alpha                 90.0017
_cell_angle_beta                  89.9943
_cell_angle_gamma                 90.0006
loop_
_atom_site_label
_atom_site_type_symbol
_atom_site_fract_x
_atom_site_fract_y
_atom_site_fract_z
_atom_site_U_iso_or_equiv
_atom_site_adp_type
_atom_site_occupancy
C1     C     0.16393   0.25000   0.16667   0.00000  Uiso   1.00
C2     C     0.22054   0.44731   0.19818   0.00000  Uiso   1.00
C3     C     0.25000   0.25000   0.07284   0.00000  Uiso   1.00
C4     C     0.25000   0.25000   0.26049   0.00000  Uiso   1.00
C5     C     0.25000   0.02669   0.16668   0.00000  Uiso   1.00
C6     C     0.25001   0.47331   0.16668   0.00000  Uiso   1.00
C7     C     0.25000   0.25000   0.02178   0.00000  Uiso   1.00
C8     C     0.25000   0.25000   0.31155   0.00000  Uiso   1.00
C9     C     0.04665   0.28024   0.19967   0.00000  Uiso   1.00
C10    C     0.45333   0.21988   0.19979   0.00000  Uiso   1.00
C11    C     0.45336   0.28013   0.13366   0.00000  Uiso   1.00
C12    C     0.33607   0.25000   0.16666   0.00000  Uiso   1.00
C13    C     0.04664   0.21973   0.13380   0.00000  Uiso   1.00
C14    C     0.09337   0.28020   0.19983   0.00000  Uiso   1.00
C15    C     0.40661   0.21994   0.19997   0.00000  Uiso   1.00
C16    C     0.40664   0.28007   0.13343   0.00000  Uiso   1.00
C17    C     0.09336   0.21977   0.13360   0.00000  Uiso   1.00
C18    C     0.11592   0.25000   0.16669   0.00000  Uiso   1.00
C19    C     0.38407   0.25000   0.16668   0.00000  Uiso   1.00
C20    C     0.02407   0.24998   0.16674   0.00000  Uiso   1.00
C21    C     0.47592   0.25000   0.16673   0.00000  Uiso   1.00
C22    C     0.22160   0.10235   0.13607   0.00000  Uiso   1.00
C23    C     0.27854   0.39764   0.13624   0.00000  Uiso   1.00
C24    C     0.27840   0.10236   0.19727   0.00000  Uiso   1.00
C25    C     0.22146   0.39764   0.19710   0.00000  Uiso   1.00
C26    C     0.22068   0.05268   0.13501   0.00000  Uiso   1.00
C27    C     0.27948   0.44732   0.13518   0.00000  Uiso   1.00
C28    C     0.27932   0.05269   0.19834   0.00000  Uiso   1.00
Cl29   Cl    0.01571   0.31746   0.24024   0.00000  Uiso   1.00
Cl30   Cl    0.48425   0.18276   0.24048   0.00000  Uiso   1.00
Cl31   Cl    0.48432   0.31724   0.09299   0.00000  Uiso   1.00
Cl32   Cl    0.01568   0.18254   0.09320   0.00000  Uiso   1.00
H33    H     0.19933   0.12211   0.11206   0.00000  Uiso   1.00
H34    H     0.30704   0.00307   0.10504   0.00000  Uiso   1.00
H35    H     0.30668   0.49695   0.22872   0.00000  Uiso   1.00
H36    H     0.19306   0.00306   0.22842   0.00000  Uiso   1.00
H37    H     0.30093   0.37788   0.11235   0.00000  Uiso   1.00
H38    H     0.30067   0.12213   0.22128   0.00000  Uiso   1.00
H39    H     0.19908   0.37788   0.22099   0.00000  Uiso   1.00
H40    H     0.09871   0.32735   0.25344   0.00000  Uiso   1.00
H41    H     0.40125   0.17323   0.25401   0.00000  Uiso   1.00
H42    H     0.40133   0.32682   0.07943   0.00000  Uiso   1.00
H43    H     0.09868   0.17238   0.08023   0.00000  Uiso   1.00
H44    H     0.19333   0.49693   0.10464   0.00000  Uiso   1.00
N45    N     0.25000   0.12624   0.16667   0.00000  Uiso   1.00
N46    N     0.25000   0.37377   0.16667   0.00000  Uiso   1.00
O47    O     0.18453   0.28974   0.16667   0.00000  Uiso   1.00
O48    O     0.38164   0.19237   0.23236   0.00000  Uiso   1.00
O49    O     0.38170   0.30765   0.10102   0.00000  Uiso   1.00
O50    O     0.11829   0.19204   0.10133   0.00000  Uiso   1.00
O51    O     0.19079   0.03165   0.10258   0.00000  Uiso   1.00
O52    O     0.30954   0.46835   0.10294   0.00000  Uiso   1.00
O53    O     0.30922   0.03167   0.23077   0.00000  Uiso   1.00
O54    O     0.19049   0.46834   0.23044   0.00000  Uiso   1.00
O55    O     0.31547   0.21026   0.16666   0.00000  Uiso   1.00
O56    O     0.31547   0.28974   0.16666   0.00000  Uiso   1.00
O57    O     0.18453   0.21026   0.16667   0.00000  Uiso   1.00
O58    O     0.25000   0.28973   0.09511   0.00000  Uiso   1.00
O59    O     0.25000   0.21027   0.23822   0.00000  Uiso   1.00
O60    O     0.25000   0.28973   0.23822   0.00000  Uiso   1.00
O61    O     0.25000   0.21027   0.09511   0.00000  Uiso   1.00
O62    O     0.11832   0.30792   0.23209   0.00000  Uiso   1.00
Zn63   Zn    0.25000   0.30307   0.16667   0.00000  Uiso   1.00
Zn64   Zn    0.25000   0.19693   0.16667   0.00000  Uiso   1.00
C65    C     0.66393   0.25000   0.16667   0.00000  Uiso   1.00
C66    C     0.72054   0.44731   0.19818   0.00000  Uiso   1.00
C67    C     0.75000   0.25000   0.07284   0.00000  Uiso   1.00
C68    C     0.75000   0.25000   0.26049   0.00000  Uiso   1.00
C69    C     0.75000   0.02669   0.16668   0.00000  Uiso   1.00
C70    C     0.75001   0.47331   0.16668   0.00000  Uiso   1.00
C71    C     0.75000   0.25000   0.02178   0.00000  Uiso   1.00
C72    C     0.75000   0.25000   0.31155   0.00000  Uiso   1.00
C73    C     0.54665   0.28024   0.19967   0.00000  Uiso   1.00
C74    C     0.95333   0.21988   0.19979   0.00000  Uiso   1.00
C75    C     0.95336   0.28013   0.13366   0.00000  Uiso   1.00
C76    C     0.83607   0.25000   0.16666   0.00000  Uiso   1.00
C77    C     0.54664   0.21973   0.13380   0.00000  Uiso   1.00
C78    C     0.59337   0.28020   0.19983   0.00000  Uiso   1.00
C79    C     0.90661   0.21994   0.19997   0.00000  Uiso   1.00
C80    C     0.90664   0.28007   0.13343   0.00000  Uiso   1.00
C81    C     0.59336   0.21977   0.13360   0.00000  Uiso   1.00
C82    C     0.61592   0.25000   0.16669   0.00000  Uiso   1.00
C83    C     0.88407   0.25000   0.16668   0.00000  Uiso   1.00
C84    C     0.52407   0.24998   0.16674   0.00000  Uiso   1.00
C85    C     0.97592   0.25000   0.16673   0.00000  Uiso   1.00
C86    C     0.72160   0.10235   0.13607   0.00000  Uiso   1.00
C87    C     0.77854   0.39764   0.13624   0.00000  Uiso   1.00
C88    C     0.77840   0.10236   0.19727   0.00000  Uiso   1.00
C89    C     0.72146   0.39764   0.19710   0.00000  Uiso   1.00
C90    C     0.72068   0.05268   0.13501   0.00000  Uiso   1.00
C91    C     0.77948   0.44732   0.13518   0.00000  Uiso   1.00
C92    C     0.77932   0.05269   0.19834   0.00000  Uiso   1.00
Cl93   Cl    0.51571   0.31746   0.24024   0.00000  Uiso   1.00
Cl94   Cl    0.98425   0.18276   0.24048   0.00000  Uiso   1.00
Cl95   Cl    0.98432   0.31724   0.09299   0.00000  Uiso   1.00
Cl96   Cl    0.51568   0.18254   0.09320   0.00000  Uiso   1.00
H97    H     0.69933   0.12211   0.11206   0.00000  Uiso   1.00
H98    H     0.80704   0.00307   0.10504   0.00000  Uiso   1.00
H99    H     0.80668   0.49695   0.22872   0.00000  Uiso   1.00
H100   H     0.69306   0.00306   0.22842   0.00000  Uiso   1.00
H101   H     0.80093   0.37788   0.11235   0.00000  Uiso   1.00
H102   H     0.80067   0.12213   0.22128   0.00000  Uiso   1.00
H103   H     0.69908   0.37788   0.22099   0.00000  Uiso   1.00
H104   H     0.59871   0.32735   0.25344   0.00000  Uiso   1.00
H105   H     0.90125   0.17323   0.25401   0.00000  Uiso   1.00
H106   H     0.90133   0.32682   0.07943   0.00000  Uiso   1.00
H107   H     0.59868   0.17238   0.08023   0.00000  Uiso   1.00
H108   H     0.69333   0.49693   0.10464   0.00000  Uiso   1.00
N109   N     0.75000   0.12624   0.16667   0.00000  Uiso   1.00
N110   N     0.75000   0.37377   0.16667   0.00000  Uiso   1.00
O111   O     0.68453   0.28974   0.16667   0.00000  Uiso   1.00
O112   O     0.88164   0.19237   0.23236   0.00000  Uiso   1.00
O113   O     0.88170   0.30765   0.10102   0.00000  Uiso   1.00
O114   O     0.61829   0.19204   0.10133   0.00000  Uiso   1.00
O115   O     0.69079   0.03165   0.10258   0.00000  Uiso   1.00
O116   O     0.80954   0.46835   0.10294   0.00000  Uiso   1.00
O117   O     0.80922   0.03167   0.23077   0.00000  Uiso   1.00
O118   O     0.69049   0.46834   0.23044   0.00000  Uiso   1.00
O119   O     0.81547   0.21026   0.16666   0.00000  Uiso   1.00
O120   O     0.81547   0.28974   0.16666   0.00000  Uiso   1.00
O121   O     0.68453   0.21026   0.16667   0.00000  Uiso   1.00
O122   O     0.75000   0.28973   0.09511   0.00000  Uiso   1.00
O123   O     0.75000   0.21027   0.23822   0.00000  Uiso   1.00
O124   O     0.75000   0.28973   0.23822   0.00000  Uiso   1.00
O125   O     0.75000   0.21027   0.09511   0.00000  Uiso   1.00
O126   O     0.61832   0.30792   0.23209   0.00000  Uiso   1.00
Zn127  Zn    0.75000   0.30307   0.16667   0.00000  Uiso   1.00
Zn128  Zn    0.75000   0.19693   0.16667   0.00000  Uiso   1.00
C129   C     0.16393   0.75000   0.16667   0.00000  Uiso   1.00
C130   C     0.22054   0.94731   0.19818   0.00000  Uiso   1.00
C131   C     0.25000   0.75000   0.07284   0.00000  Uiso   1.00
C132   C     0.25000   0.75000   0.26049   0.00000  Uiso   1.00
C133   C     0.25000   0.52669   0.16668   0.00000  Uiso   1.00
C134   C     0.25001   0.97331   0.16668   0.00000  Uiso   1.00
C135   C     0.25000   0.75000   0.02178   0.00000  Uiso   1.00
C136   C     0.25000   0.75000   0.31155   0.00000  Uiso   1.00
C137   C     0.04665   0.78024   0.19967   0.00000  Uiso   1.00
C138   C     0.45333   0.71988   0.19979   0.00000  Uiso   1.00
C139   C     0.45336   0.78013   0.13366   0.00000  Uiso   1.00
C140   C     0.33607   0.75000   0.16666   0.00000  Uiso   1.00
C141   C     0.04664   0.71973   0.13380   0.00000  Uiso   1.00
C142   C     0.09337   0.78020   0.19983   0.00000  Uiso   1.00
C143   C     0.40661   0.71994   0.19997   0.00000  Uiso   1.00
C144   C     0.40664   0.78007   0.13343   0.00000  Uiso   1.00
C145   C     0.09336   0.71977   0.13360   0.00000  Uiso   1.00
C146   C     0.11592   0.75000   0.16669   0.00000  Uiso   1.00
C147   C     0.38407   0.75000   0.16668   0.00000  Uiso   1.00
C148   C     0.02407   0.74998   0.16674   0.00000  Uiso   1.00
C149   C     0.47592   0.75000   0.16673   0.00000  Uiso   1.00
C150   C     0.22160   0.60235   0.13607   0.00000  Uiso   1.00
C151   C     0.27854   0.89764   0.13624   0.00000  Uiso   1.00
C152   C     0.27840   0.60236   0.19727   0.00000  Uiso   1.00
C153   C     0.22146   0.89764   0.19710   0.00000  Uiso   1.00
C154   C     0.22068   0.55268   0.13501   0.00000  Uiso   1.00
C155   C     0.27948   0.94732   0.13518   0.00000  Uiso   1.00
C156   C     0.27932   0.55269   0.19834   0.00000  Uiso   1.00
Cl157  Cl    0.01571   0.81746   0.24024   0.00000  Uiso   1.00
Cl158  Cl    0.48425   0.68276   0.24048   0.00000  Uiso   1.00
Cl159  Cl    0.48432   0.81724   0.09299   0.00000  Uiso   1.00
Cl160  Cl    0.01568   0.68254   0.09320   0.00000  Uiso   1.00
H161   H     0.19933   0.62211   0.11206   0.00000  Uiso   1.00
H162   H     0.30704   0.50307   0.10504   0.00000  Uiso   1.00
H163   H     0.30668   0.99695   0.22872   0.00000  Uiso   1.00
H164   H     0.19306   0.50306   0.22842   0.00000  Uiso   1.00
H165   H     0.30093   0.87788   0.11235   0.00000  Uiso   1.00
H166   H     0.30067   0.62213   0.22128   0.00000  Uiso   1.00
H167   H     0.19908   0.87788   0.22099   0.00000  Uiso   1.00
H168   H     0.09871   0.82735   0.25344   0.00000  Uiso   1.00
H169   H     0.40125   0.67323   0.25401   0.00000  Uiso   1.00
H170   H     0.40133   0.82682   0.07943   0.00000  Uiso   1.00
H171   H     0.09868   0.67238   0.08023   0.00000  Uiso   1.00
H172   H     0.19333   0.99693   0.10464   0.00000  Uiso   1.00
N173   N     0.25000   0.62624   0.16667   0.00000  Uiso   1.00
N174   N     0.25000   0.87377   0.16667   0.00000  Uiso   1.00
O175   O     0.18453   0.78974   0.16667   0.00000  Uiso   1.00
O176   O     0.38164   0.69237   0.23236   0.00000  Uiso   1.00
O177   O     0.38170   0.80765   0.10102   0.00000  Uiso   1.00
O178   O     0.11829   0.69204   0.10133   0.00000  Uiso   1.00
O179   O     0.19079   0.53165   0.10258   0.00000  Uiso   1.00
O180   O     0.30954   0.96835   0.10294   0.00000  Uiso   1.00
O181   O     0.30922   0.53167   0.23077   0.00000  Uiso   1.00
O182   O     0.19049   0.96834   0.23044   0.00000  Uiso   1.00
O183   O     0.31547   0.71026   0.16666   0.00000  Uiso   1.00
O184   O     0.31547   0.78974   0.16666   0.00000  Uiso   1.00
O185   O     0.18453   0.71026   0.16667   0.00000  Uiso   1.00
O186   O     0.25000   0.78973   0.09511   0.00000  Uiso   1.00
O187   O     0.25000   0.71027   0.23822   0.00000  Uiso   1.00
O188   O     0.25000   0.78973   0.23822   0.00000  Uiso   1.00
O189   O     0.25000   0.71027   0.09511   0.00000  Uiso   1.00
O190   O     0.11832   0.80792   0.23209   0.00000  Uiso   1.00
Zn191  Zn    0.25000   0.80307   0.16667   0.00000  Uiso   1.00
Zn192  Zn    0.25000   0.69693   0.16667   0.00000  Uiso   1.00
C193   C     0.66393   0.75000   0.16667   0.00000  Uiso   1.00
C194   C     0.72054   0.94731   0.19818   0.00000  Uiso   1.00
C195   C     0.75000   0.75000   0.07284   0.00000  Uiso   1.00
C196   C     0.75000   0.75000   0.26049   0.00000  Uiso   1.00
C197   C     0.75000   0.52669   0.16668   0.00000  Uiso   1.00
C198   C     0.75001   0.97331   0.16668   0.00000  Uiso   1.00
C199   C     0.75000   0.75000   0.02178   0.00000  Uiso   1.00
C200   C     0.75000   0.75000   0.31155   0.00000  Uiso   1.00
C201   C     0.54665   0.78024   0.19967   0.00000  Uiso   1.00
C202   C     0.95333   0.71988   0.19979   0.00000  Uiso   1.00
C203   C     0.95336   0.78013   0.13366   0.00000  Uiso   1.00
C204   C     0.83607   0.75000   0.16666   0.00000  Uiso   1.00
C205   C     0.54664   0.71973   0.13380   0.00000  Uiso   1.00
C206   C     0.59337   0.78020   0.19983   0.00000  Uiso   1.00
C207   C     0.90661   0.71994   0.19997   0.00000  Uiso   1.00
C208   C     0.90664   0.78007   0.13343   0.00000  Uiso   1.00
C209   C     0.59336   0.71977   0.13360   0.00000  Uiso   1.00
C210   C     0.61592   0.75000   0.16669   0.00000  Uiso   1.00
C211   C     0.88407   0.75000   0.16668   0.00000  Uiso   1.00
C212   C     0.52407   0.74998   0.16674   0.00000  Uiso   1.00
C213   C     0.97592   0.75000   0.16673   0.00000  Uiso   1.00
C214   C     0.72160   0.60235   0.13607   0.00000  Uiso   1.00
C215   C     0.77854   0.89764   0.13624   0.00000  Uiso   1.00
C216   C     0.77840   0.60236   0.19727   0.00000  Uiso   1.00
C217   C     0.72146   0.89764   0.19710   0.00000  Uiso   1.00
C218   C     0.72068   0.55268   0.13501   0.00000  Uiso   1.00
C219   C     0.77948   0.94732   0.13518   0.00000  Uiso   1.00
C220   C     0.77932   0.55269   0.19834   0.00000  Uiso   1.00
Cl221  Cl    0.51571   0.81746   0.24024   0.00000  Uiso   1.00
Cl222  Cl    0.98425   0.68276   0.24048   0.00000  Uiso   1.00
Cl223  Cl    0.98432   0.81724   0.09299   0.00000  Uiso   1.00
Cl224  Cl    0.51568   0.68254   0.09320   0.00000  Uiso   1.00
H225   H     0.69933   0.62211   0.11206   0.00000  Uiso   1.00
H226   H     0.80704   0.50307   0.10504   0.00000  Uiso   1.00
H227   H     0.80668   0.99695   0.22872   0.00000  Uiso   1.00
H228   H     0.69306   0.50306   0.22842   0.00000  Uiso   1.00
H229   H     0.80093   0.87788   0.11235   0.00000  Uiso   1.00
H230   H     0.80067   0.62213   0.22128   0.00000  Uiso   1.00
H231   H     0.69908   0.87788   0.22099   0.00000  Uiso   1.00
H232   H     0.59871   0.82735   0.25344   0.00000  Uiso   1.00
H233   H     0.90125   0.67323   0.25401   0.00000  Uiso   1.00
H234   H     0.90133   0.82682   0.07943   0.00000  Uiso   1.00
H235   H     0.59868   0.67238   0.08023   0.00000  Uiso   1.00
H236   H     0.69333   0.99693   0.10464   0.00000  Uiso   1.00
N237   N     0.75000   0.62624   0.16667   0.00000  Uiso   1.00
N238   N     0.75000   0.87377   0.16667   0.00000  Uiso   1.00
O239   O     0.68453   0.78974   0.16667   0.00000  Uiso   1.00
O240   O     0.88164   0.69237   0.23236   0.00000  Uiso   1.00
O241   O     0.88170   0.80765   0.10102   0.00000  Uiso   1.00
O242   O     0.61829   0.69204   0.10133   0.00000  Uiso   1.00
O243   O     0.69079   0.53165   0.10258   0.00000  Uiso   1.00
O244   O     0.80954   0.96835   0.10294   0.00000  Uiso   1.00
O245   O     0.80922   0.53167   0.23077   0.00000  Uiso   1.00
O246   O     0.69049   0.96834   0.23044   0.00000  Uiso   1.00
O247   O     0.81547   0.71026   0.16666   0.00000  Uiso   1.00
O248   O     0.81547   0.78974   0.16666   0.00000  Uiso   1.00
O249   O     0.68453   0.71026   0.16667   0.00000  Uiso   1.00
O250   O     0.75000   0.78973   0.09511   0.00000  Uiso   1.00
O251   O     0.75000   0.71027   0.23822   0.00000  Uiso   1.00
O252   O     0.75000   0.78973   0.23822   0.00000  Uiso   1.00
O253   O     0.75000   0.71027   0.09511   0.00000  Uiso   1.00
O254   O     0.61832   0.80792   0.23209   0.00000  Uiso   1.00
Zn255  Zn    0.75000   0.80307   0.16667   0.00000  Uiso   1.00
Zn256  Zn    0.75000   0.69693   0.16667   0.00000  Uiso   1.00
C257   C     0.16393   0.25000   0.50001   0.00000  Uiso   1.00
C258   C     0.22054   0.44731   0.53151   0.00000  Uiso   1.00
C259   C     0.25000   0.25000   0.40617   0.00000  Uiso   1.00
C260   C     0.25000   0.25000   0.59383   0.00000  Uiso   1.00
C261   C     0.25000   0.02669   0.50001   0.00000  Uiso   1.00
C262   C     0.25001   0.47331   0.50001   0.00000  Uiso   1.00
C263   C     0.25000   0.25000   0.35512   0.00000  Uiso   1.00
C264   C     0.25000   0.25000   0.64488   0.00000  Uiso   1.00
C265   C     0.04665   0.28024   0.53300   0.00000  Uiso   1.00
C266   C     0.45333   0.21988   0.53313   0.00000  Uiso   1.00
C267   C     0.45336   0.28013   0.46699   0.00000  Uiso   1.00
C268   C     0.33607   0.25000   0.49999   0.00000  Uiso   1.00
C269   C     0.04664   0.21973   0.46713   0.00000  Uiso   1.00
C270   C     0.09337   0.28020   0.53316   0.00000  Uiso   1.00
C271   C     0.40661   0.21994   0.53330   0.00000  Uiso   1.00
C272   C     0.40664   0.28007   0.46676   0.00000  Uiso   1.00
C273   C     0.09336   0.21977   0.46693   0.00000  Uiso   1.00
C274   C     0.11592   0.25000   0.50003   0.00000  Uiso   1.00
C275   C     0.38407   0.25000   0.50002   0.00000  Uiso   1.00
C276   C     0.02407   0.24998   0.50007   0.00000  Uiso   1.00
C277   C     0.47592   0.25000   0.50007   0.00000  Uiso   1.00
C278   C     0.22160   0.10235   0.46941   0.00000  Uiso   1.00
C279   C     0.27854   0.39764   0.46957   0.00000  Uiso   1.00
C280   C     0.27840   0.10236   0.53060   0.00000  Uiso   1.00
C281   C     0.22146   0.39764   0.53044   0.00000  Uiso   1.00
C282   C     0.22068   0.05268   0.46834   0.00000  Uiso   1.00
C283   C     0.27948   0.44732   0.46851   0.00000  Uiso   1.00
C284   C     0.27932   0.05269   0.53168   0.00000  Uiso   1.00
Cl285  Cl    0.01571   0.31746   0.57357   0.00000  Uiso   1.00
Cl286  Cl    0.48425   0.18276   0.57381   0.00000  Uiso   1.00
Cl287  Cl    0.48432   0.31724   0.42633   0.00000  Uiso   1.00
Cl288  Cl    0.01568   0.18254   0.42654   0.00000  Uiso   1.00
H289   H     0.19933   0.12211   0.44539   0.00000  Uiso   1.00
H290   H     0.30704   0.00307   0.43838   0.00000  Uiso   1.00
H291   H     0.30668   0.49695   0.56206   0.00000  Uiso   1.00
H292   H     0.19306   0.00306   0.56176   0.00000  Uiso   1.00
H293   H     0.30093   0.37788   0.44568   0.00000  Uiso   1.00
H294   H     0.30067   0.12213   0.55461   0.00000  Uiso   1.00
H295   H     0.19908   0.37788   0.55432   0.00000  Uiso   1.00
H296   H     0.09871   0.32735   0.58677   0.00000  Uiso   1.00
H297   H     0.40125   0.17323   0.58734   0.00000  Uiso   1.00
H298   H     0.40133   0.32682   0.41276   0.00000  Uiso   1.00
H299   H     0.09868   0.17238   0.41356   0.00000  Uiso   1.00
H300   H     0.19333   0.49693   0.43797   0.00000  Uiso   1.00
N301   N     0.25000   0.12624   0.50000   0.00000  Uiso   1.00
N302   N     0.25000   0.37377   0.50000   0.00000  Uiso   1.00
O303   O     0.18453   0.28974   0.50000   0.00000  Uiso   1.00
O304   O     0.38164   0.19237   0.56570   0.00000  Uiso   1.00
O305   O     0.38170   0.30765   0.43435   0.00000  Uiso   1.00
O306   O     0.11829   0.19204   0.43466   0.00000  Uiso   1.00
O307   O     0.19079   0.03165   0.43591   0.00000  Uiso   1.00
O308   O     0.30954   0.46835   0.43627   0.00000  Uiso   1.00
O309   O     0.30922   0.03167   0.56411   0.00000  Uiso   1.00
O310   O     0.19049   0.46834   0.56377   0.00000  Uiso   1.00
O311   O     0.31547   0.21026   0.50000   0.00000  Uiso   1.00
O312   O     0.31547   0.28974   0.50000   0.00000  Uiso   1.00
O313   O     0.18453   0.21026   0.50000   0.00000  Uiso   1.00
O314   O     0.25000   0.28973   0.42845   0.00000  Uiso   1.00
O315   O     0.25000   0.21027   0.57155   0.00000  Uiso   1.00
O316   O     0.25000   0.28973   0.57155   0.00000  Uiso   1.00
O317   O     0.25000   0.21027   0.42845   0.00000  Uiso   1.00
O318   O     0.11832   0.30792   0.56543   0.00000  Uiso   1.00
Zn319  Zn    0.25000   0.30307   0.50000   0.00000  Uiso   1.00
Zn320  Zn    0.25000   0.19693   0.50000   0.00000  Uiso   1.00
C321   C     0.66393   0.25000   0.50001   0.00000  Uiso   1.00
C322   C     0.72054   0.44731   0.53151   0.00000  Uiso   1.00
C323   C     0.75000   0.25000   0.40617   0.00000  Uiso   1.00
C324   C     0.75000   0.25000   0.59383   0.00000  Uiso   1.00
C325   C     0.75000   0.02669   0.50001   0.00000  Uiso   1.00
C326   C     0.75001   0.47331   0.50001   0.00000  Uiso   1.00
C327   C     0.75000   0.25000   0.35512   0.00000  Uiso   1.00
C328   C     0.75000   0.25000   0.64488   0.00000  Uiso   1.00
C329   C     0.54665   0.28024   0.53300   0.00000  Uiso   1.00
C330   C     0.95333   0.21988   0.53313   0.00000  Uiso   1.00
C331   C     0.95336   0.28013   0.46699   0.00000  Uiso   1.00
C332   C     0.83607   0.25000   0.49999   0.00000  Uiso   1.00
C333   C     0.54664   0.21973   0.46713   0.00000  Uiso   1.00
C334   C     0.59337   0.28020   0.53316   0.00000  Uiso   1.00
C335   C     0.90661   0.21994   0.53330   0.00000  Uiso   1.00
C336   C     0.90664   0.28007   0.46676   0.00000  Uiso   1.00
C337   C     0.59336   0.21977   0.46693   0.00000  Uiso   1.00
C338   C     0.61592   0.25000   0.50003   0.00000  Uiso   1.00
C339   C     0.88407   0.25000   0.50002   0.00000  Uiso   1.00
C340   C     0.52407   0.24998   0.50007   0.00000  Uiso   1.00
C341   C     0.97592   0.25000   0.50007   0.00000  Uiso   1.00
C342   C     0.72160   0.10235   0.46941   0.00000  Uiso   1.00
C343   C     0.77854   0.39764   0.46957   0.00000  Uiso   1.00
C344   C     0.77840   0.10236   0.53060   0.00000  Uiso   1.00
C345   C     0.72146   0.39764   0.53044   0.00000  Uiso   1.00
C346   C     0.72068   0.05268   0.46834   0.00000  Uiso   1.00
C347   C     0.77948   0.44732   0.46851   0.00000  Uiso   1.00
C348   C     0.77932   0.05269   0.53168   0.00000  Uiso   1.00
Cl349  Cl    0.51571   0.31746   0.57357   0.00000  Uiso   1.00
Cl350  Cl    0.98425   0.18276   0.57381   0.00000  Uiso   1.00
Cl351  Cl    0.98432   0.31724   0.42633   0.00000  Uiso   1.00
Cl352  Cl    0.51568   0.18254   0.42654   0.00000  Uiso   1.00
H353   H     0.69933   0.12211   0.44539   0.00000  Uiso   1.00
H354   H     0.80704   0.00307   0.43838   0.00000  Uiso   1.00
H355   H     0.80668   0.49695   0.56206   0.00000  Uiso   1.00
H356   H     0.69306   0.00306   0.56176   0.00000  Uiso   1.00
H357   H     0.80093   0.37788   0.44568   0.00000  Uiso   1.00
H358   H     0.80067   0.12213   0.55461   0.00000  Uiso   1.00
H359   H     0.69908   0.37788   0.55432   0.00000  Uiso   1.00
H360   H     0.59871   0.32735   0.58677   0.00000  Uiso   1.00
H361   H     0.90125   0.17323   0.58734   0.00000  Uiso   1.00
H362   H     0.90133   0.32682   0.41276   0.00000  Uiso   1.00
H363   H     0.59868   0.17238   0.41356   0.00000  Uiso   1.00
H364   H     0.69333   0.49693   0.43797   0.00000  Uiso   1.00
N365   N     0.75000   0.12624   0.50000   0.00000  Uiso   1.00
N366   N     0.75000   0.37377   0.50000   0.00000  Uiso   1.00
O367   O     0.68453   0.28974   0.50000   0.00000  Uiso   1.00
O368   O     0.88164   0.19237   0.56570   0.00000  Uiso   1.00
O369   O     0.88170   0.30765   0.43435   0.00000  Uiso   1.00
O370   O     0.61829   0.19204   0.43466   0.00000  Uiso   1.00
O371   O     0.69079   0.03165   0.43591   0.00000  Uiso   1.00
O372   O     0.80954   0.46835   0.43627   0.00000  Uiso   1.00
O373   O     0.80922   0.03167   0.56411   0.00000  Uiso   1.00
O374   O     0.69049   0.46834   0.56377   0.00000  Uiso   1.00
O375   O     0.81547   0.21026   0.50000   0.00000  Uiso   1.00
O376   O     0.81547   0.28974   0.50000   0.00000  Uiso   1.00
O377   O     0.68453   0.21026   0.50000   0.00000  Uiso   1.00
O378   O     0.75000   0.28973   0.42845   0.00000  Uiso   1.00
O379   O     0.75000   0.21027   0.57155   0.00000  Uiso   1.00
O380   O     0.75000   0.28973   0.57155   0.00000  Uiso   1.00
O381   O     0.75000   0.21027   0.42845   0.00000  Uiso   1.00
O382   O     0.61832   0.30792   0.56543   0.00000  Uiso   1.00
Zn383  Zn    0.75000   0.30307   0.50000   0.00000  Uiso   1.00
Zn384  Zn    0.75000   0.19693   0.50000   0.00000  Uiso   1.00
C385   C     0.16393   0.75000   0.50001   0.00000  Uiso   1.00
C386   C     0.22054   0.94731   0.53151   0.00000  Uiso   1.00
C387   C     0.25000   0.75000   0.40617   0.00000  Uiso   1.00
C388   C     0.25000   0.75000   0.59383   0.00000  Uiso   1.00
C389   C     0.25000   0.52669   0.50001   0.00000  Uiso   1.00
C390   C     0.25001   0.97331   0.50001   0.00000  Uiso   1.00
C391   C     0.25000   0.75000   0.35512   0.00000  Uiso   1.00
C392   C     0.25000   0.75000   0.64488   0.00000  Uiso   1.00
C393   C     0.04665   0.78024   0.53300   0.00000  Uiso   1.00
C394   C     0.45333   0.71988   0.53313   0.00000  Uiso   1.00
C395   C     0.45336   0.78013   0.46699   0.00000  Uiso   1.00
C396   C     0.33607   0.75000   0.49999   0.00000  Uiso   1.00
C397   C     0.04664   0.71973   0.46713   0.00000  Uiso   1.00
C398   C     0.09337   0.78020   0.53316   0.00000  Uiso   1.00
C399   C     0.40661   0.71994   0.53330   0.00000  Uiso   1.00
C400   C     0.40664   0.78007   0.46676   0.00000  Uiso   1.00
C401   C     0.09336   0.71977   0.46693   0.00000  Uiso   1.00
C402   C     0.11592   0.75000   0.50003   0.00000  Uiso   1.00
C403   C     0.38407   0.75000   0.50002   0.00000  Uiso   1.00
C404   C     0.02407   0.74998   0.50007   0.00000  Uiso   1.00
C405   C     0.47592   0.75000   0.50007   0.00000  Uiso   1.00
C406   C     0.22160   0.60235   0.46941   0.00000  Uiso   1.00
C407   C     0.27854   0.89764   0.46957   0.00000  Uiso   1.00
C408   C     0.27840   0.60236   0.53060   0.00000  Uiso   1.00
C409   C     0.22146   0.89764   0.53044   0.00000  Uiso   1.00
C410   C     0.22068   0.55268   0.46834   0.00000  Uiso   1.00
C411   C     0.27948   0.94732   0.46851   0.00000  Uiso   1.00
C412   C     0.27932   0.55269   0.53168   0.00000  Uiso   1.00
Cl413  Cl    0.01571   0.81746   0.57357   0.00000  Uiso   1.00
Cl414  Cl    0.48425   0.68276   0.57381   0.00000  Uiso   1.00
Cl415  Cl    0.48432   0.81724   0.42633   0.00000  Uiso   1.00
Cl416  Cl    0.01568   0.68254   0.42654   0.00000  Uiso   1.00
H417   H     0.19933   0.62211   0.44539   0.00000  Uiso   1.00
H418   H     0.30704   0.50307   0.43838   0.00000  Uiso   1.00
H419   H     0.30668   0.99695   0.56206   0.00000  Uiso   1.00
H420   H     0.19306   0.50306   0.56176   0.00000  Uiso   1.00
H421   H     0.30093   0.87788   0.44568   0.00000  Uiso   1.00
H422   H     0.30067   0.62213   0.55461   0.00000  Uiso   1.00
H423   H     0.19908   0.87788   0.55432   0.00000  Uiso   1.00
H424   H     0.09871   0.82735   0.58677   0.00000  Uiso   1.00
H425   H     0.40125   0.67323   0.58734   0.00000  Uiso   1.00
H426   H     0.40133   0.82682   0.41276   0.00000  Uiso   1.00
H427   H     0.09868   0.67238   0.41356   0.00000  Uiso   1.00
H428   H     0.19333   0.99693   0.43797   0.00000  Uiso   1.00
N429   N     0.25000   0.62624   0.50000   0.00000  Uiso   1.00
N430   N     0.25000   0.87377   0.50000   0.00000  Uiso   1.00
O431   O     0.18453   0.78974   0.50000   0.00000  Uiso   1.00
O432   O     0.38164   0.69237   0.56570   0.00000  Uiso   1.00
O433   O     0.38170   0.80765   0.43435   0.00000  Uiso   1.00
O434   O     0.11829   0.69204   0.43466   0.00000  Uiso   1.00
O435   O     0.19079   0.53165   0.43591   0.00000  Uiso   1.00
O436   O     0.30954   0.96835   0.43627   0.00000  Uiso   1.00
O437   O     0.30922   0.53167   0.56411   0.00000  Uiso   1.00
O438   O     0.19049   0.96834   0.56377   0.00000  Uiso   1.00
O439   O     0.31547   0.71026   0.50000   0.00000  Uiso   1.00
O440   O     0.31547   0.78974   0.50000   0.00000  Uiso   1.00
O441   O     0.18453   0.71026   0.50000   0.00000  Uiso   1.00
O442   O     0.25000   0.78973   0.42845   0.00000  Uiso   1.00
O443   O     0.25000   0.71027   0.57155   0.00000  Uiso   1.00
O444   O     0.25000   0.78973   0.57155   0.00000  Uiso   1.00
O445   O     0.25000   0.71027   0.42845   0.00000  Uiso   1.00
O446   O     0.11832   0.80792   0.56543   0.00000  Uiso   1.00
Zn447  Zn    0.25000   0.80307   0.50000   0.00000  Uiso   1.00
Zn448  Zn    0.25000   0.69693   0.50000   0.00000  Uiso   1.00
C449   C     0.66393   0.75000   0.50001   0.00000  Uiso   1.00
C450   C     0.72054   0.94731   0.53151   0.00000  Uiso   1.00
C451   C     0.75000   0.75000   0.40617   0.00000  Uiso   1.00
C452   C     0.75000   0.75000   0.59383   0.00000  Uiso   1.00
C453   C     0.75000   0.52669   0.50001   0.00000  Uiso   1.00
C454   C     0.75001   0.97331   0.50001   0.00000  Uiso   1.00
C455   C     0.75000   0.75000   0.35512   0.00000  Uiso   1.00
C456   C     0.75000   0.75000   0.64488   0.00000  Uiso   1.00
C457   C     0.54665   0.78024   0.53300   0.00000  Uiso   1.00
C458   C     0.95333   0.71988   0.53313   0.00000  Uiso   1.00
C459   C     0.95336   0.78013   0.46699   0.00000  Uiso   1.00
C460   C     0.83607   0.75000   0.49999   0.00000  Uiso   1.00
C461   C     0.54664   0.71973   0.46713   0.00000  Uiso   1.00
C462   C     0.59337   0.78020   0.53316   0.00000  Uiso   1.00
C463   C     0.90661   0.71994   0.53330   0.00000  Uiso   1.00
C464   C     0.90664   0.78007   0.46676   0.00000  Uiso   1.00
C465   C     0.59336   0.71977   0.46693   0.00000  Uiso   1.00
C466   C     0.61592   0.75000   0.50003   0.00000  Uiso   1.00
C467   C     0.88407   0.75000   0.50002   0.00000  Uiso   1.00
C468   C     0.52407   0.74998   0.50007   0.00000  Uiso   1.00
C469   C     0.97592   0.75000   0.50007   0.00000  Uiso   1.00
C470   C     0.72160   0.60235   0.46941   0.00000  Uiso   1.00
C471   C     0.77854   0.89764   0.46957   0.00000  Uiso   1.00
C472   C     0.77840   0.60236   0.53060   0.00000  Uiso   1.00
C473   C     0.72146   0.89764   0.53044   0.00000  Uiso   1.00
C474   C     0.72068   0.55268   0.46834   0.00000  Uiso   1.00
C475   C     0.77948   0.94732   0.46851   0.00000  Uiso   1.00
C476   C     0.77932   0.55269   0.53168   0.00000  Uiso   1.00
Cl477  Cl    0.51571   0.81746   0.57357   0.00000  Uiso   1.00
Cl478  Cl    0.98425   0.68276   0.57381   0.00000  Uiso   1.00
Cl479  Cl    0.98432   0.81724   0.42633   0.00000  Uiso   1.00
Cl480  Cl    0.51568   0.68254   0.42654   0.00000  Uiso   1.00
H481   H     0.69933   0.62211   0.44539   0.00000  Uiso   1.00
H482   H     0.80704   0.50307   0.43838   0.00000  Uiso   1.00
H483   H     0.80668   0.99695   0.56206   0.00000  Uiso   1.00
H484   H     0.69306   0.50306   0.56176   0.00000  Uiso   1.00
H485   H     0.80093   0.87788   0.44568   0.00000  Uiso   1.00
H486   H     0.80067   0.62213   0.55461   0.00000  Uiso   1.00
H487   H     0.69908   0.87788   0.55432   0.00000  Uiso   1.00
H488   H     0.59871   0.82735   0.58677   0.00000  Uiso   1.00
H489   H     0.90125   0.67323   0.58734   0.00000  Uiso   1.00
H490   H     0.90133   0.82682   0.41276   0.00000  Uiso   1.00
H491   H     0.59868   0.67238   0.41356   0.00000  Uiso   1.00
H492   H     0.69333   0.99693   0.43797   0.00000  Uiso   1.00
N493   N     0.75000   0.62624   0.50000   0.00000  Uiso   1.00
N494   N     0.75000   0.87377   0.50000   0.00000  Uiso   1.00
O495   O     0.68453   0.78974   0.50000   0.00000  Uiso   1.00
O496   O     0.88164   0.69237   0.56570   0.00000  Uiso   1.00
O497   O     0.88170   0.80765   0.43435   0.00000  Uiso   1.00
O498   O     0.61829   0.69204   0.43466   0.00000  Uiso   1.00
O499   O     0.69079   0.53165   0.43591   0.00000  Uiso   1.00
O500   O     0.80954   0.96835   0.43627   0.00000  Uiso   1.00
O501   O     0.80922   0.53167   0.56411   0.00000  Uiso   1.00
O502   O     0.69049   0.96834   0.56377   0.00000  Uiso   1.00
O503   O     0.81547   0.71026   0.50000   0.00000  Uiso   1.00
O504   O     0.81547   0.78974   0.50000   0.00000  Uiso   1.00
O505   O     0.68453   0.71026   0.50000   0.00000  Uiso   1.00
O506   O     0.75000   0.78973   0.42845   0.00000  Uiso   1.00
O507   O     0.75000   0.71027   0.57155   0.00000  Uiso   1.00
O508   O     0.75000   0.78973   0.57155   0.00000  Uiso   1.00
O509   O     0.75000   0.71027   0.42845   0.00000  Uiso   1.00
O510   O     0.61832   0.80792   0.56543   0.00000  Uiso   1.00
Zn511  Zn    0.75000   0.80307   0.50000   0.00000  Uiso   1.00
Zn512  Zn    0.75000   0.69693   0.50000   0.00000  Uiso   1.00
C513   C     0.16393   0.25000   0.83334   0.00000  Uiso   1.00
C514   C     0.22054   0.44731   0.86484   0.00000  Uiso   1.00
C515   C     0.25000   0.25000   0.73951   0.00000  Uiso   1.00
C516   C     0.25000   0.25000   0.92716   0.00000  Uiso   1.00
C517   C     0.25000   0.02669   0.83334   0.00000  Uiso   1.00
C518   C     0.25001   0.47331   0.83335   0.00000  Uiso   1.00
C519   C     0.25000   0.25000   0.68845   0.00000  Uiso   1.00
C520   C     0.25000   0.25000   0.97822   0.00000  Uiso   1.00
C521   C     0.04665   0.28024   0.86633   0.00000  Uiso   1.00
C522   C     0.45333   0.21988   0.86646   0.00000  Uiso   1.00
C523   C     0.45336   0.28013   0.80032   0.00000  Uiso   1.00
C524   C     0.33607   0.25000   0.83333   0.00000  Uiso   1.00
C525   C     0.04664   0.21973   0.80046   0.00000  Uiso   1.00
C526   C     0.09337   0.28020   0.86650   0.00000  Uiso   1.00
C527   C     0.40661   0.21994   0.86663   0.00000  Uiso   1.00
C528   C     0.40664   0.28007   0.80010   0.00000  Uiso   1.00
C529   C     0.09336   0.21977   0.80027   0.00000  Uiso   1.00
C530   C     0.11592   0.25000   0.83336   0.00000  Uiso   1.00
C531   C     0.38407   0.25000   0.83335   0.00000  Uiso   1.00
C532   C     0.02407   0.24998   0.83340   0.00000  Uiso   1.00
C533   C     0.47592   0.25000   0.83340   0.00000  Uiso   1.00
C534   C     0.22160   0.10235   0.80274   0.00000  Uiso   1.00
C535   C     0.27854   0.39764   0.80290   0.00000  Uiso   1.00
C536   C     0.27840   0.10236   0.86393   0.00000  Uiso   1.00
C537   C     0.22146   0.39764   0.86377   0.00000  Uiso   1.00
C538   C     0.22068   0.05268   0.80167   0.00000  Uiso   1.00
C539   C     0.27948   0.44732   0.80185   0.00000  Uiso   1.00
C540   C     0.27932   0.05269   0.86501   0.00000  Uiso   1.00
Cl541  Cl    0.01571   0.31746   0.90690   0.00000  Uiso   1.00
Cl542  Cl    0.48425   0.18276   0.90715   0.00000  Uiso   1.00
Cl543  Cl    0.48432   0.31724   0.75966   0.00000  Uiso   1.00
Cl544  Cl    0.01568   0.18254   0.75987   0.00000  Uiso   1.00
H545   H     0.19933   0.12211   0.77872   0.00000  Uiso   1.00
H546   H     0.30704   0.00307   0.77171   0.00000  Uiso   1.00
H547   H     0.30668   0.49695   0.89539   0.00000  Uiso   1.00
H548   H     0.19306   0.00306   0.89509   0.00000  Uiso   1.00
H549   H     0.30093   0.37788   0.77901   0.00000  Uiso   1.00
H550   H     0.30067   0.12213   0.88794   0.00000  Uiso   1.00
H551   H     0.19908   0.37788   0.88766   0.00000  Uiso   1.00
H552   H     0.09871   0.32735   0.92011   0.00000  Uiso   1.00
H553   H     0.40125   0.17323   0.92067   0.00000  Uiso   1.00
H554   H     0.40133   0.32682   0.74610   0.00000  Uiso   1.00
H555   H     0.09868   0.17238   0.74690   0.00000  Uiso   1.00
H556   H     0.19333   0.49693   0.77131   0.00000  Uiso   1.00
N557   N     0.25000   0.12624   0.83333   0.00000  Uiso   1.00
N558   N     0.25000   0.37377   0.83333   0.00000  Uiso   1.00
O559   O     0.18453   0.28974   0.83334   0.00000  Uiso   1.00
O560   O     0.38164   0.19237   0.89903   0.00000  Uiso   1.00
O561   O     0.38170   0.30765   0.76768   0.00000  Uiso   1.00
O562   O     0.11829   0.19204   0.76800   0.00000  Uiso   1.00
O563   O     0.19079   0.03165   0.76925   0.00000  Uiso   1.00
O564   O     0.30954   0.46835   0.76961   0.00000  Uiso   1.00
O565   O     0.30922   0.03167   0.89744   0.00000  Uiso   1.00
O566   O     0.19049   0.46834   0.89710   0.00000  Uiso   1.00
O567   O     0.31547   0.21026   0.83333   0.00000  Uiso   1.00
O568   O     0.31547   0.28974   0.83333   0.00000  Uiso   1.00
O569   O     0.18453   0.21026   0.83334   0.00000  Uiso   1.00
O570   O     0.25000   0.28973   0.76178   0.00000  Uiso   1.00
O571   O     0.25000   0.21027   0.90489   0.00000  Uiso   1.00
O572   O     0.25000   0.28973   0.90489   0.00000  Uiso   1.00
O573   O     0.25000   0.21027   0.76178   0.00000  Uiso   1.00
O574   O     0.11832   0.30792   0.89876   0.00000  Uiso   1.00
Zn575  Zn    0.25000   0.30307   0.83333   0.00000  Uiso   1.00
Zn576  Zn    0.25000   0.19693   0.83333   0.00000  Uiso   1.00
C577   C     0.66393   0.25000   0.83334   0.00000  Uiso   1.00
C578   C     0.72054   0.44731   0.86484   0.00000  Uiso   1.00
C579   C     0.75000   0.25000   0.73951   0.00000  Uiso   1.00
C580   C     0.75000   0.25000   0.92716   0.00000  Uiso   1.00
C581   C     0.75000   0.02669   0.83334   0.00000  Uiso   1.00
C582   C     0.75001   0.47331   0.83335   0.00000  Uiso   1.00
C583   C     0.75000   0.25000   0.68845   0.00000  Uiso   1.00
C584   C     0.75000   0.25000   0.97822   0.00000  Uiso   1.00
C585   C     0.54665   0.28024   0.86633   0.00000  Uiso   1.00
C586   C     0.95333   0.21988   0.86646   0.00000  Uiso   1.00
C587   C     0.95336   0.28013   0.80032   0.00000  Uiso   1.00
C588   C     0.83607   0.25000   0.83333   0.00000  Uiso   1.00
C589   C     0.54664   0.21973   0.80046   0.00000  Uiso   1.00
C590   C     0.59337   0.28020   0.86650   0.00000  Uiso   1.00
C591   C     0.90661   0.21994   0.86663   0.00000  Uiso   1.00
C592   C     0.90664   0.28007   0.80010   0.00000  Uiso   1.00
C593   C     0.59336   0.21977   0.80027   0.00000  Uiso   1.00
C594   C     0.61592   0.25000   0.83336   0.00000  Uiso   1.00
C595   C     0.88407   0.25000   0.83335   0.00000  Uiso   1.00
C596   C     0.52407   0.24998   0.83340   0.00000  Uiso   1.00
C597   C     0.97592   0.25000   0.83340   0.00000  Uiso   1.00
C598   C     0.72160   0.10235   0.80274   0.00000  Uiso   1.00
C599   C     0.77854   0.39764   0.80290   0.00000  Uiso   1.00
C600   C     0.77840   0.10236   0.86393   0.00000  Uiso   1.00
C601   C     0.72146   0.39764   0.86377   0.00000  Uiso   1.00
C602   C     0.72068   0.05268   0.80167   0.00000  Uiso   1.00
C603   C     0.77948   0.44732   0.80185   0.00000  Uiso   1.00
C604   C     0.77932   0.05269   0.86501   0.00000  Uiso   1.00
Cl605  Cl    0.51571   0.31746   0.90690   0.00000  Uiso   1.00
Cl606  Cl    0.98425   0.18276   0.90715   0.00000  Uiso   1.00
Cl607  Cl    0.98432   0.31724   0.75966   0.00000  Uiso   1.00
Cl608  Cl    0.51568   0.18254   0.75987   0.00000  Uiso   1.00
H609   H     0.69933   0.12211   0.77872   0.00000  Uiso   1.00
H610   H     0.80704   0.00307   0.77171   0.00000  Uiso   1.00
H611   H     0.80668   0.49695   0.89539   0.00000  Uiso   1.00
H612   H     0.69306   0.00306   0.89509   0.00000  Uiso   1.00
H613   H     0.80093   0.37788   0.77901   0.00000  Uiso   1.00
H614   H     0.80067   0.12213   0.88794   0.00000  Uiso   1.00
H615   H     0.69908   0.37788   0.88766   0.00000  Uiso   1.00
H616   H     0.59871   0.32735   0.92011   0.00000  Uiso   1.00
H617   H     0.90125   0.17323   0.92067   0.00000  Uiso   1.00
H618   H     0.90133   0.32682   0.74610   0.00000  Uiso   1.00
H619   H     0.59868   0.17238   0.74690   0.00000  Uiso   1.00
H620   H     0.69333   0.49693   0.77131   0.00000  Uiso   1.00
N621   N     0.75000   0.12624   0.83333   0.00000  Uiso   1.00
N622   N     0.75000   0.37377   0.83333   0.00000  Uiso   1.00
O623   O     0.68453   0.28974   0.83334   0.00000  Uiso   1.00
O624   O     0.88164   0.19237   0.89903   0.00000  Uiso   1.00
O625   O     0.88170   0.30765   0.76768   0.00000  Uiso   1.00
O626   O     0.61829   0.19204   0.76800   0.00000  Uiso   1.00
O627   O     0.69079   0.03165   0.76925   0.00000  Uiso   1.00
O628   O     0.80954   0.46835   0.76961   0.00000  Uiso   1.00
O629   O     0.80922   0.03167   0.89744   0.00000  Uiso   1.00
O630   O     0.69049   0.46834   0.89710   0.00000  Uiso   1.00
O631   O     0.81547   0.21026   0.83333   0.00000  Uiso   1.00
O632   O     0.81547   0.28974   0.83333   0.00000  Uiso   1.00
O633   O     0.68453   0.21026   0.83334   0.00000  Uiso   1.00
O634   O     0.75000   0.28973   0.76178   0.00000  Uiso   1.00
O635   O     0.75000   0.21027   0.90489   0.00000  Uiso   1.00
O636   O     0.75000   0.28973   0.90489   0.00000  Uiso   1.00
O637   O     0.75000   0.21027   0.76178   0.00000  Uiso   1.00
O638   O     0.61832   0.30792   0.89876   0.00000  Uiso   1.00
Zn639  Zn    0.75000   0.30307   0.83333   0.00000  Uiso   1.00
Zn640  Zn    0.75000   0.19693   0.83333   0.00000  Uiso   1.00
C641   C     0.16393   0.75000   0.83334   0.00000  Uiso   1.00
C642   C     0.22054   0.94731   0.86484   0.00000  Uiso   1.00
C643   C     0.25000   0.75000   0.73951   0.00000  Uiso   1.00
C644   C     0.25000   0.75000   0.92716   0.00000  Uiso   1.00
C645   C     0.25000   0.52669   0.83334   0.00000  Uiso   1.00
C646   C     0.25001   0.97331   0.83335   0.00000  Uiso   1.00
C647   C     0.25000   0.75000   0.68845   0.00000  Uiso   1.00
C648   C     0.25000   0.75000   0.97822   0.00000  Uiso   1.00
C649   C     0.04665   0.78024   0.86633   0.00000  Uiso   1.00
C650   C     0.45333   0.71988   0.86646   0.00000  Uiso   1.00
C651   C     0.45336   0.78013   0.80032   0.00000  Uiso   1.00
C652   C     0.33607   0.75000   0.83333   0.00000  Uiso   1.00
C653   C     0.04664   0.71973   0.80046   0.00000  Uiso   1.00
C654   C     0.09337   0.78020   0.86650   0.00000  Uiso   1.00
C655   C     0.40661   0.71994   0.86663   0.00000  Uiso   1.00
C656   C     0.40664   0.78007   0.80010   0.00000  Uiso   1.00
C657   C     0.09336   0.71977   0.80027   0.00000  Uiso   1.00
C658   C     0.11592   0.75000   0.83336   0.00000  Uiso   1.00
C659   C     0.38407   0.75000   0.83335   0.00000  Uiso   1.00
C660   C     0.02407   0.74998   0.83340   0.00000  Uiso   1.00
C661   C     0.47592   0.75000   0.83340   0.00000  Uiso   1.00
C662   C     0.22160   0.60235   0.80274   0.00000  Uiso   1.00
C663   C     0.27854   0.89764   0.80290   0.00000  Uiso   1.00
C664   C     0.27840   0.60236   0.86393   0.00000  Uiso   1.00
C665   C     0.22146   0.89764   0.86377   0.00000  Uiso   1.00
C666   C     0.22068   0.55268   0.80167   0.00000  Uiso   1.00
C667   C     0.27948   0.94732   0.80185   0.00000  Uiso   1.00
C668   C     0.27932   0.55269   0.86501   0.00000  Uiso   1.00
Cl669  Cl    0.01571   0.81746   0.90690   0.00000  Uiso   1.00
Cl670  Cl    0.48425   0.68276   0.90715   0.00000  Uiso   1.00
Cl671  Cl    0.48432   0.81724   0.75966   0.00000  Uiso   1.00
Cl672  Cl    0.01568   0.68254   0.75987   0.00000  Uiso   1.00
H673   H     0.19933   0.62211   0.77872   0.00000  Uiso   1.00
H674   H     0.30704   0.50307   0.77171   0.00000  Uiso   1.00
H675   H     0.30668   0.99695   0.89539   0.00000  Uiso   1.00
H676   H     0.19306   0.50306   0.89509   0.00000  Uiso   1.00
H677   H     0.30093   0.87788   0.77901   0.00000  Uiso   1.00
H678   H     0.30067   0.62213   0.88794   0.00000  Uiso   1.00
H679   H     0.19908   0.87788   0.88766   0.00000  Uiso   1.00
H680   H     0.09871   0.82735   0.92011   0.00000  Uiso   1.00
H681   H     0.40125   0.67323   0.92067   0.00000  Uiso   1.00
H682   H     0.40133   0.82682   0.74610   0.00000  Uiso   1.00
H683   H     0.09868   0.67238   0.74690   0.00000  Uiso   1.00
H684   H     0.19333   0.99693   0.77131   0.00000  Uiso   1.00
N685   N     0.25000   0.62624   0.83333   0.00000  Uiso   1.00
N686   N     0.25000   0.87377   0.83333   0.00000  Uiso   1.00
O687   O     0.18453   0.78974   0.83334   0.00000  Uiso   1.00
O688   O     0.38164   0.69237   0.89903   0.00000  Uiso   1.00
O689   O     0.38170   0.80765   0.76768   0.00000  Uiso   1.00
O690   O     0.11829   0.69204   0.76800   0.00000  Uiso   1.00
O691   O     0.19079   0.53165   0.76925   0.00000  Uiso   1.00
O692   O     0.30954   0.96835   0.76961   0.00000  Uiso   1.00
O693   O     0.30922   0.53167   0.89744   0.00000  Uiso   1.00
O694   O     0.19049   0.96834   0.89710   0.00000  Uiso   1.00
O695   O     0.31547   0.71026   0.83333   0.00000  Uiso   1.00
O696   O     0.31547   0.78974   0.83333   0.00000  Uiso   1.00
O697   O     0.18453   0.71026   0.83334   0.00000  Uiso   1.00
O698   O     0.25000   0.78973   0.76178   0.00000  Uiso   1.00
O699   O     0.25000   0.71027   0.90489   0.00000  Uiso   1.00
O700   O     0.25000   0.78973   0.90489   0.00000  Uiso   1.00
O701   O     0.25000   0.71027   0.76178   0.00000  Uiso   1.00
O702   O     0.11832   0.80792   0.89876   0.00000  Uiso   1.00
Zn703  Zn    0.25000   0.80307   0.83333   0.00000  Uiso   1.00
Zn704  Zn    0.25000   0.69693   0.83333   0.00000  Uiso   1.00
C705   C     0.66393   0.75000   0.83334   0.00000  Uiso   1.00
C706   C     0.72054   0.94731   0.86484   0.00000  Uiso   1.00
C707   C     0.75000   0.75000   0.73951   0.00000  Uiso   1.00
C708   C     0.75000   0.75000   0.92716   0.00000  Uiso   1.00
C709   C     0.75000   0.52669   0.83334   0.00000  Uiso   1.00
C710   C     0.75001   0.97331   0.83335   0.00000  Uiso   1.00
C711   C     0.75000   0.75000   0.68845   0.00000  Uiso   1.00
C712   C     0.75000   0.75000   0.97822   0.00000  Uiso   1.00
C713   C     0.54665   0.78024   0.86633   0.00000  Uiso   1.00
C714   C     0.95333   0.71988   0.86646   0.00000  Uiso   1.00
C715   C     0.95336   0.78013   0.80032   0.00000  Uiso   1.00
C716   C     0.83607   0.75000   0.83333   0.00000  Uiso   1.00
C717   C     0.54664   0.71973   0.80046   0.00000  Uiso   1.00
C718   C     0.59337   0.78020   0.86650   0.00000  Uiso   1.00
C719   C     0.90661   0.71994   0.86663   0.00000  Uiso   1.00
C720   C     0.90664   0.78007   0.80010   0.00000  Uiso   1.00
C721   C     0.59336   0.71977   0.80027   0.00000  Uiso   1.00
C722   C     0.61592   0.75000   0.83336   0.00000  Uiso   1.00
C723   C     0.88407   0.75000   0.83335   0.00000  Uiso   1.00
C724   C     0.52407   0.74998   0.83340   0.00000  Uiso   1.00
C725   C     0.97592   0.75000   0.83340   0.00000  Uiso   1.00
C726   C     0.72160   0.60235   0.80274   0.00000  Uiso   1.00
C727   C     0.77854   0.89764   0.80290   0.00000  Uiso   1.00
C728   C     0.77840   0.60236   0.86393   0.00000  Uiso   1.00
C729   C     0.72146   0.89764   0.86377   0.00000  Uiso   1.00
C730   C     0.72068   0.55268   0.80167   0.00000  Uiso   1.00
C731   C     0.77948   0.94732   0.80185   0.00000  Uiso   1.00
C732   C     0.77932   0.55269   0.86501   0.00000  Uiso   1.00
Cl733  Cl    0.51571   0.81746   0.90690   0.00000  Uiso   1.00
Cl734  Cl    0.98425   0.68276   0.90715   0.00000  Uiso   1.00
Cl735  Cl    0.98432   0.81724   0.75966   0.00000  Uiso   1.00
Cl736  Cl    0.51568   0.68254   0.75987   0.00000  Uiso   1.00
H737   H     0.69933   0.62211   0.77872   0.00000  Uiso   1.00
H738   H     0.80704   0.50307   0.77171   0.00000  Uiso   1.00
H739   H     0.80668   0.99695   0.89539   0.00000  Uiso   1.00
H740   H     0.69306   0.50306   0.89509   0.00000  Uiso   1.00
H741   H     0.80093   0.87788   0.77901   0.00000  Uiso   1.00
H742   H     0.80067   0.62213   0.88794   0.00000  Uiso   1.00
H743   H     0.69908   0.87788   0.88766   0.00000  Uiso   1.00
H744   H     0.59871   0.82735   0.92011   0.00000  Uiso   1.00
H745   H     0.90125   0.67323   0.92067   0.00000  Uiso   1.00
H746   H     0.90133   0.82682   0.74610   0.00000  Uiso   1.00
H747   H     0.59868   0.67238   0.74690   0.00000  Uiso   1.00
H748   H     0.69333   0.99693   0.77131   0.00000  Uiso   1.00
N749   N     0.75000   0.62624   0.83333   0.00000  Uiso   1.00
N750   N     0.75000   0.87377   0.83333   0.00000  Uiso   1.00
O751   O     0.68453   0.78974   0.83334   0.00000  Uiso   1.00
O752   O     0.88164   0.69237   0.89903   0.00000  Uiso   1.00
O753   O     0.88170   0.80765   0.76768   0.00000  Uiso   1.00
O754   O     0.61829   0.69204   0.76800   0.00000  Uiso   1.00
O755   O     0.69079   0.53165   0.76925   0.00000  Uiso   1.00
O756   O     0.80954   0.96835   0.76961   0.00000  Uiso   1.00
O757   O     0.80922   0.53167   0.89744   0.00000  Uiso   1.00
O758   O     0.69049   0.96834   0.89710   0.00000  Uiso   1.00
O759   O     0.81547   0.71026   0.83333   0.00000  Uiso   1.00
O760   O     0.81547   0.78974   0.83333   0.00000  Uiso   1.00
O761   O     0.68453   0.71026   0.83334   0.00000  Uiso   1.00
O762   O     0.75000   0.78973   0.76178   0.00000  Uiso   1.00
O763   O     0.75000   0.71027   0.90489   0.00000  Uiso   1.00
O764   O     0.75000   0.78973   0.90489   0.00000  Uiso   1.00
O765   O     0.75000   0.71027   0.76178   0.00000  Uiso   1.00
O766   O     0.61832   0.80792   0.89876   0.00000  Uiso   1.00
Zn767  Zn    0.75000   0.80307   0.83333   0.00000  Uiso   1.00
Zn768  Zn    0.75000   0.69693   0.83333   0.00000  Uiso   1.00
loop_
_geom_bond_atom_site_label_1
_geom_bond_atom_site_label_2
_geom_bond_distance
_geom_bond_site_symmetry_2
_ccdc_geom_bond_type
C1     O57     1.284   .     A
C1     C18     1.439   .     S
C1     O47     1.284   .     A
C2     C6      1.425   .     A
C2     C25     1.408   .     A
C2     O54     1.382   .     S
C3     C7      1.365   .     S
C3     O61     1.274   .     A
C3     O58     1.274   .     A
C4     C8      1.365   .     S
C4     O60     1.274   .     A
C4     O59     1.274   .     A
C5     C28     1.425   .     A
C5     C26     1.425   .     A
C5     C134    1.513   1_545 S
C6     C27     1.425   .     A
C6     C133    1.513   .     S
C7     C520    1.165   1_554 S
C8     C263    1.165   .     S
C9     C14     1.400   .     A
C9     Cl29    1.774   .     S
C9     C20     1.403   .     A
C10    C21     1.403   .     A
C10    Cl30    1.774   .     S
C10    C15     1.400   .     A
C11    C16     1.400   .     A
C11    Cl31    1.774   .     S
C11    C21     1.403   .     A
C12    O56     1.284   .     A
C12    O55     1.284   .     A
C12    C19     1.438   .     S
C13    Cl32    1.775   .     S
C13    C17     1.400   .     A
C13    C20     1.403   .     A
C14    C18     1.405   .     A
C14    O62     1.386   .     S
C15    C19     1.405   .     A
C15    O48     1.386   .     S
C16    O49     1.386   .     S
C16    C19     1.405   .     A
C17    O50     1.386   .     S
C17    C18     1.405   .     A
C20    C85     1.443   1_455 S
C21    C84     1.443   .     S
C22    C26     1.408   .     A
C22    N45     1.361   .     A
C22    H33     1.082   .     S
C23    N46     1.361   .     A
C23    C27     1.408   .     A
C23    H37     1.082   .     S
C24    H38     1.082   .     S
C24    N45     1.361   .     A
C24    C28     1.408   .     A
C25    N46     1.361   .     A
C25    H39     1.082   .     S
C26    O51     1.382   .     S
C27    O52     1.382   .     S
C28    O53     1.382   .     S
H34    O180    0.988   1_545 S
H35    O181    0.988   .     S
H36    O182    0.988   1_545 S
H40    O62     0.987   .     S
H41    O48     0.987   .     S
H42    O49     0.987   .     S
H43    O50     0.987   .     S
H44    O179    0.988   .     S
N45    Zn64    2.003   .     S
N46    Zn63    2.003   .     S
O47    Zn63    1.998   .     S
O51    H172    0.988   1_545 S
O52    H162    0.988   .     S
O53    H163    0.988   1_545 S
O54    H164    0.988   .     S
O55    Zn64    1.998   .     S
O56    Zn63    1.998   .     S
O57    Zn64    1.998   .     S
O58    Zn63    1.950   .     S
O59    Zn64    1.950   .     S
O60    Zn63    1.950   .     S
O61    Zn64    1.950   .     S
C65    O121    1.284   .     A
C65    C82     1.439   .     S
C65    O111    1.284   .     A
C66    C70     1.425   .     A
C66    C89     1.408   .     A
C66    O118    1.382   .     S
C67    C71     1.365   .     S
C67    O125    1.274   .     A
C67    O122    1.274   .     A
C68    C72     1.365   .     S
C68    O124    1.274   .     A
C68    O123    1.274   .     A
C69    C92     1.425   .     A
C69    C90     1.425   .     A
C69    C198    1.513   1_545 S
C70    C91     1.425   .     A
C70    C197    1.513   .     S
C71    C584    1.165   1_554 S
C72    C327    1.165   .     S
C73    C78     1.400   .     A
C73    Cl93    1.774   .     S
C73    C84     1.403   .     A
C74    C85     1.403   .     A
C74    Cl94    1.774   .     S
C74    C79     1.400   .     A
C75    C80     1.400   .     A
C75    Cl95    1.774   .     S
C75    C85     1.403   .     A
C76    O120    1.284   .     A
C76    O119    1.284   .     A
C76    C83     1.438   .     S
C77    Cl96    1.775   .     S
C77    C81     1.400   .     A
C77    C84     1.403   .     A
C78    C82     1.405   .     A
C78    O126    1.386   .     S
C79    C83     1.405   .     A
C79    O112    1.386   .     S
C80    O113    1.386   .     S
C80    C83     1.405   .     A
C81    O114    1.386   .     S
C81    C82     1.405   .     A
C85    C20     1.443   1_655 S
C86    C90     1.408   .     A
C86    N109    1.361   .     A
C86    H97     1.082   .     S
C87    N110    1.361   .     A
C87    C91     1.408   .     A
C87    H101    1.082   .     S
C88    H102    1.082   .     S
C88    N109    1.361   .     A
C88    C92     1.408   .     A
C89    N110    1.361   .     A
C89    H103    1.082   .     S
C90    O115    1.382   .     S
C91    O116    1.382   .     S
C92    O117    1.382   .     S
H98    O244    0.988   1_545 S
H99    O245    0.988   .     S
H100   O246    0.988   1_545 S
H104   O126    0.987   .     S
H105   O112    0.987   .     S
H106   O113    0.987   .     S
H107   O114    0.987   .     S
H108   O243    0.988   .     S
N109   Zn128   2.003   .     S
N110   Zn127   2.003   .     S
O111   Zn127   1.998   .     S
O115   H236    0.988   1_545 S
O116   H226    0.988   .     S
O117   H227    0.988   1_545 S
O118   H228    0.988   .     S
O119   Zn128   1.998   .     S
O120   Zn127   1.998   .     S
O121   Zn128   1.998   .     S
O122   Zn127   1.950   .     S
O123   Zn128   1.950   .     S
O124   Zn127   1.950   .     S
O125   Zn128   1.950   .     S
C129   O185    1.284   .     A
C129   C146    1.439   .     S
C129   O175    1.284   .     A
C130   C134    1.425   .     A
C130   C153    1.408   .     A
C130   O182    1.382   .     S
C131   C135    1.365   .     S
C131   O189    1.274   .     A
C131   O186    1.274   .     A
C132   C136    1.365   .     S
C132   O188    1.274   .     A
C132   O187    1.274   .     A
C133   C156    1.425   .     A
C133   C154    1.425   .     A
C134   C155    1.425   .     A
C134   C5      1.513   1_565 S
C135   C648    1.165   1_554 S
C136   C391    1.165   .     S
C137   C142    1.400   .     A
C137   Cl157   1.774   .     S
C137   C148    1.403   .     A
C138   C149    1.403   .     A
C138   Cl158   1.774   .     S
C138   C143    1.400   .     A
C139   C144    1.400   .     A
C139   Cl159   1.774   .     S
C139   C149    1.403   .     A
C140   O184    1.284   .     A
C140   O183    1.284   .     A
C140   C147    1.438   .     S
C141   Cl160   1.775   .     S
C141   C145    1.400   .     A
C141   C148    1.403   .     A
C142   C146    1.405   .     A
C142   O190    1.386   .     S
C143   C147    1.405   .     A
C143   O176    1.386   .     S
C144   O177    1.386   .     S
C144   C147    1.405   .     A
C145   O178    1.386   .     S
C145   C146    1.405   .     A
C148   C213    1.443   1_455 S
C149   C212    1.443   .     S
C150   C154    1.408   .     A
C150   N173    1.361   .     A
C150   H161    1.082   .     S
C151   N174    1.361   .     A
C151   C155    1.408   .     A
C151   H165    1.082   .     S
C152   H166    1.082   .     S
C152   N173    1.361   .     A
C152   C156    1.408   .     A
C153   N174    1.361   .     A
C153   H167    1.082   .     S
C154   O179    1.382   .     S
C155   O180    1.382   .     S
C156   O181    1.382   .     S
H163   O53     0.988   1_565 S
H168   O190    0.987   .     S
H169   O176    0.987   .     S
H170   O177    0.987   .     S
H171   O178    0.987   .     S
H172   O51     0.988   1_565 S
N173   Zn192   2.003   .     S
N174   Zn191   2.003   .     S
O175   Zn191   1.998   .     S
O180   H34     0.988   1_565 S
O182   H36     0.988   1_565 S
O183   Zn192   1.998   .     S
O184   Zn191   1.998   .     S
O185   Zn192   1.998   .     S
O186   Zn191   1.950   .     S
O187   Zn192   1.950   .     S
O188   Zn191   1.950   .     S
O189   Zn192   1.950   .     S
C193   O249    1.284   .     A
C193   C210    1.439   .     S
C193   O239    1.284   .     A
C194   C198    1.425   .     A
C194   C217    1.408   .     A
C194   O246    1.382   .     S
C195   C199    1.365   .     S
C195   O253    1.274   .     A
C195   O250    1.274   .     A
C196   C200    1.365   .     S
C196   O252    1.274   .     A
C196   O251    1.274   .     A
C197   C220    1.425   .     A
C197   C218    1.425   .     A
C198   C219    1.425   .     A
C198   C69     1.513   1_565 S
C199   C712    1.165   1_554 S
C200   C455    1.165   .     S
C201   C206    1.400   .     A
C201   Cl221   1.774   .     S
C201   C212    1.403   .     A
C202   C213    1.403   .     A
C202   Cl222   1.774   .     S
C202   C207    1.400   .     A
C203   C208    1.400   .     A
C203   Cl223   1.774   .     S
C203   C213    1.403   .     A
C204   O248    1.284   .     A
C204   O247    1.284   .     A
C204   C211    1.438   .     S
C205   Cl224   1.775   .     S
C205   C209    1.400   .     A
C205   C212    1.403   .     A
C206   C210    1.405   .     A
C206   O254    1.386   .     S
C207   C211    1.405   .     A
C207   O240    1.386   .     S
C208   O241    1.386   .     S
C208   C211    1.405   .     A
C209   O242    1.386   .     S
C209   C210    1.405   .     A
C213   C148    1.443   1_655 S
C214   C218    1.408   .     A
C214   N237    1.361   .     A
C214   H225    1.082   .     S
C215   N238    1.361   .     A
C215   C219    1.408   .     A
C215   H229    1.082   .     S
C216   H230    1.082   .     S
C216   N237    1.361   .     A
C216   C220    1.408   .     A
C217   N238    1.361   .     A
C217   H231    1.082   .     S
C218   O243    1.382   .     S
C219   O244    1.382   .     S
C220   O245    1.382   .     S
H227   O117    0.988   1_565 S
H232   O254    0.987   .     S
H233   O240    0.987   .     S
H234   O241    0.987   .     S
H235   O242    0.987   .     S
H236   O115    0.988   1_565 S
N237   Zn256   2.003   .     S
N238   Zn255   2.003   .     S
O239   Zn255   1.998   .     S
O244   H98     0.988   1_565 S
O246   H100    0.988   1_565 S
O247   Zn256   1.998   .     S
O248   Zn255   1.998   .     S
O249   Zn256   1.998   .     S
O250   Zn255   1.950   .     S
O251   Zn256   1.950   .     S
O252   Zn255   1.950   .     S
O253   Zn256   1.950   .     S
C257   O313    1.284   .     A
C257   C274    1.439   .     S
C257   O303    1.284   .     A
C258   C262    1.425   .     A
C258   C281    1.408   .     A
C258   O310    1.382   .     S
C259   C263    1.365   .     S
C259   O317    1.274   .     A
C259   O314    1.274   .     A
C260   C264    1.365   .     S
C260   O316    1.274   .     A
C260   O315    1.274   .     A
C261   C284    1.425   .     A
C261   C282    1.425   .     A
C261   C390    1.513   1_545 S
C262   C283    1.425   .     A
C262   C389    1.513   .     S
C264   C519    1.165   .     S
C265   C270    1.400   .     A
C265   Cl285   1.774   .     S
C265   C276    1.403   .     A
C266   C277    1.403   .     A
C266   Cl286   1.774   .     S
C266   C271    1.400   .     A
C267   C272    1.400   .     A
C267   Cl287   1.774   .     S
C267   C277    1.403   .     A
C268   O312    1.284   .     A
C268   O311    1.284   .     A
C268   C275    1.438   .     S
C269   Cl288   1.775   .     S
C269   C273    1.400   .     A
C269   C276    1.403   .     A
C270   C274    1.405   .     A
C270   O318    1.386   .     S
C271   C275    1.405   .     A
C271   O304    1.386   .     S
C272   O305    1.386   .     S
C272   C275    1.405   .     A
C273   O306    1.386   .     S
C273   C274    1.405   .     A
C276   C341    1.443   1_455 S
C277   C340    1.443   .     S
C278   C282    1.408   .     A
C278   N301    1.361   .     A
C278   H289    1.082   .     S
C279   N302    1.361   .     A
C279   C283    1.408   .     A
C279   H293    1.082   .     S
C280   H294    1.082   .     S
C280   N301    1.361   .     A
C280   C284    1.408   .     A
C281   N302    1.361   .     A
C281   H295    1.082   .     S
C282   O307    1.382   .     S
C283   O308    1.382   .     S
C284   O309    1.382   .     S
H290   O436    0.988   1_545 S
H291   O437    0.988   .     S
H292   O438    0.988   1_545 S
H296   O318    0.987   .     S
H297   O304    0.987   .     S
H298   O305    0.987   .     S
H299   O306    0.987   .     S
H300   O435    0.988   .     S
N301   Zn320   2.003   .     S
N302   Zn319   2.003   .     S
O303   Zn319   1.998   .     S
O307   H428    0.988   1_545 S
O308   H418    0.988   .     S
O309   H419    0.988   1_545 S
O310   H420    0.988   .     S
O311   Zn320   1.998   .     S
O312   Zn319   1.998   .     S
O313   Zn320   1.998   .     S
O314   Zn319   1.950   .     S
O315   Zn320   1.950   .     S
O316   Zn319   1.950   .     S
O317   Zn320   1.950   .     S
C321   O377    1.284   .     A
C321   C338    1.439   .     S
C321   O367    1.284   .     A
C322   C326    1.425   .     A
C322   C345    1.408   .     A
C322   O374    1.382   .     S
C323   C327    1.365   .     S
C323   O381    1.274   .     A
C323   O378    1.274   .     A
C324   C328    1.365   .     S
C324   O380    1.274   .     A
C324   O379    1.274   .     A
C325   C348    1.425   .     A
C325   C346    1.425   .     A
C325   C454    1.513   1_545 S
C326   C347    1.425   .     A
C326   C453    1.513   .     S
C328   C583    1.165   .     S
C329   C334    1.400   .     A
C329   Cl349   1.774   .     S
C329   C340    1.403   .     A
C330   C341    1.403   .     A
C330   Cl350   1.774   .     S
C330   C335    1.400   .     A
C331   C336    1.400   .     A
C331   Cl351   1.774   .     S
C331   C341    1.403   .     A
C332   O376    1.284   .     A
C332   O375    1.284   .     A
C332   C339    1.438   .     S
C333   Cl352   1.775   .     S
C333   C337    1.400   .     A
C333   C340    1.403   .     A
C334   C338    1.405   .     A
C334   O382    1.386   .     S
C335   C339    1.405   .     A
C335   O368    1.386   .     S
C336   O369    1.386   .     S
C336   C339    1.405   .     A
C337   O370    1.386   .     S
C337   C338    1.405   .     A
C341   C276    1.443   1_655 S
C342   C346    1.408   .     A
C342   N365    1.361   .     A
C342   H353    1.082   .     S
C343   N366    1.361   .     A
C343   C347    1.408   .     A
C343   H357    1.082   .     S
C344   H358    1.082   .     S
C344   N365    1.361   .     A
C344   C348    1.408   .     A
C345   N366    1.361   .     A
C345   H359    1.082   .     S
C346   O371    1.382   .     S
C347   O372    1.382   .     S
C348   O373    1.382   .     S
H354   O500    0.988   1_545 S
H355   O501    0.988   .     S
H356   O502    0.988   1_545 S
H360   O382    0.987   .     S
H361   O368    0.987   .     S
H362   O369    0.987   .     S
H363   O370    0.987   .     S
H364   O499    0.988   .     S
N365   Zn384   2.003   .     S
N366   Zn383   2.003   .     S
O367   Zn383   1.998   .     S
O371   H492    0.988   1_545 S
O372   H482    0.988   .     S
O373   H483    0.988   1_545 S
O374   H484    0.988   .     S
O375   Zn384   1.998   .     S
O376   Zn383   1.998   .     S
O377   Zn384   1.998   .     S
O378   Zn383   1.950   .     S
O379   Zn384   1.950   .     S
O380   Zn383   1.950   .     S
O381   Zn384   1.950   .     S
C385   O441    1.284   .     A
C385   C402    1.439   .     S
C385   O431    1.284   .     A
C386   C390    1.425   .     A
C386   C409    1.408   .     A
C386   O438    1.382   .     S
C387   C391    1.365   .     S
C387   O445    1.274   .     A
C387   O442    1.274   .     A
C388   C392    1.365   .     S
C388   O444    1.274   .     A
C388   O443    1.274   .     A
C389   C412    1.425   .     A
C389   C410    1.425   .     A
C390   C411    1.425   .     A
C390   C261    1.513   1_565 S
C392   C647    1.165   .     S
C393   C398    1.400   .     A
C393   Cl413   1.774   .     S
C393   C404    1.403   .     A
C394   C405    1.403   .     A
C394   Cl414   1.774   .     S
C394   C399    1.400   .     A
C395   C400    1.400   .     A
C395   Cl415   1.774   .     S
C395   C405    1.403   .     A
C396   O440    1.284   .     A
C396   O439    1.284   .     A
C396   C403    1.438   .     S
C397   Cl416   1.775   .     S
C397   C401    1.400   .     A
C397   C404    1.403   .     A
C398   C402    1.405   .     A
C398   O446    1.386   .     S
C399   C403    1.405   .     A
C399   O432    1.386   .     S
C400   O433    1.386   .     S
C400   C403    1.405   .     A
C401   O434    1.386   .     S
C401   C402    1.405   .     A
C404   C469    1.443   1_455 S
C405   C468    1.443   .     S
C406   C410    1.408   .     A
C406   N429    1.361   .     A
C406   H417    1.082   .     S
C407   N430    1.361   .     A
C407   C411    1.408   .     A
C407   H421    1.082   .     S
C408   H422    1.082   .     S
C408   N429    1.361   .     A
C408   C412    1.408   .     A
C409   N430    1.361   .     A
C409   H423    1.082   .     S
C410   O435    1.382   .     S
C411   O436    1.382   .     S
C412   O437    1.382   .     S
H419   O309    0.988   1_565 S
H424   O446    0.987   .     S
H425   O432    0.987   .     S
H426   O433    0.987   .     S
H427   O434    0.987   .     S
H428   O307    0.988   1_565 S
N429   Zn448   2.003   .     S
N430   Zn447   2.003   .     S
O431   Zn447   1.998   .     S
O436   H290    0.988   1_565 S
O438   H292    0.988   1_565 S
O439   Zn448   1.998   .     S
O440   Zn447   1.998   .     S
O441   Zn448   1.998   .     S
O442   Zn447   1.950   .     S
O443   Zn448   1.950   .     S
O444   Zn447   1.950   .     S
O445   Zn448   1.950   .     S
C449   O505    1.284   .     A
C449   C466    1.439   .     S
C449   O495    1.284   .     A
C450   C454    1.425   .     A
C450   C473    1.408   .     A
C450   O502    1.382   .     S
C451   C455    1.365   .     S
C451   O509    1.274   .     A
C451   O506    1.274   .     A
C452   C456    1.365   .     S
C452   O508    1.274   .     A
C452   O507    1.274   .     A
C453   C476    1.425   .     A
C453   C474    1.425   .     A
C454   C475    1.425   .     A
C454   C325    1.513   1_565 S
C456   C711    1.165   .     S
C457   C462    1.400   .     A
C457   Cl477   1.774   .     S
C457   C468    1.403   .     A
C458   C469    1.403   .     A
C458   Cl478   1.774   .     S
C458   C463    1.400   .     A
C459   C464    1.400   .     A
C459   Cl479   1.774   .     S
C459   C469    1.403   .     A
C460   O504    1.284   .     A
C460   O503    1.284   .     A
C460   C467    1.438   .     S
C461   Cl480   1.775   .     S
C461   C465    1.400   .     A
C461   C468    1.403   .     A
C462   C466    1.405   .     A
C462   O510    1.386   .     S
C463   C467    1.405   .     A
C463   O496    1.386   .     S
C464   O497    1.386   .     S
C464   C467    1.405   .     A
C465   O498    1.386   .     S
C465   C466    1.405   .     A
C469   C404    1.443   1_655 S
C470   C474    1.408   .     A
C470   N493    1.361   .     A
C470   H481    1.082   .     S
C471   N494    1.361   .     A
C471   C475    1.408   .     A
C471   H485    1.082   .     S
C472   H486    1.082   .     S
C472   N493    1.361   .     A
C472   C476    1.408   .     A
C473   N494    1.361   .     A
C473   H487    1.082   .     S
C474   O499    1.382   .     S
C475   O500    1.382   .     S
C476   O501    1.382   .     S
H483   O373    0.988   1_565 S
H488   O510    0.987   .     S
H489   O496    0.987   .     S
H490   O497    0.987   .     S
H491   O498    0.987   .     S
H492   O371    0.988   1_565 S
N493   Zn512   2.003   .     S
N494   Zn511   2.003   .     S
O495   Zn511   1.998   .     S
O500   H354    0.988   1_565 S
O502   H356    0.988   1_565 S
O503   Zn512   1.998   .     S
O504   Zn511   1.998   .     S
O505   Zn512   1.998   .     S
O506   Zn511   1.950   .     S
O507   Zn512   1.950   .     S
O508   Zn511   1.950   .     S
O509   Zn512   1.950   .     S
C513   O569    1.284   .     A
C513   C530    1.439   .     S
C513   O559    1.284   .     A
C514   C518    1.425   .     A
C514   C537    1.408   .     A
C514   O566    1.382   .     S
C515   C519    1.365   .     S
C515   O573    1.274   .     A
C515   O570    1.274   .     A
C516   C520    1.365   .     S
C516   O572    1.274   .     A
C516   O571    1.274   .     A
C517   C540    1.425   .     A
C517   C538    1.425   .     A
C517   C646    1.513   1_545 S
C518   C539    1.425   .     A
C518   C645    1.513   .     S
C520   C7      1.165   1_556 S
C521   C526    1.400   .     A
C521   Cl541   1.774   .     S
C521   C532    1.403   .     A
C522   C533    1.403   .     A
C522   Cl542   1.774   .     S
C522   C527    1.400   .     A
C523   C528    1.400   .     A
C523   Cl543   1.774   .     S
C523   C533    1.403   .     A
C524   O568    1.284   .     A
C524   O567    1.284   .     A
C524   C531    1.438   .     S
C525   Cl544   1.775   .     S
C525   C529    1.400   .     A
C525   C532    1.403   .     A
C526   C530    1.405   .     A
C526   O574    1.386   .     S
C527   C531    1.405   .     A
C527   O560    1.386   .     S
C528   O561    1.386   .     S
C528   C531    1.405   .     A
C529   O562    1.386   .     S
C529   C530    1.405   .     A
C532   C597    1.443   1_455 S
C533   C596    1.443   .     S
C534   C538    1.408   .     A
C534   N557    1.361   .     A
C534   H545    1.082   .     S
C535   N558    1.361   .     A
C535   C539    1.408   .     A
C535   H549    1.082   .     S
C536   H550    1.082   .     S
C536   N557    1.361   .     A
C536   C540    1.408   .     A
C537   N558    1.361   .     A
C537   H551    1.082   .     S
C538   O563    1.382   .     S
C539   O564    1.382   .     S
C540   O565    1.382   .     S
H546   O692    0.988   1_545 S
H547   O693    0.988   .     S
H548   O694    0.988   1_545 S
H552   O574    0.987   .     S
H553   O560    0.987   .     S
H554   O561    0.987   .     S
H555   O562    0.987   .     S
H556   O691    0.988   .     S
N557   Zn576   2.003   .     S
N558   Zn575   2.003   .     S
O559   Zn575   1.998   .     S
O563   H684    0.988   1_545 S
O564   H674    0.988   .     S
O565   H675    0.988   1_545 S
O566   H676    0.988   .     S
O567   Zn576   1.998   .     S
O568   Zn575   1.998   .     S
O569   Zn576   1.998   .     S
O570   Zn575   1.950   .     S
O571   Zn576   1.950   .     S
O572   Zn575   1.950   .     S
O573   Zn576   1.950   .     S
C577   O633    1.284   .     A
C577   C594    1.439   .     S
C577   O623    1.284   .     A
C578   C582    1.425   .     A
C578   C601    1.408   .     A
C578   O630    1.382   .     S
C579   C583    1.365   .     S
C579   O637    1.274   .     A
C579   O634    1.274   .     A
C580   C584    1.365   .     S
C580   O636    1.274   .     A
C580   O635    1.274   .     A
C581   C604    1.425   .     A
C581   C602    1.425   .     A
C581   C710    1.513   1_545 S
C582   C603    1.425   .     A
C582   C709    1.513   .     S
C584   C71     1.165   1_556 S
C585   C590    1.400   .     A
C585   Cl605   1.774   .     S
C585   C596    1.403   .     A
C586   C597    1.403   .     A
C586   Cl606   1.774   .     S
C586   C591    1.400   .     A
C587   C592    1.400   .     A
C587   Cl607   1.774   .     S
C587   C597    1.403   .     A
C588   O632    1.284   .     A
C588   O631    1.284   .     A
C588   C595    1.438   .     S
C589   Cl608   1.775   .     S
C589   C593    1.400   .     A
C589   C596    1.403   .     A
C590   C594    1.405   .     A
C590   O638    1.386   .     S
C591   C595    1.405   .     A
C591   O624    1.386   .     S
C592   O625    1.386   .     S
C592   C595    1.405   .     A
C593   O626    1.386   .     S
C593   C594    1.405   .     A
C597   C532    1.443   1_655 S
C598   C602    1.408   .     A
C598   N621    1.361   .     A
C598   H609    1.082   .     S
C599   N622    1.361   .     A
C599   C603    1.408   .     A
C599   H613    1.082   .     S
C600   H614    1.082   .     S
C600   N621    1.361   .     A
C600   C604    1.408   .     A
C601   N622    1.361   .     A
C601   H615    1.082   .     S
C602   O627    1.382   .     S
C603   O628    1.382   .     S
C604   O629    1.382   .     S
H610   O756    0.988   1_545 S
H611   O757    0.988   .     S
H612   O758    0.988   1_545 S
H616   O638    0.987   .     S
H617   O624    0.987   .     S
H618   O625    0.987   .     S
H619   O626    0.987   .     S
H620   O755    0.988   .     S
N621   Zn640   2.003   .     S
N622   Zn639   2.003   .     S
O623   Zn639   1.998   .     S
O627   H748    0.988   1_545 S
O628   H738    0.988   .     S
O629   H739    0.988   1_545 S
O630   H740    0.988   .     S
O631   Zn640   1.998   .     S
O632   Zn639   1.998   .     S
O633   Zn640   1.998   .     S
O634   Zn639   1.950   .     S
O635   Zn640   1.950   .     S
O636   Zn639   1.950   .     S
O637   Zn640   1.950   .     S
C641   O697    1.284   .     A
C641   C658    1.439   .     S
C641   O687    1.284   .     A
C642   C646    1.425   .     A
C642   C665    1.408   .     A
C642   O694    1.382   .     S
C643   C647    1.365   .     S
C643   O701    1.274   .     A
C643   O698    1.274   .     A
C644   C648    1.365   .     S
C644   O700    1.274   .     A
C644   O699    1.274   .     A
C645   C668    1.425   .     A
C645   C666    1.425   .     A
C646   C667    1.425   .     A
C646   C517    1.513   1_565 S
C648   C135    1.165   1_556 S
C649   C654    1.400   .     A
C649   Cl669   1.774   .     S
C649   C660    1.403   .     A
C650   C661    1.403   .     A
C650   Cl670   1.774   .     S
C650   C655    1.400   .     A
C651   C656    1.400   .     A
C651   Cl671   1.774   .     S
C651   C661    1.403   .     A
C652   O696    1.284   .     A
C652   O695    1.284   .     A
C652   C659    1.438   .     S
C653   Cl672   1.775   .     S
C653   C657    1.400   .     A
C653   C660    1.403   .     A
C654   C658    1.405   .     A
C654   O702    1.386   .     S
C655   C659    1.405   .     A
C655   O688    1.386   .     S
C656   O689    1.386   .     S
C656   C659    1.405   .     A
C657   O690    1.386   .     S
C657   C658    1.405   .     A
C660   C725    1.443   1_455 S
C661   C724    1.443   .     S
C662   C666    1.408   .     A
C662   N685    1.361   .     A
C662   H673    1.082   .     S
C663   N686    1.361   .     A
C663   C667    1.408   .     A
C663   H677    1.082   .     S
C664   H678    1.082   .     S
C664   N685    1.361   .     A
C664   C668    1.408   .     A
C665   N686    1.361   .     A
C665   H679    1.082   .     S
C666   O691    1.382   .     S
C667   O692    1.382   .     S
C668   O693    1.382   .     S
H675   O565    0.988   1_565 S
H680   O702    0.987   .     S
H681   O688    0.987   .     S
H682   O689    0.987   .     S
H683   O690    0.987   .     S
H684   O563    0.988   1_565 S
N685   Zn704   2.003   .     S
N686   Zn703   2.003   .     S
O687   Zn703   1.998   .     S
O692   H546    0.988   1_565 S
O694   H548    0.988   1_565 S
O695   Zn704   1.998   .     S
O696   Zn703   1.998   .     S
O697   Zn704   1.998   .     S
O698   Zn703   1.950   .     S
O699   Zn704   1.950   .     S
O700   Zn703   1.950   .     S
O701   Zn704   1.950   .     S
C705   O761    1.284   .     A
C705   C722    1.439   .     S
C705   O751    1.284   .     A
C706   C710    1.425   .     A
C706   C729    1.408   .     A
C706   O758    1.382   .     S
C707   C711    1.365   .     S
C707   O765    1.274   .     A
C707   O762    1.274   .     A
C708   C712    1.365   .     S
C708   O764    1.274   .     A
C708   O763    1.274   .     A
C709   C732    1.425   .     A
C709   C730    1.425   .     A
C710   C731    1.425   .     A
C710   C581    1.513   1_565 S
C712   C199    1.165   1_556 S
C713   C718    1.400   .     A
C713   Cl733   1.774   .     S
C713   C724    1.403   .     A
C714   C725    1.403   .     A
C714   Cl734   1.774   .     S
C714   C719    1.400   .     A
C715   C720    1.400   .     A
C715   Cl735   1.774   .     S
C715   C725    1.403   .     A
C716   O760    1.284   .     A
C716   O759    1.284   .     A
C716   C723    1.438   .     S
C717   Cl736   1.775   .     S
C717   C721    1.400   .     A
C717   C724    1.403   .     A
C718   C722    1.405   .     A
C718   O766    1.386   .     S
C719   C723    1.405   .     A
C719   O752    1.386   .     S
C720   O753    1.386   .     S
C720   C723    1.405   .     A
C721   O754    1.386   .     S
C721   C722    1.405   .     A
C725   C660    1.443   1_655 S
C726   C730    1.408   .     A
C726   N749    1.361   .     A
C726   H737    1.082   .     S
C727   N750    1.361   .     A
C727   C731    1.408   .     A
C727   H741    1.082   .     S
C728   H742    1.082   .     S
C728   N749    1.361   .     A
C728   C732    1.408   .     A
C729   N750    1.361   .     A
C729   H743    1.082   .     S
C730   O755    1.382   .     S
C731   O756    1.382   .     S
C732   O757    1.382   .     S
H739   O629    0.988   1_565 S
H744   O766    0.987   .     S
H745   O752    0.987   .     S
H746   O753    0.987   .     S
H747   O754    0.987   .     S
H748   O627    0.988   1_565 S
N749   Zn768   2.003   .     S
N750   Zn767   2.003   .     S
O751   Zn767   1.998   .     S
O756   H610    0.988   1_565 S
O758   H612    0.988   1_565 S
O759   Zn768   1.998   .     S
O760   Zn767   1.998   .     S
O761   Zn768   1.998   .     S
O762   Zn767   1.950   .     S
O763   Zn768   1.950   .     S
O764   Zn767   1.950   .     S
O765   Zn768   1.950   .     S
