data_str_m2_o1_o16_pcu_sym.88
_audit_creation_date              2020-01-03
_audit_creation_method            'Materials Studio'
_symmetry_space_group_name_H-M    'P1'
_symmetry_Int_Tables_number       1
_symmetry_cell_setting            triclinic
loop_
_symmetry_equiv_pos_as_xyz
  x,y,z
_cell_length_a                    28.5735
_cell_length_b                    32.6736
_cell_length_c                    27.0248
_cell_angle_alpha                 90.7937
_cell_angle_beta                  74.0479
_cell_angle_gamma                 88.8944
loop_
_atom_site_label
_atom_site_type_symbol
_atom_site_fract_x
_atom_site_fract_y
_atom_site_fract_z
_atom_site_U_iso_or_equiv
_atom_site_adp_type
_atom_site_occupancy
C1     C     0.16567   0.24620   0.25177   0.00000  Uiso   1.00
C2     C     0.12601   0.16980   0.40699   0.00000  Uiso   1.00
C3     C     0.20805   0.31153   0.25040   0.00000  Uiso   1.00
C4     C     0.14093   0.16851   0.34997   0.00000  Uiso   1.00
C5     C     0.20960   0.02054   0.24812   0.00000  Uiso   1.00
C6     C     0.16961   0.04291   0.24148   0.00000  Uiso   1.00
C7     C     0.12879   0.02218   0.23530   0.00000  Uiso   1.00
C8     C     0.12312   0.31476   0.24909   0.00000  Uiso   1.00
C9     C     0.16478   0.29127   0.25155   0.00000  Uiso   1.00
C10    C     0.30059   0.19471   0.27907   0.00000  Uiso   1.00
C11    C     0.01615   0.19229   0.28175   0.00000  Uiso   1.00
C12    C     0.14593   0.17455   0.48954   0.00000  Uiso   1.00
C13    C     0.03319   0.13954   0.21968   0.00000  Uiso   1.00
C14    C     0.31677   0.13906   0.22036   0.00000  Uiso   1.00
C15    C     0.16802   0.08749   0.24623   0.00000  Uiso   1.00
C16    C     0.19203   0.16964   0.15060   0.00000  Uiso   1.00
C17    C     0.26653   0.18570   0.01407   0.00000  Uiso   1.00
C18    C     0.20526   0.17680   0.09506   0.00000  Uiso   1.00
C19    C     0.08008   0.15493   0.43280   0.00000  Uiso   1.00
C20    C     0.06767   0.14875   0.48559   0.00000  Uiso   1.00
C21    C     0.10065   0.15737   0.01353   0.00000  Uiso   1.00
C22    C     0.15837   0.18146   0.43605   0.00000  Uiso   1.00
C23    C     0.18086   0.18230   0.01674   0.00000  Uiso   1.00
C24    C     0.22976   0.18855   0.48906   0.00000  Uiso   1.00
C25    C     0.24018   0.19956   0.43772   0.00000  Uiso   1.00
C26    C     0.20324   0.19953   0.41331   0.00000  Uiso   1.00
C27    C     0.16869   0.18589   0.07046   0.00000  Uiso   1.00
C28    C     0.25442   0.17665   0.06627   0.00000  Uiso   1.00
Cu29   Cu    0.11978   0.16666   0.25000   0.00000  Uiso   1.00
Cu30   Cu    0.21355   0.16667   0.25000   0.00000  Uiso   1.00
H31    H     0.28334   0.17187   0.08456   0.00000  Uiso   1.00
H32    H     0.03304   0.13557   0.00462   0.00000  Uiso   1.00
H33    H     0.20976   0.21367   0.37683   0.00000  Uiso   1.00
H34    H     0.24035   0.29487   0.25314   0.00000  Uiso   1.00
H35    H     0.11063   0.05920   0.18871   0.00000  Uiso   1.00
H36    H     0.01573   0.27345   0.22807   0.00000  Uiso   1.00
H37    H     0.28813   0.24468   0.32084   0.00000  Uiso   1.00
H38    H     0.04357   0.21378   0.14382   0.00000  Uiso   1.00
H39    H     0.24206   0.03566   0.25140   0.00000  Uiso   1.00
H40    H     0.02778   0.21151   0.30832   0.00000  Uiso   1.00
H41    H     0.05871   0.11836   0.19462   0.00000  Uiso   1.00
H42    H     0.30477   0.11709   0.19641   0.00000  Uiso   1.00
H43    H     0.27615   0.20950   0.41713   0.00000  Uiso   1.00
H44    H     0.30434   0.18926   0.49305   0.00000  Uiso   1.00
H45    H     0.05450   0.14603   0.41177   0.00000  Uiso   1.00
H46    H     0.09123   0.14895   0.05348   0.00000  Uiso   1.00
N47    N     0.04931   0.16666   0.24998   0.00000  Uiso   1.00
N48    N     0.28402   0.16669   0.24999   0.00000  Uiso   1.00
O49    O     0.12708   0.22678   0.25000   0.00000  Uiso   1.00
O50    O     0.05817   0.27532   0.32095   0.00000  Uiso   1.00
O51    O     0.02683   0.33325   0.28318   0.00000  Uiso   1.00
O52    O     0.05004   0.26697   0.22688   0.00000  Uiso   1.00
O53    O     0.27015   0.22629   0.30341   0.00000  Uiso   1.00
O54    O     0.13385   0.24759   0.13846   0.00000  Uiso   1.00
O55    O     0.10487   0.24549   0.06148   0.00000  Uiso   1.00
O56    O     0.07045   0.19318   0.13269   0.00000  Uiso   1.00
O57    O     0.20627   0.22679   0.25000   0.00000  Uiso   1.00
O58    O     0.10775   0.16665   0.32549   0.00000  Uiso   1.00
O59    O     0.18694   0.16666   0.32549   0.00000  Uiso   1.00
O60    O     0.12706   0.10654   0.24999   0.00000  Uiso   1.00
O61    O     0.20625   0.10655   0.24999   0.00000  Uiso   1.00
O62    O     0.14640   0.16667   0.17451   0.00000  Uiso   1.00
O63    O     0.22559   0.16668   0.17451   0.00000  Uiso   1.00
O64    O     0.09363   0.04112   0.21683   0.00000  Uiso   1.00
S65    S     0.06264   0.29767   0.27177   0.00000  Uiso   1.00
S66    S     0.11892   0.21973   0.10106   0.00000  Uiso   1.00
C67    C     0.49900   0.24620   0.25177   0.00000  Uiso   1.00
C68    C     0.45934   0.16980   0.40699   0.00000  Uiso   1.00
C69    C     0.54138   0.31153   0.25040   0.00000  Uiso   1.00
C70    C     0.47426   0.16851   0.34997   0.00000  Uiso   1.00
C71    C     0.54293   0.02054   0.24812   0.00000  Uiso   1.00
C72    C     0.50295   0.04291   0.24148   0.00000  Uiso   1.00
C73    C     0.46213   0.02218   0.23530   0.00000  Uiso   1.00
C74    C     0.45645   0.31476   0.24909   0.00000  Uiso   1.00
C75    C     0.49811   0.29127   0.25155   0.00000  Uiso   1.00
C76    C     0.63393   0.19471   0.27907   0.00000  Uiso   1.00
C77    C     0.34948   0.19229   0.28175   0.00000  Uiso   1.00
C78    C     0.47926   0.17455   0.48954   0.00000  Uiso   1.00
C79    C     0.36652   0.13954   0.21968   0.00000  Uiso   1.00
C80    C     0.65010   0.13906   0.22036   0.00000  Uiso   1.00
C81    C     0.50135   0.08749   0.24623   0.00000  Uiso   1.00
C82    C     0.52537   0.16964   0.15060   0.00000  Uiso   1.00
C83    C     0.59986   0.18570   0.01407   0.00000  Uiso   1.00
C84    C     0.53859   0.17680   0.09506   0.00000  Uiso   1.00
C85    C     0.41341   0.15493   0.43280   0.00000  Uiso   1.00
C86    C     0.40100   0.14875   0.48559   0.00000  Uiso   1.00
C87    C     0.43398   0.15737   0.01353   0.00000  Uiso   1.00
C88    C     0.49170   0.18146   0.43605   0.00000  Uiso   1.00
C89    C     0.51420   0.18230   0.01674   0.00000  Uiso   1.00
C90    C     0.56310   0.18855   0.48906   0.00000  Uiso   1.00
C91    C     0.57352   0.19956   0.43772   0.00000  Uiso   1.00
C92    C     0.53657   0.19953   0.41331   0.00000  Uiso   1.00
C93    C     0.50202   0.18589   0.07046   0.00000  Uiso   1.00
C94    C     0.58775   0.17665   0.06627   0.00000  Uiso   1.00
Cu95   Cu    0.45311   0.16666   0.25000   0.00000  Uiso   1.00
Cu96   Cu    0.54689   0.16667   0.25000   0.00000  Uiso   1.00
H97    H     0.61667   0.17187   0.08456   0.00000  Uiso   1.00
H98    H     0.36637   0.13557   0.00462   0.00000  Uiso   1.00
H99    H     0.54309   0.21367   0.37683   0.00000  Uiso   1.00
H100   H     0.57368   0.29487   0.25314   0.00000  Uiso   1.00
H101   H     0.44397   0.05920   0.18871   0.00000  Uiso   1.00
H102   H     0.34907   0.27345   0.22807   0.00000  Uiso   1.00
H103   H     0.62147   0.24468   0.32084   0.00000  Uiso   1.00
H104   H     0.37690   0.21378   0.14382   0.00000  Uiso   1.00
H105   H     0.57539   0.03566   0.25140   0.00000  Uiso   1.00
H106   H     0.36111   0.21151   0.30832   0.00000  Uiso   1.00
H107   H     0.39205   0.11836   0.19462   0.00000  Uiso   1.00
H108   H     0.63810   0.11709   0.19641   0.00000  Uiso   1.00
H109   H     0.60949   0.20950   0.41713   0.00000  Uiso   1.00
H110   H     0.63767   0.18926   0.49305   0.00000  Uiso   1.00
H111   H     0.38784   0.14603   0.41177   0.00000  Uiso   1.00
H112   H     0.42457   0.14895   0.05348   0.00000  Uiso   1.00
N113   N     0.38265   0.16666   0.24998   0.00000  Uiso   1.00
N114   N     0.61735   0.16669   0.24999   0.00000  Uiso   1.00
O115   O     0.46042   0.22678   0.25000   0.00000  Uiso   1.00
O116   O     0.39150   0.27532   0.32095   0.00000  Uiso   1.00
O117   O     0.36016   0.33325   0.28318   0.00000  Uiso   1.00
O118   O     0.38338   0.26697   0.22688   0.00000  Uiso   1.00
O119   O     0.60348   0.22629   0.30341   0.00000  Uiso   1.00
O120   O     0.46718   0.24759   0.13846   0.00000  Uiso   1.00
O121   O     0.43821   0.24549   0.06148   0.00000  Uiso   1.00
O122   O     0.40378   0.19318   0.13269   0.00000  Uiso   1.00
O123   O     0.53961   0.22679   0.25000   0.00000  Uiso   1.00
O124   O     0.44108   0.16665   0.32549   0.00000  Uiso   1.00
O125   O     0.52027   0.16666   0.32549   0.00000  Uiso   1.00
O126   O     0.46039   0.10654   0.24999   0.00000  Uiso   1.00
O127   O     0.53958   0.10655   0.24999   0.00000  Uiso   1.00
O128   O     0.47973   0.16667   0.17451   0.00000  Uiso   1.00
O129   O     0.55892   0.16668   0.17451   0.00000  Uiso   1.00
O130   O     0.42696   0.04112   0.21683   0.00000  Uiso   1.00
S131   S     0.39598   0.29767   0.27177   0.00000  Uiso   1.00
S132   S     0.45226   0.21973   0.10106   0.00000  Uiso   1.00
C133   C     0.83233   0.24620   0.25177   0.00000  Uiso   1.00
C134   C     0.79268   0.16980   0.40699   0.00000  Uiso   1.00
C135   C     0.87471   0.31153   0.25040   0.00000  Uiso   1.00
C136   C     0.80759   0.16851   0.34997   0.00000  Uiso   1.00
C137   C     0.87627   0.02054   0.24812   0.00000  Uiso   1.00
C138   C     0.83628   0.04291   0.24148   0.00000  Uiso   1.00
C139   C     0.79546   0.02218   0.23530   0.00000  Uiso   1.00
C140   C     0.78978   0.31476   0.24909   0.00000  Uiso   1.00
C141   C     0.83145   0.29127   0.25155   0.00000  Uiso   1.00
C142   C     0.96726   0.19471   0.27907   0.00000  Uiso   1.00
C143   C     0.68281   0.19229   0.28175   0.00000  Uiso   1.00
C144   C     0.81259   0.17455   0.48954   0.00000  Uiso   1.00
C145   C     0.69985   0.13954   0.21968   0.00000  Uiso   1.00
C146   C     0.98343   0.13906   0.22036   0.00000  Uiso   1.00
C147   C     0.83468   0.08749   0.24623   0.00000  Uiso   1.00
C148   C     0.85870   0.16964   0.15060   0.00000  Uiso   1.00
C149   C     0.93320   0.18570   0.01407   0.00000  Uiso   1.00
C150   C     0.87192   0.17680   0.09506   0.00000  Uiso   1.00
C151   C     0.74675   0.15493   0.43280   0.00000  Uiso   1.00
C152   C     0.73433   0.14875   0.48559   0.00000  Uiso   1.00
C153   C     0.76732   0.15737   0.01353   0.00000  Uiso   1.00
C154   C     0.82504   0.18146   0.43605   0.00000  Uiso   1.00
C155   C     0.84753   0.18230   0.01674   0.00000  Uiso   1.00
C156   C     0.89643   0.18855   0.48906   0.00000  Uiso   1.00
C157   C     0.90685   0.19956   0.43772   0.00000  Uiso   1.00
C158   C     0.86991   0.19953   0.41331   0.00000  Uiso   1.00
C159   C     0.83536   0.18589   0.07046   0.00000  Uiso   1.00
C160   C     0.92108   0.17665   0.06627   0.00000  Uiso   1.00
Cu161  Cu    0.78645   0.16666   0.25000   0.00000  Uiso   1.00
Cu162  Cu    0.88022   0.16667   0.25000   0.00000  Uiso   1.00
H163   H     0.95000   0.17187   0.08456   0.00000  Uiso   1.00
H164   H     0.69970   0.13557   0.00462   0.00000  Uiso   1.00
H165   H     0.87643   0.21367   0.37683   0.00000  Uiso   1.00
H166   H     0.90701   0.29487   0.25314   0.00000  Uiso   1.00
H167   H     0.77730   0.05920   0.18871   0.00000  Uiso   1.00
H168   H     0.68240   0.27345   0.22807   0.00000  Uiso   1.00
H169   H     0.95480   0.24468   0.32084   0.00000  Uiso   1.00
H170   H     0.71023   0.21378   0.14382   0.00000  Uiso   1.00
H171   H     0.90872   0.03566   0.25140   0.00000  Uiso   1.00
H172   H     0.69445   0.21151   0.30832   0.00000  Uiso   1.00
H173   H     0.72538   0.11836   0.19462   0.00000  Uiso   1.00
H174   H     0.97144   0.11709   0.19641   0.00000  Uiso   1.00
H175   H     0.94282   0.20950   0.41713   0.00000  Uiso   1.00
H176   H     0.97100   0.18926   0.49305   0.00000  Uiso   1.00
H177   H     0.72117   0.14603   0.41177   0.00000  Uiso   1.00
H178   H     0.75790   0.14895   0.05348   0.00000  Uiso   1.00
N179   N     0.71598   0.16666   0.24998   0.00000  Uiso   1.00
N180   N     0.95069   0.16669   0.24999   0.00000  Uiso   1.00
O181   O     0.79375   0.22678   0.25000   0.00000  Uiso   1.00
O182   O     0.72483   0.27532   0.32095   0.00000  Uiso   1.00
O183   O     0.69349   0.33325   0.28318   0.00000  Uiso   1.00
O184   O     0.71671   0.26697   0.22688   0.00000  Uiso   1.00
O185   O     0.93682   0.22629   0.30341   0.00000  Uiso   1.00
O186   O     0.80052   0.24759   0.13846   0.00000  Uiso   1.00
O187   O     0.77154   0.24549   0.06148   0.00000  Uiso   1.00
O188   O     0.73712   0.19318   0.13269   0.00000  Uiso   1.00
O189   O     0.87294   0.22679   0.25000   0.00000  Uiso   1.00
O190   O     0.77441   0.16665   0.32549   0.00000  Uiso   1.00
O191   O     0.85360   0.16666   0.32549   0.00000  Uiso   1.00
O192   O     0.79373   0.10654   0.24999   0.00000  Uiso   1.00
O193   O     0.87292   0.10655   0.24999   0.00000  Uiso   1.00
O194   O     0.81306   0.16667   0.17451   0.00000  Uiso   1.00
O195   O     0.89225   0.16668   0.17451   0.00000  Uiso   1.00
O196   O     0.76030   0.04112   0.21683   0.00000  Uiso   1.00
S197   S     0.72931   0.29767   0.27177   0.00000  Uiso   1.00
S198   S     0.78559   0.21973   0.10106   0.00000  Uiso   1.00
C199   C     0.16567   0.57953   0.25177   0.00000  Uiso   1.00
C200   C     0.12601   0.50313   0.40699   0.00000  Uiso   1.00
C201   C     0.20805   0.64486   0.25040   0.00000  Uiso   1.00
C202   C     0.14093   0.50184   0.34997   0.00000  Uiso   1.00
C203   C     0.20960   0.35388   0.24812   0.00000  Uiso   1.00
C204   C     0.16961   0.37625   0.24148   0.00000  Uiso   1.00
C205   C     0.12879   0.35552   0.23530   0.00000  Uiso   1.00
C206   C     0.12312   0.64810   0.24909   0.00000  Uiso   1.00
C207   C     0.16478   0.62460   0.25155   0.00000  Uiso   1.00
C208   C     0.30059   0.52805   0.27907   0.00000  Uiso   1.00
C209   C     0.01615   0.52563   0.28175   0.00000  Uiso   1.00
C210   C     0.14593   0.50788   0.48954   0.00000  Uiso   1.00
C211   C     0.03319   0.47288   0.21968   0.00000  Uiso   1.00
C212   C     0.31677   0.47239   0.22036   0.00000  Uiso   1.00
C213   C     0.16802   0.42083   0.24623   0.00000  Uiso   1.00
C214   C     0.19203   0.50297   0.15060   0.00000  Uiso   1.00
C215   C     0.26653   0.51903   0.01407   0.00000  Uiso   1.00
C216   C     0.20526   0.51013   0.09506   0.00000  Uiso   1.00
C217   C     0.08008   0.48826   0.43280   0.00000  Uiso   1.00
C218   C     0.06767   0.48208   0.48559   0.00000  Uiso   1.00
C219   C     0.10065   0.49070   0.01353   0.00000  Uiso   1.00
C220   C     0.15837   0.51479   0.43605   0.00000  Uiso   1.00
C221   C     0.18086   0.51563   0.01674   0.00000  Uiso   1.00
C222   C     0.22976   0.52188   0.48906   0.00000  Uiso   1.00
C223   C     0.24018   0.53289   0.43772   0.00000  Uiso   1.00
C224   C     0.20324   0.53286   0.41331   0.00000  Uiso   1.00
C225   C     0.16869   0.51922   0.07046   0.00000  Uiso   1.00
C226   C     0.25442   0.50999   0.06627   0.00000  Uiso   1.00
Cu227  Cu    0.11978   0.49999   0.25000   0.00000  Uiso   1.00
Cu228  Cu    0.21355   0.50001   0.25000   0.00000  Uiso   1.00
H229   H     0.28334   0.50521   0.08456   0.00000  Uiso   1.00
H230   H     0.03304   0.46890   0.00462   0.00000  Uiso   1.00
H231   H     0.20976   0.54701   0.37683   0.00000  Uiso   1.00
H232   H     0.24035   0.62820   0.25314   0.00000  Uiso   1.00
H233   H     0.11063   0.39253   0.18871   0.00000  Uiso   1.00
H234   H     0.01573   0.60679   0.22807   0.00000  Uiso   1.00
H235   H     0.28813   0.57801   0.32084   0.00000  Uiso   1.00
H236   H     0.04357   0.54711   0.14382   0.00000  Uiso   1.00
H237   H     0.24206   0.36899   0.25140   0.00000  Uiso   1.00
H238   H     0.02778   0.54485   0.30832   0.00000  Uiso   1.00
H239   H     0.05871   0.45169   0.19462   0.00000  Uiso   1.00
H240   H     0.30477   0.45043   0.19641   0.00000  Uiso   1.00
H241   H     0.27615   0.54283   0.41713   0.00000  Uiso   1.00
H242   H     0.30434   0.52260   0.49305   0.00000  Uiso   1.00
H243   H     0.05450   0.47936   0.41177   0.00000  Uiso   1.00
H244   H     0.09123   0.48228   0.05348   0.00000  Uiso   1.00
N245   N     0.04931   0.49999   0.24998   0.00000  Uiso   1.00
N246   N     0.28402   0.50002   0.24999   0.00000  Uiso   1.00
O247   O     0.12708   0.56011   0.25000   0.00000  Uiso   1.00
O248   O     0.05817   0.60865   0.32095   0.00000  Uiso   1.00
O249   O     0.02683   0.66658   0.28318   0.00000  Uiso   1.00
O250   O     0.05004   0.60031   0.22688   0.00000  Uiso   1.00
O251   O     0.27015   0.55962   0.30341   0.00000  Uiso   1.00
O252   O     0.13385   0.58092   0.13846   0.00000  Uiso   1.00
O253   O     0.10487   0.57882   0.06148   0.00000  Uiso   1.00
O254   O     0.07045   0.52651   0.13269   0.00000  Uiso   1.00
O255   O     0.20627   0.56012   0.25000   0.00000  Uiso   1.00
O256   O     0.10775   0.49998   0.32549   0.00000  Uiso   1.00
O257   O     0.18694   0.49999   0.32549   0.00000  Uiso   1.00
O258   O     0.12706   0.43988   0.24999   0.00000  Uiso   1.00
O259   O     0.20625   0.43989   0.24999   0.00000  Uiso   1.00
O260   O     0.14640   0.50001   0.17451   0.00000  Uiso   1.00
O261   O     0.22559   0.50002   0.17451   0.00000  Uiso   1.00
O262   O     0.09363   0.37445   0.21683   0.00000  Uiso   1.00
S263   S     0.06264   0.63101   0.27177   0.00000  Uiso   1.00
S264   S     0.11892   0.55306   0.10106   0.00000  Uiso   1.00
C265   C     0.49900   0.57953   0.25177   0.00000  Uiso   1.00
C266   C     0.45934   0.50313   0.40699   0.00000  Uiso   1.00
C267   C     0.54138   0.64486   0.25040   0.00000  Uiso   1.00
C268   C     0.47426   0.50184   0.34997   0.00000  Uiso   1.00
C269   C     0.54293   0.35388   0.24812   0.00000  Uiso   1.00
C270   C     0.50295   0.37625   0.24148   0.00000  Uiso   1.00
C271   C     0.46213   0.35552   0.23530   0.00000  Uiso   1.00
C272   C     0.45645   0.64810   0.24909   0.00000  Uiso   1.00
C273   C     0.49811   0.62460   0.25155   0.00000  Uiso   1.00
C274   C     0.63393   0.52805   0.27907   0.00000  Uiso   1.00
C275   C     0.34948   0.52563   0.28175   0.00000  Uiso   1.00
C276   C     0.47926   0.50788   0.48954   0.00000  Uiso   1.00
C277   C     0.36652   0.47288   0.21968   0.00000  Uiso   1.00
C278   C     0.65010   0.47239   0.22036   0.00000  Uiso   1.00
C279   C     0.50135   0.42083   0.24623   0.00000  Uiso   1.00
C280   C     0.52537   0.50297   0.15060   0.00000  Uiso   1.00
C281   C     0.59986   0.51903   0.01407   0.00000  Uiso   1.00
C282   C     0.53859   0.51013   0.09506   0.00000  Uiso   1.00
C283   C     0.41341   0.48826   0.43280   0.00000  Uiso   1.00
C284   C     0.40100   0.48208   0.48559   0.00000  Uiso   1.00
C285   C     0.43398   0.49070   0.01353   0.00000  Uiso   1.00
C286   C     0.49170   0.51479   0.43605   0.00000  Uiso   1.00
C287   C     0.51420   0.51563   0.01674   0.00000  Uiso   1.00
C288   C     0.56310   0.52188   0.48906   0.00000  Uiso   1.00
C289   C     0.57352   0.53289   0.43772   0.00000  Uiso   1.00
C290   C     0.53657   0.53286   0.41331   0.00000  Uiso   1.00
C291   C     0.50202   0.51922   0.07046   0.00000  Uiso   1.00
C292   C     0.58775   0.50999   0.06627   0.00000  Uiso   1.00
Cu293  Cu    0.45311   0.49999   0.25000   0.00000  Uiso   1.00
Cu294  Cu    0.54689   0.50001   0.25000   0.00000  Uiso   1.00
H295   H     0.61667   0.50521   0.08456   0.00000  Uiso   1.00
H296   H     0.36637   0.46890   0.00462   0.00000  Uiso   1.00
H297   H     0.54309   0.54701   0.37683   0.00000  Uiso   1.00
H298   H     0.57368   0.62820   0.25314   0.00000  Uiso   1.00
H299   H     0.44397   0.39253   0.18871   0.00000  Uiso   1.00
H300   H     0.34907   0.60679   0.22807   0.00000  Uiso   1.00
H301   H     0.62147   0.57801   0.32084   0.00000  Uiso   1.00
H302   H     0.37690   0.54711   0.14382   0.00000  Uiso   1.00
H303   H     0.57539   0.36899   0.25140   0.00000  Uiso   1.00
H304   H     0.36111   0.54485   0.30832   0.00000  Uiso   1.00
H305   H     0.39205   0.45169   0.19462   0.00000  Uiso   1.00
H306   H     0.63810   0.45043   0.19641   0.00000  Uiso   1.00
H307   H     0.60949   0.54283   0.41713   0.00000  Uiso   1.00
H308   H     0.63767   0.52260   0.49305   0.00000  Uiso   1.00
H309   H     0.38784   0.47936   0.41177   0.00000  Uiso   1.00
H310   H     0.42457   0.48228   0.05348   0.00000  Uiso   1.00
N311   N     0.38265   0.49999   0.24998   0.00000  Uiso   1.00
N312   N     0.61735   0.50002   0.24999   0.00000  Uiso   1.00
O313   O     0.46042   0.56011   0.25000   0.00000  Uiso   1.00
O314   O     0.39150   0.60865   0.32095   0.00000  Uiso   1.00
O315   O     0.36016   0.66658   0.28318   0.00000  Uiso   1.00
O316   O     0.38338   0.60031   0.22688   0.00000  Uiso   1.00
O317   O     0.60348   0.55962   0.30341   0.00000  Uiso   1.00
O318   O     0.46718   0.58092   0.13846   0.00000  Uiso   1.00
O319   O     0.43821   0.57882   0.06148   0.00000  Uiso   1.00
O320   O     0.40378   0.52651   0.13269   0.00000  Uiso   1.00
O321   O     0.53961   0.56012   0.25000   0.00000  Uiso   1.00
O322   O     0.44108   0.49998   0.32549   0.00000  Uiso   1.00
O323   O     0.52027   0.49999   0.32549   0.00000  Uiso   1.00
O324   O     0.46039   0.43988   0.24999   0.00000  Uiso   1.00
O325   O     0.53958   0.43989   0.24999   0.00000  Uiso   1.00
O326   O     0.47973   0.50001   0.17451   0.00000  Uiso   1.00
O327   O     0.55892   0.50002   0.17451   0.00000  Uiso   1.00
O328   O     0.42696   0.37445   0.21683   0.00000  Uiso   1.00
S329   S     0.39598   0.63101   0.27177   0.00000  Uiso   1.00
S330   S     0.45226   0.55306   0.10106   0.00000  Uiso   1.00
C331   C     0.83233   0.57953   0.25177   0.00000  Uiso   1.00
C332   C     0.79268   0.50313   0.40699   0.00000  Uiso   1.00
C333   C     0.87471   0.64486   0.25040   0.00000  Uiso   1.00
C334   C     0.80759   0.50184   0.34997   0.00000  Uiso   1.00
C335   C     0.87627   0.35388   0.24812   0.00000  Uiso   1.00
C336   C     0.83628   0.37625   0.24148   0.00000  Uiso   1.00
C337   C     0.79546   0.35552   0.23530   0.00000  Uiso   1.00
C338   C     0.78978   0.64810   0.24909   0.00000  Uiso   1.00
C339   C     0.83145   0.62460   0.25155   0.00000  Uiso   1.00
C340   C     0.96726   0.52805   0.27907   0.00000  Uiso   1.00
C341   C     0.68281   0.52563   0.28175   0.00000  Uiso   1.00
C342   C     0.81259   0.50788   0.48954   0.00000  Uiso   1.00
C343   C     0.69985   0.47288   0.21968   0.00000  Uiso   1.00
C344   C     0.98343   0.47239   0.22036   0.00000  Uiso   1.00
C345   C     0.83468   0.42083   0.24623   0.00000  Uiso   1.00
C346   C     0.85870   0.50297   0.15060   0.00000  Uiso   1.00
C347   C     0.93320   0.51903   0.01407   0.00000  Uiso   1.00
C348   C     0.87192   0.51013   0.09506   0.00000  Uiso   1.00
C349   C     0.74675   0.48826   0.43280   0.00000  Uiso   1.00
C350   C     0.73433   0.48208   0.48559   0.00000  Uiso   1.00
C351   C     0.76732   0.49070   0.01353   0.00000  Uiso   1.00
C352   C     0.82504   0.51479   0.43605   0.00000  Uiso   1.00
C353   C     0.84753   0.51563   0.01674   0.00000  Uiso   1.00
C354   C     0.89643   0.52188   0.48906   0.00000  Uiso   1.00
C355   C     0.90685   0.53289   0.43772   0.00000  Uiso   1.00
C356   C     0.86991   0.53286   0.41331   0.00000  Uiso   1.00
C357   C     0.83536   0.51922   0.07046   0.00000  Uiso   1.00
C358   C     0.92108   0.50999   0.06627   0.00000  Uiso   1.00
Cu359  Cu    0.78645   0.49999   0.25000   0.00000  Uiso   1.00
Cu360  Cu    0.88022   0.50001   0.25000   0.00000  Uiso   1.00
H361   H     0.95000   0.50521   0.08456   0.00000  Uiso   1.00
H362   H     0.69970   0.46890   0.00462   0.00000  Uiso   1.00
H363   H     0.87643   0.54701   0.37683   0.00000  Uiso   1.00
H364   H     0.90701   0.62820   0.25314   0.00000  Uiso   1.00
H365   H     0.77730   0.39253   0.18871   0.00000  Uiso   1.00
H366   H     0.68240   0.60679   0.22807   0.00000  Uiso   1.00
H367   H     0.95480   0.57801   0.32084   0.00000  Uiso   1.00
H368   H     0.71023   0.54711   0.14382   0.00000  Uiso   1.00
H369   H     0.90872   0.36899   0.25140   0.00000  Uiso   1.00
H370   H     0.69445   0.54485   0.30832   0.00000  Uiso   1.00
H371   H     0.72538   0.45169   0.19462   0.00000  Uiso   1.00
H372   H     0.97144   0.45043   0.19641   0.00000  Uiso   1.00
H373   H     0.94282   0.54283   0.41713   0.00000  Uiso   1.00
H374   H     0.97100   0.52260   0.49305   0.00000  Uiso   1.00
H375   H     0.72117   0.47936   0.41177   0.00000  Uiso   1.00
H376   H     0.75790   0.48228   0.05348   0.00000  Uiso   1.00
N377   N     0.71598   0.49999   0.24998   0.00000  Uiso   1.00
N378   N     0.95069   0.50002   0.24999   0.00000  Uiso   1.00
O379   O     0.79375   0.56011   0.25000   0.00000  Uiso   1.00
O380   O     0.72483   0.60865   0.32095   0.00000  Uiso   1.00
O381   O     0.69349   0.66658   0.28318   0.00000  Uiso   1.00
O382   O     0.71671   0.60031   0.22688   0.00000  Uiso   1.00
O383   O     0.93682   0.55962   0.30341   0.00000  Uiso   1.00
O384   O     0.80052   0.58092   0.13846   0.00000  Uiso   1.00
O385   O     0.77154   0.57882   0.06148   0.00000  Uiso   1.00
O386   O     0.73712   0.52651   0.13269   0.00000  Uiso   1.00
O387   O     0.87294   0.56012   0.25000   0.00000  Uiso   1.00
O388   O     0.77441   0.49998   0.32549   0.00000  Uiso   1.00
O389   O     0.85360   0.49999   0.32549   0.00000  Uiso   1.00
O390   O     0.79373   0.43988   0.24999   0.00000  Uiso   1.00
O391   O     0.87292   0.43989   0.24999   0.00000  Uiso   1.00
O392   O     0.81306   0.50001   0.17451   0.00000  Uiso   1.00
O393   O     0.89225   0.50002   0.17451   0.00000  Uiso   1.00
O394   O     0.76030   0.37445   0.21683   0.00000  Uiso   1.00
S395   S     0.72931   0.63101   0.27177   0.00000  Uiso   1.00
S396   S     0.78559   0.55306   0.10106   0.00000  Uiso   1.00
C397   C     0.16567   0.91287   0.25177   0.00000  Uiso   1.00
C398   C     0.12601   0.83647   0.40699   0.00000  Uiso   1.00
C399   C     0.20805   0.97820   0.25040   0.00000  Uiso   1.00
C400   C     0.14093   0.83517   0.34997   0.00000  Uiso   1.00
C401   C     0.20960   0.68721   0.24812   0.00000  Uiso   1.00
C402   C     0.16961   0.70958   0.24148   0.00000  Uiso   1.00
C403   C     0.12879   0.68885   0.23530   0.00000  Uiso   1.00
C404   C     0.12312   0.98143   0.24909   0.00000  Uiso   1.00
C405   C     0.16478   0.95794   0.25155   0.00000  Uiso   1.00
C406   C     0.30059   0.86138   0.27907   0.00000  Uiso   1.00
C407   C     0.01615   0.85896   0.28175   0.00000  Uiso   1.00
C408   C     0.14593   0.84122   0.48954   0.00000  Uiso   1.00
C409   C     0.03319   0.80621   0.21968   0.00000  Uiso   1.00
C410   C     0.31677   0.80572   0.22036   0.00000  Uiso   1.00
C411   C     0.16802   0.75416   0.24623   0.00000  Uiso   1.00
C412   C     0.19203   0.83630   0.15060   0.00000  Uiso   1.00
C413   C     0.26653   0.85237   0.01407   0.00000  Uiso   1.00
C414   C     0.20526   0.84347   0.09506   0.00000  Uiso   1.00
C415   C     0.08008   0.82159   0.43280   0.00000  Uiso   1.00
C416   C     0.06767   0.81541   0.48559   0.00000  Uiso   1.00
C417   C     0.10065   0.82403   0.01353   0.00000  Uiso   1.00
C418   C     0.15837   0.84812   0.43605   0.00000  Uiso   1.00
C419   C     0.18086   0.84896   0.01674   0.00000  Uiso   1.00
C420   C     0.22976   0.85522   0.48906   0.00000  Uiso   1.00
C421   C     0.24018   0.86623   0.43772   0.00000  Uiso   1.00
C422   C     0.20324   0.86619   0.41331   0.00000  Uiso   1.00
C423   C     0.16869   0.85256   0.07046   0.00000  Uiso   1.00
C424   C     0.25442   0.84332   0.06627   0.00000  Uiso   1.00
Cu425  Cu    0.11978   0.83333   0.25000   0.00000  Uiso   1.00
Cu426  Cu    0.21355   0.83334   0.25000   0.00000  Uiso   1.00
H427   H     0.28334   0.83854   0.08456   0.00000  Uiso   1.00
H428   H     0.03304   0.80223   0.00462   0.00000  Uiso   1.00
H429   H     0.20976   0.88034   0.37683   0.00000  Uiso   1.00
H430   H     0.24035   0.96154   0.25314   0.00000  Uiso   1.00
H431   H     0.11063   0.72586   0.18871   0.00000  Uiso   1.00
H432   H     0.01573   0.94012   0.22807   0.00000  Uiso   1.00
H433   H     0.28813   0.91134   0.32084   0.00000  Uiso   1.00
H434   H     0.04357   0.88044   0.14382   0.00000  Uiso   1.00
H435   H     0.24206   0.70233   0.25140   0.00000  Uiso   1.00
H436   H     0.02778   0.87818   0.30832   0.00000  Uiso   1.00
H437   H     0.05871   0.78502   0.19462   0.00000  Uiso   1.00
H438   H     0.30477   0.78376   0.19641   0.00000  Uiso   1.00
H439   H     0.27615   0.87616   0.41713   0.00000  Uiso   1.00
H440   H     0.30434   0.85593   0.49305   0.00000  Uiso   1.00
H441   H     0.05450   0.81270   0.41177   0.00000  Uiso   1.00
H442   H     0.09123   0.81561   0.05348   0.00000  Uiso   1.00
N443   N     0.04931   0.83332   0.24998   0.00000  Uiso   1.00
N444   N     0.28402   0.83335   0.24999   0.00000  Uiso   1.00
O445   O     0.12708   0.89345   0.25000   0.00000  Uiso   1.00
O446   O     0.05817   0.94199   0.32095   0.00000  Uiso   1.00
O447   O     0.02683   0.99992   0.28318   0.00000  Uiso   1.00
O448   O     0.05004   0.93364   0.22688   0.00000  Uiso   1.00
O449   O     0.27015   0.89295   0.30341   0.00000  Uiso   1.00
O450   O     0.13385   0.91426   0.13846   0.00000  Uiso   1.00
O451   O     0.10487   0.91216   0.06148   0.00000  Uiso   1.00
O452   O     0.07045   0.85984   0.13269   0.00000  Uiso   1.00
O453   O     0.20627   0.89346   0.25000   0.00000  Uiso   1.00
O454   O     0.10775   0.83332   0.32549   0.00000  Uiso   1.00
O455   O     0.18694   0.83333   0.32549   0.00000  Uiso   1.00
O456   O     0.12706   0.77321   0.24999   0.00000  Uiso   1.00
O457   O     0.20625   0.77322   0.24999   0.00000  Uiso   1.00
O458   O     0.14640   0.83334   0.17451   0.00000  Uiso   1.00
O459   O     0.22559   0.83335   0.17451   0.00000  Uiso   1.00
O460   O     0.09363   0.70778   0.21683   0.00000  Uiso   1.00
S461   S     0.06264   0.96434   0.27177   0.00000  Uiso   1.00
S462   S     0.11892   0.88639   0.10106   0.00000  Uiso   1.00
C463   C     0.49900   0.91287   0.25177   0.00000  Uiso   1.00
C464   C     0.45934   0.83647   0.40699   0.00000  Uiso   1.00
C465   C     0.54138   0.97820   0.25040   0.00000  Uiso   1.00
C466   C     0.47426   0.83517   0.34997   0.00000  Uiso   1.00
C467   C     0.54293   0.68721   0.24812   0.00000  Uiso   1.00
C468   C     0.50295   0.70958   0.24148   0.00000  Uiso   1.00
C469   C     0.46213   0.68885   0.23530   0.00000  Uiso   1.00
C470   C     0.45645   0.98143   0.24909   0.00000  Uiso   1.00
C471   C     0.49811   0.95794   0.25155   0.00000  Uiso   1.00
C472   C     0.63393   0.86138   0.27907   0.00000  Uiso   1.00
C473   C     0.34948   0.85896   0.28175   0.00000  Uiso   1.00
C474   C     0.47926   0.84122   0.48954   0.00000  Uiso   1.00
C475   C     0.36652   0.80621   0.21968   0.00000  Uiso   1.00
C476   C     0.65010   0.80572   0.22036   0.00000  Uiso   1.00
C477   C     0.50135   0.75416   0.24623   0.00000  Uiso   1.00
C478   C     0.52537   0.83630   0.15060   0.00000  Uiso   1.00
C479   C     0.59986   0.85237   0.01407   0.00000  Uiso   1.00
C480   C     0.53859   0.84347   0.09506   0.00000  Uiso   1.00
C481   C     0.41341   0.82159   0.43280   0.00000  Uiso   1.00
C482   C     0.40100   0.81541   0.48559   0.00000  Uiso   1.00
C483   C     0.43398   0.82403   0.01353   0.00000  Uiso   1.00
C484   C     0.49170   0.84812   0.43605   0.00000  Uiso   1.00
C485   C     0.51420   0.84896   0.01674   0.00000  Uiso   1.00
C486   C     0.56310   0.85522   0.48906   0.00000  Uiso   1.00
C487   C     0.57352   0.86623   0.43772   0.00000  Uiso   1.00
C488   C     0.53657   0.86619   0.41331   0.00000  Uiso   1.00
C489   C     0.50202   0.85256   0.07046   0.00000  Uiso   1.00
C490   C     0.58775   0.84332   0.06627   0.00000  Uiso   1.00
Cu491  Cu    0.45311   0.83333   0.25000   0.00000  Uiso   1.00
Cu492  Cu    0.54689   0.83334   0.25000   0.00000  Uiso   1.00
H493   H     0.61667   0.83854   0.08456   0.00000  Uiso   1.00
H494   H     0.36637   0.80223   0.00462   0.00000  Uiso   1.00
H495   H     0.54309   0.88034   0.37683   0.00000  Uiso   1.00
H496   H     0.57368   0.96154   0.25314   0.00000  Uiso   1.00
H497   H     0.44397   0.72586   0.18871   0.00000  Uiso   1.00
H498   H     0.34907   0.94012   0.22807   0.00000  Uiso   1.00
H499   H     0.62147   0.91134   0.32084   0.00000  Uiso   1.00
H500   H     0.37690   0.88044   0.14382   0.00000  Uiso   1.00
H501   H     0.57539   0.70233   0.25140   0.00000  Uiso   1.00
H502   H     0.36111   0.87818   0.30832   0.00000  Uiso   1.00
H503   H     0.39205   0.78502   0.19462   0.00000  Uiso   1.00
H504   H     0.63810   0.78376   0.19641   0.00000  Uiso   1.00
H505   H     0.60949   0.87616   0.41713   0.00000  Uiso   1.00
H506   H     0.63767   0.85593   0.49305   0.00000  Uiso   1.00
H507   H     0.38784   0.81270   0.41177   0.00000  Uiso   1.00
H508   H     0.42457   0.81561   0.05348   0.00000  Uiso   1.00
N509   N     0.38265   0.83332   0.24998   0.00000  Uiso   1.00
N510   N     0.61735   0.83335   0.24999   0.00000  Uiso   1.00
O511   O     0.46042   0.89345   0.25000   0.00000  Uiso   1.00
O512   O     0.39150   0.94199   0.32095   0.00000  Uiso   1.00
O513   O     0.36016   0.99992   0.28318   0.00000  Uiso   1.00
O514   O     0.38338   0.93364   0.22688   0.00000  Uiso   1.00
O515   O     0.60348   0.89295   0.30341   0.00000  Uiso   1.00
O516   O     0.46718   0.91426   0.13846   0.00000  Uiso   1.00
O517   O     0.43821   0.91216   0.06148   0.00000  Uiso   1.00
O518   O     0.40378   0.85984   0.13269   0.00000  Uiso   1.00
O519   O     0.53961   0.89346   0.25000   0.00000  Uiso   1.00
O520   O     0.44108   0.83332   0.32549   0.00000  Uiso   1.00
O521   O     0.52027   0.83333   0.32549   0.00000  Uiso   1.00
O522   O     0.46039   0.77321   0.24999   0.00000  Uiso   1.00
O523   O     0.53958   0.77322   0.24999   0.00000  Uiso   1.00
O524   O     0.47973   0.83334   0.17451   0.00000  Uiso   1.00
O525   O     0.55892   0.83335   0.17451   0.00000  Uiso   1.00
O526   O     0.42696   0.70778   0.21683   0.00000  Uiso   1.00
S527   S     0.39598   0.96434   0.27177   0.00000  Uiso   1.00
S528   S     0.45226   0.88639   0.10106   0.00000  Uiso   1.00
C529   C     0.83233   0.91287   0.25177   0.00000  Uiso   1.00
C530   C     0.79268   0.83647   0.40699   0.00000  Uiso   1.00
C531   C     0.87471   0.97820   0.25040   0.00000  Uiso   1.00
C532   C     0.80759   0.83517   0.34997   0.00000  Uiso   1.00
C533   C     0.87627   0.68721   0.24812   0.00000  Uiso   1.00
C534   C     0.83628   0.70958   0.24148   0.00000  Uiso   1.00
C535   C     0.79546   0.68885   0.23530   0.00000  Uiso   1.00
C536   C     0.78978   0.98143   0.24909   0.00000  Uiso   1.00
C537   C     0.83145   0.95794   0.25155   0.00000  Uiso   1.00
C538   C     0.96726   0.86138   0.27907   0.00000  Uiso   1.00
C539   C     0.68281   0.85896   0.28175   0.00000  Uiso   1.00
C540   C     0.81259   0.84122   0.48954   0.00000  Uiso   1.00
C541   C     0.69985   0.80621   0.21968   0.00000  Uiso   1.00
C542   C     0.98343   0.80572   0.22036   0.00000  Uiso   1.00
C543   C     0.83468   0.75416   0.24623   0.00000  Uiso   1.00
C544   C     0.85870   0.83630   0.15060   0.00000  Uiso   1.00
C545   C     0.93320   0.85237   0.01407   0.00000  Uiso   1.00
C546   C     0.87192   0.84347   0.09506   0.00000  Uiso   1.00
C547   C     0.74675   0.82159   0.43280   0.00000  Uiso   1.00
C548   C     0.73433   0.81541   0.48559   0.00000  Uiso   1.00
C549   C     0.76732   0.82403   0.01353   0.00000  Uiso   1.00
C550   C     0.82504   0.84812   0.43605   0.00000  Uiso   1.00
C551   C     0.84753   0.84896   0.01674   0.00000  Uiso   1.00
C552   C     0.89643   0.85522   0.48906   0.00000  Uiso   1.00
C553   C     0.90685   0.86623   0.43772   0.00000  Uiso   1.00
C554   C     0.86991   0.86619   0.41331   0.00000  Uiso   1.00
C555   C     0.83536   0.85256   0.07046   0.00000  Uiso   1.00
C556   C     0.92108   0.84332   0.06627   0.00000  Uiso   1.00
Cu557  Cu    0.78645   0.83333   0.25000   0.00000  Uiso   1.00
Cu558  Cu    0.88022   0.83334   0.25000   0.00000  Uiso   1.00
H559   H     0.95000   0.83854   0.08456   0.00000  Uiso   1.00
H560   H     0.69970   0.80223   0.00462   0.00000  Uiso   1.00
H561   H     0.87643   0.88034   0.37683   0.00000  Uiso   1.00
H562   H     0.90701   0.96154   0.25314   0.00000  Uiso   1.00
H563   H     0.77730   0.72586   0.18871   0.00000  Uiso   1.00
H564   H     0.68240   0.94012   0.22807   0.00000  Uiso   1.00
H565   H     0.95480   0.91134   0.32084   0.00000  Uiso   1.00
H566   H     0.71023   0.88044   0.14382   0.00000  Uiso   1.00
H567   H     0.90872   0.70233   0.25140   0.00000  Uiso   1.00
H568   H     0.69445   0.87818   0.30832   0.00000  Uiso   1.00
H569   H     0.72538   0.78502   0.19462   0.00000  Uiso   1.00
H570   H     0.97144   0.78376   0.19641   0.00000  Uiso   1.00
H571   H     0.94282   0.87616   0.41713   0.00000  Uiso   1.00
H572   H     0.97100   0.85593   0.49305   0.00000  Uiso   1.00
H573   H     0.72117   0.81270   0.41177   0.00000  Uiso   1.00
H574   H     0.75790   0.81561   0.05348   0.00000  Uiso   1.00
N575   N     0.71598   0.83332   0.24998   0.00000  Uiso   1.00
N576   N     0.95069   0.83335   0.24999   0.00000  Uiso   1.00
O577   O     0.79375   0.89345   0.25000   0.00000  Uiso   1.00
O578   O     0.72483   0.94199   0.32095   0.00000  Uiso   1.00
O579   O     0.69349   0.99992   0.28318   0.00000  Uiso   1.00
O580   O     0.71671   0.93364   0.22688   0.00000  Uiso   1.00
O581   O     0.93682   0.89295   0.30341   0.00000  Uiso   1.00
O582   O     0.80052   0.91426   0.13846   0.00000  Uiso   1.00
O583   O     0.77154   0.91216   0.06148   0.00000  Uiso   1.00
O584   O     0.73712   0.85984   0.13269   0.00000  Uiso   1.00
O585   O     0.87294   0.89346   0.25000   0.00000  Uiso   1.00
O586   O     0.77441   0.83332   0.32549   0.00000  Uiso   1.00
O587   O     0.85360   0.83333   0.32549   0.00000  Uiso   1.00
O588   O     0.79373   0.77321   0.24999   0.00000  Uiso   1.00
O589   O     0.87292   0.77322   0.24999   0.00000  Uiso   1.00
O590   O     0.81306   0.83334   0.17451   0.00000  Uiso   1.00
O591   O     0.89225   0.83335   0.17451   0.00000  Uiso   1.00
O592   O     0.76030   0.70778   0.21683   0.00000  Uiso   1.00
S593   S     0.72931   0.96434   0.27177   0.00000  Uiso   1.00
S594   S     0.78559   0.88639   0.10106   0.00000  Uiso   1.00
C595   C     0.16567   0.24620   0.75177   0.00000  Uiso   1.00
C596   C     0.12601   0.16980   0.90699   0.00000  Uiso   1.00
C597   C     0.20805   0.31153   0.75040   0.00000  Uiso   1.00
C598   C     0.14093   0.16851   0.84997   0.00000  Uiso   1.00
C599   C     0.20960   0.02054   0.74812   0.00000  Uiso   1.00
C600   C     0.16961   0.04291   0.74148   0.00000  Uiso   1.00
C601   C     0.12879   0.02218   0.73530   0.00000  Uiso   1.00
C602   C     0.12312   0.31476   0.74909   0.00000  Uiso   1.00
C603   C     0.16478   0.29127   0.75155   0.00000  Uiso   1.00
C604   C     0.30059   0.19471   0.77907   0.00000  Uiso   1.00
C605   C     0.01615   0.19229   0.78175   0.00000  Uiso   1.00
C606   C     0.14593   0.17455   0.98954   0.00000  Uiso   1.00
C607   C     0.03319   0.13954   0.71968   0.00000  Uiso   1.00
C608   C     0.31677   0.13906   0.72036   0.00000  Uiso   1.00
C609   C     0.16802   0.08749   0.74623   0.00000  Uiso   1.00
C610   C     0.19203   0.16964   0.65060   0.00000  Uiso   1.00
C611   C     0.26653   0.18570   0.51407   0.00000  Uiso   1.00
C612   C     0.20526   0.17680   0.59506   0.00000  Uiso   1.00
C613   C     0.08008   0.15493   0.93280   0.00000  Uiso   1.00
C614   C     0.06767   0.14875   0.98559   0.00000  Uiso   1.00
C615   C     0.10065   0.15737   0.51353   0.00000  Uiso   1.00
C616   C     0.15837   0.18146   0.93605   0.00000  Uiso   1.00
C617   C     0.18086   0.18230   0.51674   0.00000  Uiso   1.00
C618   C     0.22976   0.18855   0.98906   0.00000  Uiso   1.00
C619   C     0.24018   0.19956   0.93772   0.00000  Uiso   1.00
C620   C     0.20324   0.19953   0.91331   0.00000  Uiso   1.00
C621   C     0.16869   0.18589   0.57046   0.00000  Uiso   1.00
C622   C     0.25442   0.17665   0.56627   0.00000  Uiso   1.00
Cu623  Cu    0.11978   0.16666   0.75000   0.00000  Uiso   1.00
Cu624  Cu    0.21355   0.16667   0.75000   0.00000  Uiso   1.00
H625   H     0.28334   0.17187   0.58456   0.00000  Uiso   1.00
H626   H     0.03304   0.13557   0.50462   0.00000  Uiso   1.00
H627   H     0.20976   0.21367   0.87683   0.00000  Uiso   1.00
H628   H     0.24035   0.29487   0.75314   0.00000  Uiso   1.00
H629   H     0.11063   0.05920   0.68871   0.00000  Uiso   1.00
H630   H     0.01573   0.27345   0.72807   0.00000  Uiso   1.00
H631   H     0.28813   0.24468   0.82084   0.00000  Uiso   1.00
H632   H     0.04357   0.21378   0.64382   0.00000  Uiso   1.00
H633   H     0.24206   0.03566   0.75140   0.00000  Uiso   1.00
H634   H     0.02778   0.21151   0.80832   0.00000  Uiso   1.00
H635   H     0.05871   0.11836   0.69462   0.00000  Uiso   1.00
H636   H     0.30477   0.11709   0.69641   0.00000  Uiso   1.00
H637   H     0.27615   0.20950   0.91713   0.00000  Uiso   1.00
H638   H     0.30434   0.18926   0.99305   0.00000  Uiso   1.00
H639   H     0.05450   0.14603   0.91177   0.00000  Uiso   1.00
H640   H     0.09123   0.14895   0.55348   0.00000  Uiso   1.00
N641   N     0.04931   0.16666   0.74998   0.00000  Uiso   1.00
N642   N     0.28402   0.16669   0.74999   0.00000  Uiso   1.00
O643   O     0.12708   0.22678   0.75000   0.00000  Uiso   1.00
O644   O     0.05817   0.27532   0.82095   0.00000  Uiso   1.00
O645   O     0.02683   0.33325   0.78318   0.00000  Uiso   1.00
O646   O     0.05004   0.26697   0.72688   0.00000  Uiso   1.00
O647   O     0.27015   0.22629   0.80341   0.00000  Uiso   1.00
O648   O     0.13385   0.24759   0.63846   0.00000  Uiso   1.00
O649   O     0.10487   0.24549   0.56148   0.00000  Uiso   1.00
O650   O     0.07045   0.19318   0.63269   0.00000  Uiso   1.00
O651   O     0.20627   0.22679   0.75000   0.00000  Uiso   1.00
O652   O     0.10775   0.16665   0.82549   0.00000  Uiso   1.00
O653   O     0.18694   0.16666   0.82549   0.00000  Uiso   1.00
O654   O     0.12706   0.10654   0.74999   0.00000  Uiso   1.00
O655   O     0.20625   0.10655   0.74999   0.00000  Uiso   1.00
O656   O     0.14640   0.16667   0.67451   0.00000  Uiso   1.00
O657   O     0.22559   0.16668   0.67451   0.00000  Uiso   1.00
O658   O     0.09363   0.04112   0.71683   0.00000  Uiso   1.00
S659   S     0.06264   0.29767   0.77177   0.00000  Uiso   1.00
S660   S     0.11892   0.21973   0.60106   0.00000  Uiso   1.00
C661   C     0.49900   0.24620   0.75177   0.00000  Uiso   1.00
C662   C     0.45934   0.16980   0.90699   0.00000  Uiso   1.00
C663   C     0.54138   0.31153   0.75040   0.00000  Uiso   1.00
C664   C     0.47426   0.16851   0.84997   0.00000  Uiso   1.00
C665   C     0.54293   0.02054   0.74812   0.00000  Uiso   1.00
C666   C     0.50295   0.04291   0.74148   0.00000  Uiso   1.00
C667   C     0.46213   0.02218   0.73530   0.00000  Uiso   1.00
C668   C     0.45645   0.31476   0.74909   0.00000  Uiso   1.00
C669   C     0.49811   0.29127   0.75155   0.00000  Uiso   1.00
C670   C     0.63393   0.19471   0.77907   0.00000  Uiso   1.00
C671   C     0.34948   0.19229   0.78175   0.00000  Uiso   1.00
C672   C     0.47926   0.17455   0.98954   0.00000  Uiso   1.00
C673   C     0.36652   0.13954   0.71968   0.00000  Uiso   1.00
C674   C     0.65010   0.13906   0.72036   0.00000  Uiso   1.00
C675   C     0.50135   0.08749   0.74623   0.00000  Uiso   1.00
C676   C     0.52537   0.16964   0.65060   0.00000  Uiso   1.00
C677   C     0.59986   0.18570   0.51407   0.00000  Uiso   1.00
C678   C     0.53859   0.17680   0.59506   0.00000  Uiso   1.00
C679   C     0.41341   0.15493   0.93280   0.00000  Uiso   1.00
C680   C     0.40100   0.14875   0.98559   0.00000  Uiso   1.00
C681   C     0.43398   0.15737   0.51353   0.00000  Uiso   1.00
C682   C     0.49170   0.18146   0.93605   0.00000  Uiso   1.00
C683   C     0.51420   0.18230   0.51674   0.00000  Uiso   1.00
C684   C     0.56310   0.18855   0.98906   0.00000  Uiso   1.00
C685   C     0.57352   0.19956   0.93772   0.00000  Uiso   1.00
C686   C     0.53657   0.19953   0.91331   0.00000  Uiso   1.00
C687   C     0.50202   0.18589   0.57046   0.00000  Uiso   1.00
C688   C     0.58775   0.17665   0.56627   0.00000  Uiso   1.00
Cu689  Cu    0.45311   0.16666   0.75000   0.00000  Uiso   1.00
Cu690  Cu    0.54689   0.16667   0.75000   0.00000  Uiso   1.00
H691   H     0.61667   0.17187   0.58456   0.00000  Uiso   1.00
H692   H     0.36637   0.13557   0.50462   0.00000  Uiso   1.00
H693   H     0.54309   0.21367   0.87683   0.00000  Uiso   1.00
H694   H     0.57368   0.29487   0.75314   0.00000  Uiso   1.00
H695   H     0.44397   0.05920   0.68871   0.00000  Uiso   1.00
H696   H     0.34907   0.27345   0.72807   0.00000  Uiso   1.00
H697   H     0.62147   0.24468   0.82084   0.00000  Uiso   1.00
H698   H     0.37690   0.21378   0.64382   0.00000  Uiso   1.00
H699   H     0.57539   0.03566   0.75140   0.00000  Uiso   1.00
H700   H     0.36111   0.21151   0.80832   0.00000  Uiso   1.00
H701   H     0.39205   0.11836   0.69462   0.00000  Uiso   1.00
H702   H     0.63810   0.11709   0.69641   0.00000  Uiso   1.00
H703   H     0.60949   0.20950   0.91713   0.00000  Uiso   1.00
H704   H     0.63767   0.18926   0.99305   0.00000  Uiso   1.00
H705   H     0.38784   0.14603   0.91177   0.00000  Uiso   1.00
H706   H     0.42457   0.14895   0.55348   0.00000  Uiso   1.00
N707   N     0.38265   0.16666   0.74998   0.00000  Uiso   1.00
N708   N     0.61735   0.16669   0.74999   0.00000  Uiso   1.00
O709   O     0.46042   0.22678   0.75000   0.00000  Uiso   1.00
O710   O     0.39150   0.27532   0.82095   0.00000  Uiso   1.00
O711   O     0.36016   0.33325   0.78318   0.00000  Uiso   1.00
O712   O     0.38338   0.26697   0.72688   0.00000  Uiso   1.00
O713   O     0.60348   0.22629   0.80341   0.00000  Uiso   1.00
O714   O     0.46718   0.24759   0.63846   0.00000  Uiso   1.00
O715   O     0.43821   0.24549   0.56148   0.00000  Uiso   1.00
O716   O     0.40378   0.19318   0.63269   0.00000  Uiso   1.00
O717   O     0.53961   0.22679   0.75000   0.00000  Uiso   1.00
O718   O     0.44108   0.16665   0.82549   0.00000  Uiso   1.00
O719   O     0.52027   0.16666   0.82549   0.00000  Uiso   1.00
O720   O     0.46039   0.10654   0.74999   0.00000  Uiso   1.00
O721   O     0.53958   0.10655   0.74999   0.00000  Uiso   1.00
O722   O     0.47973   0.16667   0.67451   0.00000  Uiso   1.00
O723   O     0.55892   0.16668   0.67451   0.00000  Uiso   1.00
O724   O     0.42696   0.04112   0.71683   0.00000  Uiso   1.00
S725   S     0.39598   0.29767   0.77177   0.00000  Uiso   1.00
S726   S     0.45226   0.21973   0.60106   0.00000  Uiso   1.00
C727   C     0.83233   0.24620   0.75177   0.00000  Uiso   1.00
C728   C     0.79268   0.16980   0.90699   0.00000  Uiso   1.00
C729   C     0.87471   0.31153   0.75040   0.00000  Uiso   1.00
C730   C     0.80759   0.16851   0.84997   0.00000  Uiso   1.00
C731   C     0.87627   0.02054   0.74812   0.00000  Uiso   1.00
C732   C     0.83628   0.04291   0.74148   0.00000  Uiso   1.00
C733   C     0.79546   0.02218   0.73530   0.00000  Uiso   1.00
C734   C     0.78978   0.31476   0.74909   0.00000  Uiso   1.00
C735   C     0.83145   0.29127   0.75155   0.00000  Uiso   1.00
C736   C     0.96726   0.19471   0.77907   0.00000  Uiso   1.00
C737   C     0.68281   0.19229   0.78175   0.00000  Uiso   1.00
C738   C     0.81259   0.17455   0.98954   0.00000  Uiso   1.00
C739   C     0.69985   0.13954   0.71968   0.00000  Uiso   1.00
C740   C     0.98343   0.13906   0.72036   0.00000  Uiso   1.00
C741   C     0.83468   0.08749   0.74623   0.00000  Uiso   1.00
C742   C     0.85870   0.16964   0.65060   0.00000  Uiso   1.00
C743   C     0.93320   0.18570   0.51407   0.00000  Uiso   1.00
C744   C     0.87192   0.17680   0.59506   0.00000  Uiso   1.00
C745   C     0.74675   0.15493   0.93280   0.00000  Uiso   1.00
C746   C     0.73433   0.14875   0.98559   0.00000  Uiso   1.00
C747   C     0.76732   0.15737   0.51353   0.00000  Uiso   1.00
C748   C     0.82504   0.18146   0.93605   0.00000  Uiso   1.00
C749   C     0.84753   0.18230   0.51674   0.00000  Uiso   1.00
C750   C     0.89643   0.18855   0.98906   0.00000  Uiso   1.00
C751   C     0.90685   0.19956   0.93772   0.00000  Uiso   1.00
C752   C     0.86991   0.19953   0.91331   0.00000  Uiso   1.00
C753   C     0.83536   0.18589   0.57046   0.00000  Uiso   1.00
C754   C     0.92108   0.17665   0.56627   0.00000  Uiso   1.00
Cu755  Cu    0.78645   0.16666   0.75000   0.00000  Uiso   1.00
Cu756  Cu    0.88022   0.16667   0.75000   0.00000  Uiso   1.00
H757   H     0.95000   0.17187   0.58456   0.00000  Uiso   1.00
H758   H     0.69970   0.13557   0.50462   0.00000  Uiso   1.00
H759   H     0.87643   0.21367   0.87683   0.00000  Uiso   1.00
H760   H     0.90701   0.29487   0.75314   0.00000  Uiso   1.00
H761   H     0.77730   0.05920   0.68871   0.00000  Uiso   1.00
H762   H     0.68240   0.27345   0.72807   0.00000  Uiso   1.00
H763   H     0.95480   0.24468   0.82084   0.00000  Uiso   1.00
H764   H     0.71023   0.21378   0.64382   0.00000  Uiso   1.00
H765   H     0.90872   0.03566   0.75140   0.00000  Uiso   1.00
H766   H     0.69445   0.21151   0.80832   0.00000  Uiso   1.00
H767   H     0.72538   0.11836   0.69462   0.00000  Uiso   1.00
H768   H     0.97144   0.11709   0.69641   0.00000  Uiso   1.00
H769   H     0.94282   0.20950   0.91713   0.00000  Uiso   1.00
H770   H     0.97100   0.18926   0.99305   0.00000  Uiso   1.00
H771   H     0.72117   0.14603   0.91177   0.00000  Uiso   1.00
H772   H     0.75790   0.14895   0.55348   0.00000  Uiso   1.00
N773   N     0.71598   0.16666   0.74998   0.00000  Uiso   1.00
N774   N     0.95069   0.16669   0.74999   0.00000  Uiso   1.00
O775   O     0.79375   0.22678   0.75000   0.00000  Uiso   1.00
O776   O     0.72483   0.27532   0.82095   0.00000  Uiso   1.00
O777   O     0.69349   0.33325   0.78318   0.00000  Uiso   1.00
O778   O     0.71671   0.26697   0.72688   0.00000  Uiso   1.00
O779   O     0.93682   0.22629   0.80341   0.00000  Uiso   1.00
O780   O     0.80052   0.24759   0.63846   0.00000  Uiso   1.00
O781   O     0.77154   0.24549   0.56148   0.00000  Uiso   1.00
O782   O     0.73712   0.19318   0.63269   0.00000  Uiso   1.00
O783   O     0.87294   0.22679   0.75000   0.00000  Uiso   1.00
O784   O     0.77441   0.16665   0.82549   0.00000  Uiso   1.00
O785   O     0.85360   0.16666   0.82549   0.00000  Uiso   1.00
O786   O     0.79373   0.10654   0.74999   0.00000  Uiso   1.00
O787   O     0.87292   0.10655   0.74999   0.00000  Uiso   1.00
O788   O     0.81306   0.16667   0.67451   0.00000  Uiso   1.00
O789   O     0.89225   0.16668   0.67451   0.00000  Uiso   1.00
O790   O     0.76030   0.04112   0.71683   0.00000  Uiso   1.00
S791   S     0.72931   0.29767   0.77177   0.00000  Uiso   1.00
S792   S     0.78559   0.21973   0.60106   0.00000  Uiso   1.00
C793   C     0.16567   0.57953   0.75177   0.00000  Uiso   1.00
C794   C     0.12601   0.50313   0.90699   0.00000  Uiso   1.00
C795   C     0.20805   0.64486   0.75040   0.00000  Uiso   1.00
C796   C     0.14093   0.50184   0.84997   0.00000  Uiso   1.00
C797   C     0.20960   0.35388   0.74812   0.00000  Uiso   1.00
C798   C     0.16961   0.37625   0.74148   0.00000  Uiso   1.00
C799   C     0.12879   0.35552   0.73530   0.00000  Uiso   1.00
C800   C     0.12312   0.64810   0.74909   0.00000  Uiso   1.00
C801   C     0.16478   0.62460   0.75155   0.00000  Uiso   1.00
C802   C     0.30059   0.52805   0.77907   0.00000  Uiso   1.00
C803   C     0.01615   0.52563   0.78175   0.00000  Uiso   1.00
C804   C     0.14593   0.50788   0.98954   0.00000  Uiso   1.00
C805   C     0.03319   0.47288   0.71968   0.00000  Uiso   1.00
C806   C     0.31677   0.47239   0.72036   0.00000  Uiso   1.00
C807   C     0.16802   0.42083   0.74623   0.00000  Uiso   1.00
C808   C     0.19203   0.50297   0.65060   0.00000  Uiso   1.00
C809   C     0.26653   0.51903   0.51407   0.00000  Uiso   1.00
C810   C     0.20526   0.51013   0.59506   0.00000  Uiso   1.00
C811   C     0.08008   0.48826   0.93280   0.00000  Uiso   1.00
C812   C     0.06767   0.48208   0.98559   0.00000  Uiso   1.00
C813   C     0.10065   0.49070   0.51353   0.00000  Uiso   1.00
C814   C     0.15837   0.51479   0.93605   0.00000  Uiso   1.00
C815   C     0.18086   0.51563   0.51674   0.00000  Uiso   1.00
C816   C     0.22976   0.52188   0.98906   0.00000  Uiso   1.00
C817   C     0.24018   0.53289   0.93772   0.00000  Uiso   1.00
C818   C     0.20324   0.53286   0.91331   0.00000  Uiso   1.00
C819   C     0.16869   0.51922   0.57046   0.00000  Uiso   1.00
C820   C     0.25442   0.50999   0.56627   0.00000  Uiso   1.00
Cu821  Cu    0.11978   0.49999   0.75000   0.00000  Uiso   1.00
Cu822  Cu    0.21355   0.50001   0.75000   0.00000  Uiso   1.00
H823   H     0.28334   0.50521   0.58456   0.00000  Uiso   1.00
H824   H     0.03304   0.46890   0.50462   0.00000  Uiso   1.00
H825   H     0.20976   0.54701   0.87683   0.00000  Uiso   1.00
H826   H     0.24035   0.62820   0.75314   0.00000  Uiso   1.00
H827   H     0.11063   0.39253   0.68871   0.00000  Uiso   1.00
H828   H     0.01573   0.60679   0.72807   0.00000  Uiso   1.00
H829   H     0.28813   0.57801   0.82084   0.00000  Uiso   1.00
H830   H     0.04357   0.54711   0.64382   0.00000  Uiso   1.00
H831   H     0.24206   0.36899   0.75140   0.00000  Uiso   1.00
H832   H     0.02778   0.54485   0.80832   0.00000  Uiso   1.00
H833   H     0.05871   0.45169   0.69462   0.00000  Uiso   1.00
H834   H     0.30477   0.45043   0.69641   0.00000  Uiso   1.00
H835   H     0.27615   0.54283   0.91713   0.00000  Uiso   1.00
H836   H     0.30434   0.52260   0.99305   0.00000  Uiso   1.00
H837   H     0.05450   0.47936   0.91177   0.00000  Uiso   1.00
H838   H     0.09123   0.48228   0.55348   0.00000  Uiso   1.00
N839   N     0.04931   0.49999   0.74998   0.00000  Uiso   1.00
N840   N     0.28402   0.50002   0.74999   0.00000  Uiso   1.00
O841   O     0.12708   0.56011   0.75000   0.00000  Uiso   1.00
O842   O     0.05817   0.60865   0.82095   0.00000  Uiso   1.00
O843   O     0.02683   0.66658   0.78318   0.00000  Uiso   1.00
O844   O     0.05004   0.60031   0.72688   0.00000  Uiso   1.00
O845   O     0.27015   0.55962   0.80341   0.00000  Uiso   1.00
O846   O     0.13385   0.58092   0.63846   0.00000  Uiso   1.00
O847   O     0.10487   0.57882   0.56148   0.00000  Uiso   1.00
O848   O     0.07045   0.52651   0.63269   0.00000  Uiso   1.00
O849   O     0.20627   0.56012   0.75000   0.00000  Uiso   1.00
O850   O     0.10775   0.49998   0.82549   0.00000  Uiso   1.00
O851   O     0.18694   0.49999   0.82549   0.00000  Uiso   1.00
O852   O     0.12706   0.43988   0.74999   0.00000  Uiso   1.00
O853   O     0.20625   0.43989   0.74999   0.00000  Uiso   1.00
O854   O     0.14640   0.50001   0.67451   0.00000  Uiso   1.00
O855   O     0.22559   0.50002   0.67451   0.00000  Uiso   1.00
O856   O     0.09363   0.37445   0.71683   0.00000  Uiso   1.00
S857   S     0.06264   0.63101   0.77177   0.00000  Uiso   1.00
S858   S     0.11892   0.55306   0.60106   0.00000  Uiso   1.00
C859   C     0.49900   0.57953   0.75177   0.00000  Uiso   1.00
C860   C     0.45934   0.50313   0.90699   0.00000  Uiso   1.00
C861   C     0.54138   0.64486   0.75040   0.00000  Uiso   1.00
C862   C     0.47426   0.50184   0.84997   0.00000  Uiso   1.00
C863   C     0.54293   0.35388   0.74812   0.00000  Uiso   1.00
C864   C     0.50295   0.37625   0.74148   0.00000  Uiso   1.00
C865   C     0.46213   0.35552   0.73530   0.00000  Uiso   1.00
C866   C     0.45645   0.64810   0.74909   0.00000  Uiso   1.00
C867   C     0.49811   0.62460   0.75155   0.00000  Uiso   1.00
C868   C     0.63393   0.52805   0.77907   0.00000  Uiso   1.00
C869   C     0.34948   0.52563   0.78175   0.00000  Uiso   1.00
C870   C     0.47926   0.50788   0.98954   0.00000  Uiso   1.00
C871   C     0.36652   0.47288   0.71968   0.00000  Uiso   1.00
C872   C     0.65010   0.47239   0.72036   0.00000  Uiso   1.00
C873   C     0.50135   0.42083   0.74623   0.00000  Uiso   1.00
C874   C     0.52537   0.50297   0.65060   0.00000  Uiso   1.00
C875   C     0.59986   0.51903   0.51407   0.00000  Uiso   1.00
C876   C     0.53859   0.51013   0.59506   0.00000  Uiso   1.00
C877   C     0.41341   0.48826   0.93280   0.00000  Uiso   1.00
C878   C     0.40100   0.48208   0.98559   0.00000  Uiso   1.00
C879   C     0.43398   0.49070   0.51353   0.00000  Uiso   1.00
C880   C     0.49170   0.51479   0.93605   0.00000  Uiso   1.00
C881   C     0.51420   0.51563   0.51674   0.00000  Uiso   1.00
C882   C     0.56310   0.52188   0.98906   0.00000  Uiso   1.00
C883   C     0.57352   0.53289   0.93772   0.00000  Uiso   1.00
C884   C     0.53657   0.53286   0.91331   0.00000  Uiso   1.00
C885   C     0.50202   0.51922   0.57046   0.00000  Uiso   1.00
C886   C     0.58775   0.50999   0.56627   0.00000  Uiso   1.00
Cu887  Cu    0.45311   0.49999   0.75000   0.00000  Uiso   1.00
Cu888  Cu    0.54689   0.50001   0.75000   0.00000  Uiso   1.00
H889   H     0.61667   0.50521   0.58456   0.00000  Uiso   1.00
H890   H     0.36637   0.46890   0.50462   0.00000  Uiso   1.00
H891   H     0.54309   0.54701   0.87683   0.00000  Uiso   1.00
H892   H     0.57368   0.62820   0.75314   0.00000  Uiso   1.00
H893   H     0.44397   0.39253   0.68871   0.00000  Uiso   1.00
H894   H     0.34907   0.60679   0.72807   0.00000  Uiso   1.00
H895   H     0.62147   0.57801   0.82084   0.00000  Uiso   1.00
H896   H     0.37690   0.54711   0.64382   0.00000  Uiso   1.00
H897   H     0.57539   0.36899   0.75140   0.00000  Uiso   1.00
H898   H     0.36111   0.54485   0.80832   0.00000  Uiso   1.00
H899   H     0.39205   0.45169   0.69462   0.00000  Uiso   1.00
H900   H     0.63810   0.45043   0.69641   0.00000  Uiso   1.00
H901   H     0.60949   0.54283   0.91713   0.00000  Uiso   1.00
H902   H     0.63767   0.52260   0.99305   0.00000  Uiso   1.00
H903   H     0.38784   0.47936   0.91177   0.00000  Uiso   1.00
H904   H     0.42457   0.48228   0.55348   0.00000  Uiso   1.00
N905   N     0.38265   0.49999   0.74998   0.00000  Uiso   1.00
N906   N     0.61735   0.50002   0.74999   0.00000  Uiso   1.00
O907   O     0.46042   0.56011   0.75000   0.00000  Uiso   1.00
O908   O     0.39150   0.60865   0.82095   0.00000  Uiso   1.00
O909   O     0.36016   0.66658   0.78318   0.00000  Uiso   1.00
O910   O     0.38338   0.60031   0.72688   0.00000  Uiso   1.00
O911   O     0.60348   0.55962   0.80341   0.00000  Uiso   1.00
O912   O     0.46718   0.58092   0.63846   0.00000  Uiso   1.00
O913   O     0.43821   0.57882   0.56148   0.00000  Uiso   1.00
O914   O     0.40378   0.52651   0.63269   0.00000  Uiso   1.00
O915   O     0.53961   0.56012   0.75000   0.00000  Uiso   1.00
O916   O     0.44108   0.49998   0.82549   0.00000  Uiso   1.00
O917   O     0.52027   0.49999   0.82549   0.00000  Uiso   1.00
O918   O     0.46039   0.43988   0.74999   0.00000  Uiso   1.00
O919   O     0.53958   0.43989   0.74999   0.00000  Uiso   1.00
O920   O     0.47973   0.50001   0.67451   0.00000  Uiso   1.00
O921   O     0.55892   0.50002   0.67451   0.00000  Uiso   1.00
O922   O     0.42696   0.37445   0.71683   0.00000  Uiso   1.00
S923   S     0.39598   0.63101   0.77177   0.00000  Uiso   1.00
S924   S     0.45226   0.55306   0.60106   0.00000  Uiso   1.00
C925   C     0.83233   0.57953   0.75177   0.00000  Uiso   1.00
C926   C     0.79268   0.50313   0.90699   0.00000  Uiso   1.00
C927   C     0.87471   0.64486   0.75040   0.00000  Uiso   1.00
C928   C     0.80759   0.50184   0.84997   0.00000  Uiso   1.00
C929   C     0.87627   0.35388   0.74812   0.00000  Uiso   1.00
C930   C     0.83628   0.37625   0.74148   0.00000  Uiso   1.00
C931   C     0.79546   0.35552   0.73530   0.00000  Uiso   1.00
C932   C     0.78978   0.64810   0.74909   0.00000  Uiso   1.00
C933   C     0.83145   0.62460   0.75155   0.00000  Uiso   1.00
C934   C     0.96726   0.52805   0.77907   0.00000  Uiso   1.00
C935   C     0.68281   0.52563   0.78175   0.00000  Uiso   1.00
C936   C     0.81259   0.50788   0.98954   0.00000  Uiso   1.00
C937   C     0.69985   0.47288   0.71968   0.00000  Uiso   1.00
C938   C     0.98343   0.47239   0.72036   0.00000  Uiso   1.00
C939   C     0.83468   0.42083   0.74623   0.00000  Uiso   1.00
C940   C     0.85870   0.50297   0.65060   0.00000  Uiso   1.00
C941   C     0.93320   0.51903   0.51407   0.00000  Uiso   1.00
C942   C     0.87192   0.51013   0.59506   0.00000  Uiso   1.00
C943   C     0.74675   0.48826   0.93280   0.00000  Uiso   1.00
C944   C     0.73433   0.48208   0.98559   0.00000  Uiso   1.00
C945   C     0.76732   0.49070   0.51353   0.00000  Uiso   1.00
C946   C     0.82504   0.51479   0.93605   0.00000  Uiso   1.00
C947   C     0.84753   0.51563   0.51674   0.00000  Uiso   1.00
C948   C     0.89643   0.52188   0.98906   0.00000  Uiso   1.00
C949   C     0.90685   0.53289   0.93772   0.00000  Uiso   1.00
C950   C     0.86991   0.53286   0.91331   0.00000  Uiso   1.00
C951   C     0.83536   0.51922   0.57046   0.00000  Uiso   1.00
C952   C     0.92108   0.50999   0.56627   0.00000  Uiso   1.00
Cu953  Cu    0.78645   0.49999   0.75000   0.00000  Uiso   1.00
Cu954  Cu    0.88022   0.50001   0.75000   0.00000  Uiso   1.00
H955   H     0.95000   0.50521   0.58456   0.00000  Uiso   1.00
H956   H     0.69970   0.46890   0.50462   0.00000  Uiso   1.00
H957   H     0.87643   0.54701   0.87683   0.00000  Uiso   1.00
H958   H     0.90701   0.62820   0.75314   0.00000  Uiso   1.00
H959   H     0.77730   0.39253   0.68871   0.00000  Uiso   1.00
H960   H     0.68240   0.60679   0.72807   0.00000  Uiso   1.00
H961   H     0.95480   0.57801   0.82084   0.00000  Uiso   1.00
H962   H     0.71023   0.54711   0.64382   0.00000  Uiso   1.00
H963   H     0.90872   0.36899   0.75140   0.00000  Uiso   1.00
H964   H     0.69445   0.54485   0.80832   0.00000  Uiso   1.00
H965   H     0.72538   0.45169   0.69462   0.00000  Uiso   1.00
H966   H     0.97144   0.45043   0.69641   0.00000  Uiso   1.00
H967   H     0.94282   0.54283   0.91713   0.00000  Uiso   1.00
H968   H     0.97100   0.52260   0.99305   0.00000  Uiso   1.00
H969   H     0.72117   0.47936   0.91177   0.00000  Uiso   1.00
H970   H     0.75790   0.48228   0.55348   0.00000  Uiso   1.00
N971   N     0.71598   0.49999   0.74998   0.00000  Uiso   1.00
N972   N     0.95069   0.50002   0.74999   0.00000  Uiso   1.00
O973   O     0.79375   0.56011   0.75000   0.00000  Uiso   1.00
O974   O     0.72483   0.60865   0.82095   0.00000  Uiso   1.00
O975   O     0.69349   0.66658   0.78318   0.00000  Uiso   1.00
O976   O     0.71671   0.60031   0.72688   0.00000  Uiso   1.00
O977   O     0.93682   0.55962   0.80341   0.00000  Uiso   1.00
O978   O     0.80052   0.58092   0.63846   0.00000  Uiso   1.00
O979   O     0.77154   0.57882   0.56148   0.00000  Uiso   1.00
O980   O     0.73712   0.52651   0.63269   0.00000  Uiso   1.00
O981   O     0.87294   0.56012   0.75000   0.00000  Uiso   1.00
O982   O     0.77441   0.49998   0.82549   0.00000  Uiso   1.00
O983   O     0.85360   0.49999   0.82549   0.00000  Uiso   1.00
O984   O     0.79373   0.43988   0.74999   0.00000  Uiso   1.00
O985   O     0.87292   0.43989   0.74999   0.00000  Uiso   1.00
O986   O     0.81306   0.50001   0.67451   0.00000  Uiso   1.00
O987   O     0.89225   0.50002   0.67451   0.00000  Uiso   1.00
O988   O     0.76030   0.37445   0.71683   0.00000  Uiso   1.00
S989   S     0.72931   0.63101   0.77177   0.00000  Uiso   1.00
S990   S     0.78559   0.55306   0.60106   0.00000  Uiso   1.00
C991   C     0.16567   0.91287   0.75177   0.00000  Uiso   1.00
C992   C     0.12601   0.83647   0.90699   0.00000  Uiso   1.00
C993   C     0.20805   0.97820   0.75040   0.00000  Uiso   1.00
C994   C     0.14093   0.83517   0.84997   0.00000  Uiso   1.00
C995   C     0.20960   0.68721   0.74812   0.00000  Uiso   1.00
C996   C     0.16961   0.70958   0.74148   0.00000  Uiso   1.00
C997   C     0.12879   0.68885   0.73530   0.00000  Uiso   1.00
C998   C     0.12312   0.98143   0.74909   0.00000  Uiso   1.00
C999   C     0.16478   0.95794   0.75155   0.00000  Uiso   1.00
C1000  C     0.30059   0.86138   0.77907   0.00000  Uiso   1.00
C1001  C     0.01615   0.85896   0.78175   0.00000  Uiso   1.00
C1002  C     0.14593   0.84122   0.98954   0.00000  Uiso   1.00
C1003  C     0.03319   0.80621   0.71968   0.00000  Uiso   1.00
C1004  C     0.31677   0.80572   0.72036   0.00000  Uiso   1.00
C1005  C     0.16802   0.75416   0.74623   0.00000  Uiso   1.00
C1006  C     0.19203   0.83630   0.65060   0.00000  Uiso   1.00
C1007  C     0.26653   0.85237   0.51407   0.00000  Uiso   1.00
C1008  C     0.20526   0.84347   0.59506   0.00000  Uiso   1.00
C1009  C     0.08008   0.82159   0.93280   0.00000  Uiso   1.00
C1010  C     0.06767   0.81541   0.98559   0.00000  Uiso   1.00
C1011  C     0.10065   0.82403   0.51353   0.00000  Uiso   1.00
C1012  C     0.15837   0.84812   0.93605   0.00000  Uiso   1.00
C1013  C     0.18086   0.84896   0.51674   0.00000  Uiso   1.00
C1014  C     0.22976   0.85522   0.98906   0.00000  Uiso   1.00
C1015  C     0.24018   0.86623   0.93772   0.00000  Uiso   1.00
C1016  C     0.20324   0.86619   0.91331   0.00000  Uiso   1.00
C1017  C     0.16869   0.85256   0.57046   0.00000  Uiso   1.00
C1018  C     0.25442   0.84332   0.56627   0.00000  Uiso   1.00
Cu1019 Cu    0.11978   0.83333   0.75000   0.00000  Uiso   1.00
Cu1020 Cu    0.21355   0.83334   0.75000   0.00000  Uiso   1.00
H1021  H     0.28334   0.83854   0.58456   0.00000  Uiso   1.00
H1022  H     0.03304   0.80223   0.50462   0.00000  Uiso   1.00
H1023  H     0.20976   0.88034   0.87683   0.00000  Uiso   1.00
H1024  H     0.24035   0.96154   0.75314   0.00000  Uiso   1.00
H1025  H     0.11063   0.72586   0.68871   0.00000  Uiso   1.00
H1026  H     0.01573   0.94012   0.72807   0.00000  Uiso   1.00
H1027  H     0.28813   0.91134   0.82084   0.00000  Uiso   1.00
H1028  H     0.04357   0.88044   0.64382   0.00000  Uiso   1.00
H1029  H     0.24206   0.70233   0.75140   0.00000  Uiso   1.00
H1030  H     0.02778   0.87818   0.80832   0.00000  Uiso   1.00
H1031  H     0.05871   0.78502   0.69462   0.00000  Uiso   1.00
H1032  H     0.30477   0.78376   0.69641   0.00000  Uiso   1.00
H1033  H     0.27615   0.87616   0.91713   0.00000  Uiso   1.00
H1034  H     0.30434   0.85593   0.99305   0.00000  Uiso   1.00
H1035  H     0.05450   0.81270   0.91177   0.00000  Uiso   1.00
H1036  H     0.09123   0.81561   0.55348   0.00000  Uiso   1.00
N1037  N     0.04931   0.83332   0.74998   0.00000  Uiso   1.00
N1038  N     0.28402   0.83335   0.74999   0.00000  Uiso   1.00
O1039  O     0.12708   0.89345   0.75000   0.00000  Uiso   1.00
O1040  O     0.05817   0.94199   0.82095   0.00000  Uiso   1.00
O1041  O     0.02683   0.99992   0.78318   0.00000  Uiso   1.00
O1042  O     0.05004   0.93364   0.72688   0.00000  Uiso   1.00
O1043  O     0.27015   0.89295   0.80341   0.00000  Uiso   1.00
O1044  O     0.13385   0.91426   0.63846   0.00000  Uiso   1.00
O1045  O     0.10487   0.91216   0.56148   0.00000  Uiso   1.00
O1046  O     0.07045   0.85984   0.63269   0.00000  Uiso   1.00
O1047  O     0.20627   0.89346   0.75000   0.00000  Uiso   1.00
O1048  O     0.10775   0.83332   0.82549   0.00000  Uiso   1.00
O1049  O     0.18694   0.83333   0.82549   0.00000  Uiso   1.00
O1050  O     0.12706   0.77321   0.74999   0.00000  Uiso   1.00
O1051  O     0.20625   0.77322   0.74999   0.00000  Uiso   1.00
O1052  O     0.14640   0.83334   0.67451   0.00000  Uiso   1.00
O1053  O     0.22559   0.83335   0.67451   0.00000  Uiso   1.00
O1054  O     0.09363   0.70778   0.71683   0.00000  Uiso   1.00
S1055  S     0.06264   0.96434   0.77177   0.00000  Uiso   1.00
S1056  S     0.11892   0.88639   0.60106   0.00000  Uiso   1.00
C1057  C     0.49900   0.91287   0.75177   0.00000  Uiso   1.00
C1058  C     0.45934   0.83647   0.90699   0.00000  Uiso   1.00
C1059  C     0.54138   0.97820   0.75040   0.00000  Uiso   1.00
C1060  C     0.47426   0.83517   0.84997   0.00000  Uiso   1.00
C1061  C     0.54293   0.68721   0.74812   0.00000  Uiso   1.00
C1062  C     0.50295   0.70958   0.74148   0.00000  Uiso   1.00
C1063  C     0.46213   0.68885   0.73530   0.00000  Uiso   1.00
C1064  C     0.45645   0.98143   0.74909   0.00000  Uiso   1.00
C1065  C     0.49811   0.95794   0.75155   0.00000  Uiso   1.00
C1066  C     0.63393   0.86138   0.77907   0.00000  Uiso   1.00
C1067  C     0.34948   0.85896   0.78175   0.00000  Uiso   1.00
C1068  C     0.47926   0.84122   0.98954   0.00000  Uiso   1.00
C1069  C     0.36652   0.80621   0.71968   0.00000  Uiso   1.00
C1070  C     0.65010   0.80572   0.72036   0.00000  Uiso   1.00
C1071  C     0.50135   0.75416   0.74623   0.00000  Uiso   1.00
C1072  C     0.52537   0.83630   0.65060   0.00000  Uiso   1.00
C1073  C     0.59986   0.85237   0.51407   0.00000  Uiso   1.00
C1074  C     0.53859   0.84347   0.59506   0.00000  Uiso   1.00
C1075  C     0.41341   0.82159   0.93280   0.00000  Uiso   1.00
C1076  C     0.40100   0.81541   0.98559   0.00000  Uiso   1.00
C1077  C     0.43398   0.82403   0.51353   0.00000  Uiso   1.00
C1078  C     0.49170   0.84812   0.93605   0.00000  Uiso   1.00
C1079  C     0.51420   0.84896   0.51674   0.00000  Uiso   1.00
C1080  C     0.56310   0.85522   0.98906   0.00000  Uiso   1.00
C1081  C     0.57352   0.86623   0.93772   0.00000  Uiso   1.00
C1082  C     0.53657   0.86619   0.91331   0.00000  Uiso   1.00
C1083  C     0.50202   0.85256   0.57046   0.00000  Uiso   1.00
C1084  C     0.58775   0.84332   0.56627   0.00000  Uiso   1.00
Cu1085 Cu    0.45311   0.83333   0.75000   0.00000  Uiso   1.00
Cu1086 Cu    0.54689   0.83334   0.75000   0.00000  Uiso   1.00
H1087  H     0.61667   0.83854   0.58456   0.00000  Uiso   1.00
H1088  H     0.36637   0.80223   0.50462   0.00000  Uiso   1.00
H1089  H     0.54309   0.88034   0.87683   0.00000  Uiso   1.00
H1090  H     0.57368   0.96154   0.75314   0.00000  Uiso   1.00
H1091  H     0.44397   0.72586   0.68871   0.00000  Uiso   1.00
H1092  H     0.34907   0.94012   0.72807   0.00000  Uiso   1.00
H1093  H     0.62147   0.91134   0.82084   0.00000  Uiso   1.00
H1094  H     0.37690   0.88044   0.64382   0.00000  Uiso   1.00
H1095  H     0.57539   0.70233   0.75140   0.00000  Uiso   1.00
H1096  H     0.36111   0.87818   0.80832   0.00000  Uiso   1.00
H1097  H     0.39205   0.78502   0.69462   0.00000  Uiso   1.00
H1098  H     0.63810   0.78376   0.69641   0.00000  Uiso   1.00
H1099  H     0.60949   0.87616   0.91713   0.00000  Uiso   1.00
H1100  H     0.63767   0.85593   0.99305   0.00000  Uiso   1.00
H1101  H     0.38784   0.81270   0.91177   0.00000  Uiso   1.00
H1102  H     0.42457   0.81561   0.55348   0.00000  Uiso   1.00
N1103  N     0.38265   0.83332   0.74998   0.00000  Uiso   1.00
N1104  N     0.61735   0.83335   0.74999   0.00000  Uiso   1.00
O1105  O     0.46042   0.89345   0.75000   0.00000  Uiso   1.00
O1106  O     0.39150   0.94199   0.82095   0.00000  Uiso   1.00
O1107  O     0.36016   0.99992   0.78318   0.00000  Uiso   1.00
O1108  O     0.38338   0.93364   0.72688   0.00000  Uiso   1.00
O1109  O     0.60348   0.89295   0.80341   0.00000  Uiso   1.00
O1110  O     0.46718   0.91426   0.63846   0.00000  Uiso   1.00
O1111  O     0.43821   0.91216   0.56148   0.00000  Uiso   1.00
O1112  O     0.40378   0.85984   0.63269   0.00000  Uiso   1.00
O1113  O     0.53961   0.89346   0.75000   0.00000  Uiso   1.00
O1114  O     0.44108   0.83332   0.82549   0.00000  Uiso   1.00
O1115  O     0.52027   0.83333   0.82549   0.00000  Uiso   1.00
O1116  O     0.46039   0.77321   0.74999   0.00000  Uiso   1.00
O1117  O     0.53958   0.77322   0.74999   0.00000  Uiso   1.00
O1118  O     0.47973   0.83334   0.67451   0.00000  Uiso   1.00
O1119  O     0.55892   0.83335   0.67451   0.00000  Uiso   1.00
O1120  O     0.42696   0.70778   0.71683   0.00000  Uiso   1.00
S1121  S     0.39598   0.96434   0.77177   0.00000  Uiso   1.00
S1122  S     0.45226   0.88639   0.60106   0.00000  Uiso   1.00
C1123  C     0.83233   0.91287   0.75177   0.00000  Uiso   1.00
C1124  C     0.79268   0.83647   0.90699   0.00000  Uiso   1.00
C1125  C     0.87471   0.97820   0.75040   0.00000  Uiso   1.00
C1126  C     0.80759   0.83517   0.84997   0.00000  Uiso   1.00
C1127  C     0.87627   0.68721   0.74812   0.00000  Uiso   1.00
C1128  C     0.83628   0.70958   0.74148   0.00000  Uiso   1.00
C1129  C     0.79546   0.68885   0.73530   0.00000  Uiso   1.00
C1130  C     0.78978   0.98143   0.74909   0.00000  Uiso   1.00
C1131  C     0.83145   0.95794   0.75155   0.00000  Uiso   1.00
C1132  C     0.96726   0.86138   0.77907   0.00000  Uiso   1.00
C1133  C     0.68281   0.85896   0.78175   0.00000  Uiso   1.00
C1134  C     0.81259   0.84122   0.98954   0.00000  Uiso   1.00
C1135  C     0.69985   0.80621   0.71968   0.00000  Uiso   1.00
C1136  C     0.98343   0.80572   0.72036   0.00000  Uiso   1.00
C1137  C     0.83468   0.75416   0.74623   0.00000  Uiso   1.00
C1138  C     0.85870   0.83630   0.65060   0.00000  Uiso   1.00
C1139  C     0.93320   0.85237   0.51407   0.00000  Uiso   1.00
C1140  C     0.87192   0.84347   0.59506   0.00000  Uiso   1.00
C1141  C     0.74675   0.82159   0.93280   0.00000  Uiso   1.00
C1142  C     0.73433   0.81541   0.98559   0.00000  Uiso   1.00
C1143  C     0.76732   0.82403   0.51353   0.00000  Uiso   1.00
C1144  C     0.82504   0.84812   0.93605   0.00000  Uiso   1.00
C1145  C     0.84753   0.84896   0.51674   0.00000  Uiso   1.00
C1146  C     0.89643   0.85522   0.98906   0.00000  Uiso   1.00
C1147  C     0.90685   0.86623   0.93772   0.00000  Uiso   1.00
C1148  C     0.86991   0.86619   0.91331   0.00000  Uiso   1.00
C1149  C     0.83536   0.85256   0.57046   0.00000  Uiso   1.00
C1150  C     0.92108   0.84332   0.56627   0.00000  Uiso   1.00
Cu1151 Cu    0.78645   0.83333   0.75000   0.00000  Uiso   1.00
Cu1152 Cu    0.88022   0.83334   0.75000   0.00000  Uiso   1.00
H1153  H     0.95000   0.83854   0.58456   0.00000  Uiso   1.00
H1154  H     0.69970   0.80223   0.50462   0.00000  Uiso   1.00
H1155  H     0.87643   0.88034   0.87683   0.00000  Uiso   1.00
H1156  H     0.90701   0.96154   0.75314   0.00000  Uiso   1.00
H1157  H     0.77730   0.72586   0.68871   0.00000  Uiso   1.00
H1158  H     0.68240   0.94012   0.72807   0.00000  Uiso   1.00
H1159  H     0.95480   0.91134   0.82084   0.00000  Uiso   1.00
H1160  H     0.71023   0.88044   0.64382   0.00000  Uiso   1.00
H1161  H     0.90872   0.70233   0.75140   0.00000  Uiso   1.00
H1162  H     0.69445   0.87818   0.80832   0.00000  Uiso   1.00
H1163  H     0.72538   0.78502   0.69462   0.00000  Uiso   1.00
H1164  H     0.97144   0.78376   0.69641   0.00000  Uiso   1.00
H1165  H     0.94282   0.87616   0.91713   0.00000  Uiso   1.00
H1166  H     0.97100   0.85593   0.99305   0.00000  Uiso   1.00
H1167  H     0.72117   0.81270   0.91177   0.00000  Uiso   1.00
H1168  H     0.75790   0.81561   0.55348   0.00000  Uiso   1.00
N1169  N     0.71598   0.83332   0.74998   0.00000  Uiso   1.00
N1170  N     0.95069   0.83335   0.74999   0.00000  Uiso   1.00
O1171  O     0.79375   0.89345   0.75000   0.00000  Uiso   1.00
O1172  O     0.72483   0.94199   0.82095   0.00000  Uiso   1.00
O1173  O     0.69349   0.99992   0.78318   0.00000  Uiso   1.00
O1174  O     0.71671   0.93364   0.72688   0.00000  Uiso   1.00
O1175  O     0.93682   0.89295   0.80341   0.00000  Uiso   1.00
O1176  O     0.80052   0.91426   0.63846   0.00000  Uiso   1.00
O1177  O     0.77154   0.91216   0.56148   0.00000  Uiso   1.00
O1178  O     0.73712   0.85984   0.63269   0.00000  Uiso   1.00
O1179  O     0.87294   0.89346   0.75000   0.00000  Uiso   1.00
O1180  O     0.77441   0.83332   0.82549   0.00000  Uiso   1.00
O1181  O     0.85360   0.83333   0.82549   0.00000  Uiso   1.00
O1182  O     0.79373   0.77321   0.74999   0.00000  Uiso   1.00
O1183  O     0.87292   0.77322   0.74999   0.00000  Uiso   1.00
O1184  O     0.81306   0.83334   0.67451   0.00000  Uiso   1.00
O1185  O     0.89225   0.83335   0.67451   0.00000  Uiso   1.00
O1186  O     0.76030   0.70778   0.71683   0.00000  Uiso   1.00
S1187  S     0.72931   0.96434   0.77177   0.00000  Uiso   1.00
S1188  S     0.78559   0.88639   0.60106   0.00000  Uiso   1.00
loop_
_geom_bond_atom_site_label_1
_geom_bond_atom_site_label_2
_geom_bond_distance
_geom_bond_site_symmetry_2
_ccdc_geom_bond_type
C1     O57     1.300   .     A
C1     C9      1.472   .     S
C1     O49     1.294   .     A
C2     C22     1.422   .     A
C2     C4      1.481   .     S
C2     C19     1.406   .     A
C3     C9      1.407   .     A
C3     H34     1.083   .     S
C3     C203    1.387   .     S
C4     O59     1.299   .     A
C4     O58     1.298   .     A
C5     H39     1.083   .     S
C5     C6      1.398   .     A
C5     C399    1.387   1_545 S
C6     C7      1.408   .     A
C6     C15     1.459   .     S
C7     O64     1.379   .     S
C7     C404    1.388   1_545 S
C8     S65     1.771   .     S
C8     C9      1.421   .     A
C8     C205    1.388   .     S
C10    N48     1.372   .     A
C10    O53     1.373   .     S
C10    C77     1.419   .     S
C11    N47     1.356   .     A
C11    H40     1.071   .     S
C11    C142    1.419   1_455 S
C12    C22     1.413   .     A
C12    C615    1.409   .     S
C12    C617    1.417   .     S
C13    H41     1.080   .     S
C13    N47     1.368   .     A
C13    C146    1.417   1_455 S
C14    H42     1.082   .     S
C14    N48     1.366   .     A
C14    C79     1.417   .     S
C15    O60     1.293   .     A
C15    O61     1.295   .     A
C16    O63     1.298   .     A
C16    O62     1.293   .     A
C16    C18     1.467   .     S
C17    C28     1.394   .     A
C17    C618    1.399   1_554 S
C17    H638    1.083   1_554 S
C18    C28     1.406   .     A
C18    C27     1.413   .     A
C19    H45     1.083   .     S
C19    C20     1.391   .     A
C20    C615    1.391   .     S
C20    H626    1.082   .     S
C21    H46     1.079   .     S
C21    C614    1.391   1_554 S
C21    C606    1.409   1_554 S
C22    C26     1.406   .     A
C23    C27     1.400   .     A
C23    C606    1.417   1_554 S
C23    C618    1.412   1_554 S
C24    C25     1.391   .     A
C24    C611    1.399   .     S
C24    C617    1.412   .     S
C25    H43     1.084   .     S
C25    C26     1.390   .     A
C26    H33     1.065   .     S
C27    S66     1.788   .     S
C28    H31     1.083   .     S
Cu29   O60     1.971   .     S
Cu29   O49     1.979   .     S
Cu29   Cu30    2.679   .     S
Cu29   N47     2.014   .     S
Cu29   O58     1.973   .     S
Cu29   O62     1.972   .     S
Cu30   O59     1.972   .     S
Cu30   O63     1.973   .     S
Cu30   N48     2.013   .     S
Cu30   O57     1.971   .     S
Cu30   O61     1.979   .     S
H32    C614    1.082   1_554 S
H35    O64     0.992   .     S
H36    O52     0.991   .     S
H37    O53     0.992   .     S
H38    O56     0.990   .     S
H44    C611    1.083   .     S
O50    S65     1.501   .     D
O51    S65     1.505   .     D
O52    S65     1.682   .     S
O54    S66     1.503   .     D
O55    S66     1.504   .     D
O56    S66     1.679   .     S
C67    O123    1.300   .     A
C67    C75     1.472   .     S
C67    O115    1.294   .     A
C68    C88     1.422   .     A
C68    C70     1.481   .     S
C68    C85     1.406   .     A
C69    C75     1.407   .     A
C69    H100    1.083   .     S
C69    C269    1.387   .     S
C70    O125    1.299   .     A
C70    O124    1.298   .     A
C71    H105    1.083   .     S
C71    C72     1.398   .     A
C71    C465    1.387   1_545 S
C72    C73     1.408   .     A
C72    C81     1.459   .     S
C73    O130    1.379   .     S
C73    C470    1.388   1_545 S
C74    S131    1.771   .     S
C74    C75     1.421   .     A
C74    C271    1.388   .     S
C76    N114    1.372   .     A
C76    O119    1.373   .     S
C76    C143    1.419   .     S
C77    N113    1.356   .     A
C77    H106    1.071   .     S
C78    C88     1.413   .     A
C78    C681    1.409   .     S
C78    C683    1.417   .     S
C79    H107    1.080   .     S
C79    N113    1.368   .     A
C80    H108    1.082   .     S
C80    N114    1.366   .     A
C80    C145    1.417   .     S
C81    O126    1.293   .     A
C81    O127    1.295   .     A
C82    O129    1.298   .     A
C82    O128    1.293   .     A
C82    C84     1.467   .     S
C83    C94     1.394   .     A
C83    C684    1.399   1_554 S
C83    H704    1.083   1_554 S
C84    C94     1.406   .     A
C84    C93     1.413   .     A
C85    H111    1.083   .     S
C85    C86     1.391   .     A
C86    C681    1.391   .     S
C86    H692    1.082   .     S
C87    H112    1.079   .     S
C87    C680    1.391   1_554 S
C87    C672    1.409   1_554 S
C88    C92     1.406   .     A
C89    C93     1.400   .     A
C89    C672    1.417   1_554 S
C89    C684    1.412   1_554 S
C90    C91     1.391   .     A
C90    C677    1.399   .     S
C90    C683    1.412   .     S
C91    H109    1.084   .     S
C91    C92     1.390   .     A
C92    H99     1.065   .     S
C93    S132    1.788   .     S
C94    H97     1.083   .     S
Cu95   O126    1.971   .     S
Cu95   O115    1.979   .     S
Cu95   Cu96    2.679   .     S
Cu95   N113    2.014   .     S
Cu95   O124    1.973   .     S
Cu95   O128    1.972   .     S
Cu96   O125    1.972   .     S
Cu96   O129    1.973   .     S
Cu96   N114    2.013   .     S
Cu96   O123    1.971   .     S
Cu96   O127    1.979   .     S
H98    C680    1.082   1_554 S
H101   O130    0.992   .     S
H102   O118    0.991   .     S
H103   O119    0.992   .     S
H104   O122    0.990   .     S
H110   C677    1.083   .     S
O116   S131    1.501   .     D
O117   S131    1.505   .     D
O118   S131    1.682   .     S
O120   S132    1.503   .     D
O121   S132    1.504   .     D
O122   S132    1.679   .     S
C133   O189    1.300   .     A
C133   C141    1.472   .     S
C133   O181    1.294   .     A
C134   C154    1.422   .     A
C134   C136    1.481   .     S
C134   C151    1.406   .     A
C135   C141    1.407   .     A
C135   H166    1.083   .     S
C135   C335    1.387   .     S
C136   O191    1.299   .     A
C136   O190    1.298   .     A
C137   H171    1.083   .     S
C137   C138    1.398   .     A
C137   C531    1.387   1_545 S
C138   C139    1.408   .     A
C138   C147    1.459   .     S
C139   O196    1.379   .     S
C139   C536    1.388   1_545 S
C140   S197    1.771   .     S
C140   C141    1.421   .     A
C140   C337    1.388   .     S
C142   N180    1.372   .     A
C142   O185    1.373   .     S
C142   C11     1.419   1_655 S
C143   N179    1.356   .     A
C143   H172    1.071   .     S
C144   C154    1.413   .     A
C144   C747    1.409   .     S
C144   C749    1.417   .     S
C145   H173    1.080   .     S
C145   N179    1.368   .     A
C146   H174    1.082   .     S
C146   N180    1.366   .     A
C146   C13     1.417   1_655 S
C147   O192    1.293   .     A
C147   O193    1.295   .     A
C148   O195    1.298   .     A
C148   O194    1.293   .     A
C148   C150    1.467   .     S
C149   C160    1.394   .     A
C149   C750    1.399   1_554 S
C149   H770    1.083   1_554 S
C150   C160    1.406   .     A
C150   C159    1.413   .     A
C151   H177    1.083   .     S
C151   C152    1.391   .     A
C152   C747    1.391   .     S
C152   H758    1.082   .     S
C153   H178    1.079   .     S
C153   C746    1.391   1_554 S
C153   C738    1.409   1_554 S
C154   C158    1.406   .     A
C155   C159    1.400   .     A
C155   C738    1.417   1_554 S
C155   C750    1.412   1_554 S
C156   C157    1.391   .     A
C156   C743    1.399   .     S
C156   C749    1.412   .     S
C157   H175    1.084   .     S
C157   C158    1.390   .     A
C158   H165    1.065   .     S
C159   S198    1.788   .     S
C160   H163    1.083   .     S
Cu161  O192    1.971   .     S
Cu161  O181    1.979   .     S
Cu161  Cu162   2.679   .     S
Cu161  N179    2.014   .     S
Cu161  O190    1.973   .     S
Cu161  O194    1.972   .     S
Cu162  O191    1.972   .     S
Cu162  O195    1.973   .     S
Cu162  N180    2.013   .     S
Cu162  O189    1.971   .     S
Cu162  O193    1.979   .     S
H164   C746    1.082   1_554 S
H167   O196    0.992   .     S
H168   O184    0.991   .     S
H169   O185    0.992   .     S
H170   O188    0.990   .     S
H176   C743    1.083   .     S
O182   S197    1.501   .     D
O183   S197    1.505   .     D
O184   S197    1.682   .     S
O186   S198    1.503   .     D
O187   S198    1.504   .     D
O188   S198    1.679   .     S
C199   O255    1.300   .     A
C199   C207    1.472   .     S
C199   O247    1.294   .     A
C200   C220    1.422   .     A
C200   C202    1.481   .     S
C200   C217    1.406   .     A
C201   C207    1.407   .     A
C201   H232    1.083   .     S
C201   C401    1.387   .     S
C202   O257    1.299   .     A
C202   O256    1.298   .     A
C203   H237    1.083   .     S
C203   C204    1.398   .     A
C204   C205    1.408   .     A
C204   C213    1.459   .     S
C205   O262    1.379   .     S
C206   S263    1.771   .     S
C206   C207    1.421   .     A
C206   C403    1.388   .     S
C208   N246    1.372   .     A
C208   O251    1.373   .     S
C208   C275    1.419   .     S
C209   N245    1.356   .     A
C209   H238    1.071   .     S
C209   C340    1.419   1_455 S
C210   C220    1.413   .     A
C210   C813    1.409   .     S
C210   C815    1.417   .     S
C211   H239    1.080   .     S
C211   N245    1.368   .     A
C211   C344    1.417   1_455 S
C212   H240    1.082   .     S
C212   N246    1.366   .     A
C212   C277    1.417   .     S
C213   O258    1.293   .     A
C213   O259    1.295   .     A
C214   O261    1.298   .     A
C214   O260    1.293   .     A
C214   C216    1.467   .     S
C215   C226    1.394   .     A
C215   C816    1.399   1_554 S
C215   H836    1.083   1_554 S
C216   C226    1.406   .     A
C216   C225    1.413   .     A
C217   H243    1.083   .     S
C217   C218    1.391   .     A
C218   C813    1.391   .     S
C218   H824    1.082   .     S
C219   H244    1.079   .     S
C219   C812    1.391   1_554 S
C219   C804    1.409   1_554 S
C220   C224    1.406   .     A
C221   C225    1.400   .     A
C221   C804    1.417   1_554 S
C221   C816    1.412   1_554 S
C222   C223    1.391   .     A
C222   C809    1.399   .     S
C222   C815    1.412   .     S
C223   H241    1.084   .     S
C223   C224    1.390   .     A
C224   H231    1.065   .     S
C225   S264    1.788   .     S
C226   H229    1.083   .     S
Cu227  O258    1.971   .     S
Cu227  O247    1.979   .     S
Cu227  Cu228   2.679   .     S
Cu227  N245    2.014   .     S
Cu227  O256    1.973   .     S
Cu227  O260    1.972   .     S
Cu228  O257    1.972   .     S
Cu228  O261    1.973   .     S
Cu228  N246    2.013   .     S
Cu228  O255    1.971   .     S
Cu228  O259    1.979   .     S
H230   C812    1.082   1_554 S
H233   O262    0.992   .     S
H234   O250    0.991   .     S
H235   O251    0.992   .     S
H236   O254    0.990   .     S
H242   C809    1.083   .     S
O248   S263    1.501   .     D
O249   S263    1.505   .     D
O250   S263    1.682   .     S
O252   S264    1.503   .     D
O253   S264    1.504   .     D
O254   S264    1.679   .     S
C265   O321    1.300   .     A
C265   C273    1.472   .     S
C265   O313    1.294   .     A
C266   C286    1.422   .     A
C266   C268    1.481   .     S
C266   C283    1.406   .     A
C267   C273    1.407   .     A
C267   H298    1.083   .     S
C267   C467    1.387   .     S
C268   O323    1.299   .     A
C268   O322    1.298   .     A
C269   H303    1.083   .     S
C269   C270    1.398   .     A
C270   C271    1.408   .     A
C270   C279    1.459   .     S
C271   O328    1.379   .     S
C272   S329    1.771   .     S
C272   C273    1.421   .     A
C272   C469    1.388   .     S
C274   N312    1.372   .     A
C274   O317    1.373   .     S
C274   C341    1.419   .     S
C275   N311    1.356   .     A
C275   H304    1.071   .     S
C276   C286    1.413   .     A
C276   C879    1.409   .     S
C276   C881    1.417   .     S
C277   H305    1.080   .     S
C277   N311    1.368   .     A
C278   H306    1.082   .     S
C278   N312    1.366   .     A
C278   C343    1.417   .     S
C279   O324    1.293   .     A
C279   O325    1.295   .     A
C280   O327    1.298   .     A
C280   O326    1.293   .     A
C280   C282    1.467   .     S
C281   C292    1.394   .     A
C281   C882    1.399   1_554 S
C281   H902    1.083   1_554 S
C282   C292    1.406   .     A
C282   C291    1.413   .     A
C283   H309    1.083   .     S
C283   C284    1.391   .     A
C284   C879    1.391   .     S
C284   H890    1.082   .     S
C285   H310    1.079   .     S
C285   C878    1.391   1_554 S
C285   C870    1.409   1_554 S
C286   C290    1.406   .     A
C287   C291    1.400   .     A
C287   C870    1.417   1_554 S
C287   C882    1.412   1_554 S
C288   C289    1.391   .     A
C288   C875    1.399   .     S
C288   C881    1.412   .     S
C289   H307    1.084   .     S
C289   C290    1.390   .     A
C290   H297    1.065   .     S
C291   S330    1.788   .     S
C292   H295    1.083   .     S
Cu293  O324    1.971   .     S
Cu293  O313    1.979   .     S
Cu293  Cu294   2.679   .     S
Cu293  N311    2.014   .     S
Cu293  O322    1.973   .     S
Cu293  O326    1.972   .     S
Cu294  O323    1.972   .     S
Cu294  O327    1.973   .     S
Cu294  N312    2.013   .     S
Cu294  O321    1.971   .     S
Cu294  O325    1.979   .     S
H296   C878    1.082   1_554 S
H299   O328    0.992   .     S
H300   O316    0.991   .     S
H301   O317    0.992   .     S
H302   O320    0.990   .     S
H308   C875    1.083   .     S
O314   S329    1.501   .     D
O315   S329    1.505   .     D
O316   S329    1.682   .     S
O318   S330    1.503   .     D
O319   S330    1.504   .     D
O320   S330    1.679   .     S
C331   O387    1.300   .     A
C331   C339    1.472   .     S
C331   O379    1.294   .     A
C332   C352    1.422   .     A
C332   C334    1.481   .     S
C332   C349    1.406   .     A
C333   C339    1.407   .     A
C333   H364    1.083   .     S
C333   C533    1.387   .     S
C334   O389    1.299   .     A
C334   O388    1.298   .     A
C335   H369    1.083   .     S
C335   C336    1.398   .     A
C336   C337    1.408   .     A
C336   C345    1.459   .     S
C337   O394    1.379   .     S
C338   S395    1.771   .     S
C338   C339    1.421   .     A
C338   C535    1.388   .     S
C340   N378    1.372   .     A
C340   O383    1.373   .     S
C340   C209    1.419   1_655 S
C341   N377    1.356   .     A
C341   H370    1.071   .     S
C342   C352    1.413   .     A
C342   C945    1.409   .     S
C342   C947    1.417   .     S
C343   H371    1.080   .     S
C343   N377    1.368   .     A
C344   H372    1.082   .     S
C344   N378    1.366   .     A
C344   C211    1.417   1_655 S
C345   O390    1.293   .     A
C345   O391    1.295   .     A
C346   O393    1.298   .     A
C346   O392    1.293   .     A
C346   C348    1.467   .     S
C347   C358    1.394   .     A
C347   C948    1.399   1_554 S
C347   H968    1.083   1_554 S
C348   C358    1.406   .     A
C348   C357    1.413   .     A
C349   H375    1.083   .     S
C349   C350    1.391   .     A
C350   C945    1.391   .     S
C350   H956    1.082   .     S
C351   H376    1.079   .     S
C351   C944    1.391   1_554 S
C351   C936    1.409   1_554 S
C352   C356    1.406   .     A
C353   C357    1.400   .     A
C353   C936    1.417   1_554 S
C353   C948    1.412   1_554 S
C354   C355    1.391   .     A
C354   C941    1.399   .     S
C354   C947    1.412   .     S
C355   H373    1.084   .     S
C355   C356    1.390   .     A
C356   H363    1.065   .     S
C357   S396    1.788   .     S
C358   H361    1.083   .     S
Cu359  O390    1.971   .     S
Cu359  O379    1.979   .     S
Cu359  Cu360   2.679   .     S
Cu359  N377    2.014   .     S
Cu359  O388    1.973   .     S
Cu359  O392    1.972   .     S
Cu360  O389    1.972   .     S
Cu360  O393    1.973   .     S
Cu360  N378    2.013   .     S
Cu360  O387    1.971   .     S
Cu360  O391    1.979   .     S
H362   C944    1.082   1_554 S
H365   O394    0.992   .     S
H366   O382    0.991   .     S
H367   O383    0.992   .     S
H368   O386    0.990   .     S
H374   C941    1.083   .     S
O380   S395    1.501   .     D
O381   S395    1.505   .     D
O382   S395    1.682   .     S
O384   S396    1.503   .     D
O385   S396    1.504   .     D
O386   S396    1.679   .     S
C397   O453    1.300   .     A
C397   C405    1.472   .     S
C397   O445    1.294   .     A
C398   C418    1.422   .     A
C398   C400    1.481   .     S
C398   C415    1.406   .     A
C399   C405    1.407   .     A
C399   H430    1.083   .     S
C399   C5      1.387   1_565 S
C400   O455    1.299   .     A
C400   O454    1.298   .     A
C401   H435    1.083   .     S
C401   C402    1.398   .     A
C402   C403    1.408   .     A
C402   C411    1.459   .     S
C403   O460    1.379   .     S
C404   S461    1.771   .     S
C404   C405    1.421   .     A
C404   C7      1.388   1_565 S
C406   N444    1.372   .     A
C406   O449    1.373   .     S
C406   C473    1.419   .     S
C407   N443    1.356   .     A
C407   H436    1.071   .     S
C407   C538    1.419   1_455 S
C408   C418    1.413   .     A
C408   C1011   1.409   .     S
C408   C1013   1.417   .     S
C409   H437    1.080   .     S
C409   N443    1.368   .     A
C409   C542    1.417   1_455 S
C410   H438    1.082   .     S
C410   N444    1.366   .     A
C410   C475    1.417   .     S
C411   O456    1.293   .     A
C411   O457    1.295   .     A
C412   O459    1.298   .     A
C412   O458    1.293   .     A
C412   C414    1.467   .     S
C413   C424    1.394   .     A
C413   C1014   1.399   1_554 S
C413   H1034   1.083   1_554 S
C414   C424    1.406   .     A
C414   C423    1.413   .     A
C415   H441    1.083   .     S
C415   C416    1.391   .     A
C416   C1011   1.391   .     S
C416   H1022   1.082   .     S
C417   H442    1.079   .     S
C417   C1010   1.391   1_554 S
C417   C1002   1.409   1_554 S
C418   C422    1.406   .     A
C419   C423    1.400   .     A
C419   C1002   1.417   1_554 S
C419   C1014   1.412   1_554 S
C420   C421    1.391   .     A
C420   C1007   1.399   .     S
C420   C1013   1.412   .     S
C421   H439    1.084   .     S
C421   C422    1.390   .     A
C422   H429    1.065   .     S
C423   S462    1.788   .     S
C424   H427    1.083   .     S
Cu425  O456    1.971   .     S
Cu425  O445    1.979   .     S
Cu425  Cu426   2.679   .     S
Cu425  N443    2.014   .     S
Cu425  O454    1.973   .     S
Cu425  O458    1.972   .     S
Cu426  O455    1.972   .     S
Cu426  O459    1.973   .     S
Cu426  N444    2.013   .     S
Cu426  O453    1.971   .     S
Cu426  O457    1.979   .     S
H428   C1010   1.082   1_554 S
H431   O460    0.992   .     S
H432   O448    0.991   .     S
H433   O449    0.992   .     S
H434   O452    0.990   .     S
H440   C1007   1.083   .     S
O446   S461    1.501   .     D
O447   S461    1.505   .     D
O448   S461    1.682   .     S
O450   S462    1.503   .     D
O451   S462    1.504   .     D
O452   S462    1.679   .     S
C463   O519    1.300   .     A
C463   C471    1.472   .     S
C463   O511    1.294   .     A
C464   C484    1.422   .     A
C464   C466    1.481   .     S
C464   C481    1.406   .     A
C465   C471    1.407   .     A
C465   H496    1.083   .     S
C465   C71     1.387   1_565 S
C466   O521    1.299   .     A
C466   O520    1.298   .     A
C467   H501    1.083   .     S
C467   C468    1.398   .     A
C468   C469    1.408   .     A
C468   C477    1.459   .     S
C469   O526    1.379   .     S
C470   S527    1.771   .     S
C470   C471    1.421   .     A
C470   C73     1.388   1_565 S
C472   N510    1.372   .     A
C472   O515    1.373   .     S
C472   C539    1.419   .     S
C473   N509    1.356   .     A
C473   H502    1.071   .     S
C474   C484    1.413   .     A
C474   C1077   1.409   .     S
C474   C1079   1.417   .     S
C475   H503    1.080   .     S
C475   N509    1.368   .     A
C476   H504    1.082   .     S
C476   N510    1.366   .     A
C476   C541    1.417   .     S
C477   O522    1.293   .     A
C477   O523    1.295   .     A
C478   O525    1.298   .     A
C478   O524    1.293   .     A
C478   C480    1.467   .     S
C479   C490    1.394   .     A
C479   C1080   1.399   1_554 S
C479   H1100   1.083   1_554 S
C480   C490    1.406   .     A
C480   C489    1.413   .     A
C481   H507    1.083   .     S
C481   C482    1.391   .     A
C482   C1077   1.391   .     S
C482   H1088   1.082   .     S
C483   H508    1.079   .     S
C483   C1076   1.391   1_554 S
C483   C1068   1.409   1_554 S
C484   C488    1.406   .     A
C485   C489    1.400   .     A
C485   C1068   1.417   1_554 S
C485   C1080   1.412   1_554 S
C486   C487    1.391   .     A
C486   C1073   1.399   .     S
C486   C1079   1.412   .     S
C487   H505    1.084   .     S
C487   C488    1.390   .     A
C488   H495    1.065   .     S
C489   S528    1.788   .     S
C490   H493    1.083   .     S
Cu491  O522    1.971   .     S
Cu491  O511    1.979   .     S
Cu491  Cu492   2.679   .     S
Cu491  N509    2.014   .     S
Cu491  O520    1.973   .     S
Cu491  O524    1.972   .     S
Cu492  O521    1.972   .     S
Cu492  O525    1.973   .     S
Cu492  N510    2.013   .     S
Cu492  O519    1.971   .     S
Cu492  O523    1.979   .     S
H494   C1076   1.082   1_554 S
H497   O526    0.992   .     S
H498   O514    0.991   .     S
H499   O515    0.992   .     S
H500   O518    0.990   .     S
H506   C1073   1.083   .     S
O512   S527    1.501   .     D
O513   S527    1.505   .     D
O514   S527    1.682   .     S
O516   S528    1.503   .     D
O517   S528    1.504   .     D
O518   S528    1.679   .     S
C529   O585    1.300   .     A
C529   C537    1.472   .     S
C529   O577    1.294   .     A
C530   C550    1.422   .     A
C530   C532    1.481   .     S
C530   C547    1.406   .     A
C531   C537    1.407   .     A
C531   H562    1.083   .     S
C531   C137    1.387   1_565 S
C532   O587    1.299   .     A
C532   O586    1.298   .     A
C533   H567    1.083   .     S
C533   C534    1.398   .     A
C534   C535    1.408   .     A
C534   C543    1.459   .     S
C535   O592    1.379   .     S
C536   S593    1.771   .     S
C536   C537    1.421   .     A
C536   C139    1.388   1_565 S
C538   N576    1.372   .     A
C538   O581    1.373   .     S
C538   C407    1.419   1_655 S
C539   N575    1.356   .     A
C539   H568    1.071   .     S
C540   C550    1.413   .     A
C540   C1143   1.409   .     S
C540   C1145   1.417   .     S
C541   H569    1.080   .     S
C541   N575    1.368   .     A
C542   H570    1.082   .     S
C542   N576    1.366   .     A
C542   C409    1.417   1_655 S
C543   O588    1.293   .     A
C543   O589    1.295   .     A
C544   O591    1.298   .     A
C544   O590    1.293   .     A
C544   C546    1.467   .     S
C545   C556    1.394   .     A
C545   C1146   1.399   1_554 S
C545   H1166   1.083   1_554 S
C546   C556    1.406   .     A
C546   C555    1.413   .     A
C547   H573    1.083   .     S
C547   C548    1.391   .     A
C548   C1143   1.391   .     S
C548   H1154   1.082   .     S
C549   H574    1.079   .     S
C549   C1142   1.391   1_554 S
C549   C1134   1.409   1_554 S
C550   C554    1.406   .     A
C551   C555    1.400   .     A
C551   C1134   1.417   1_554 S
C551   C1146   1.412   1_554 S
C552   C553    1.391   .     A
C552   C1139   1.399   .     S
C552   C1145   1.412   .     S
C553   H571    1.084   .     S
C553   C554    1.390   .     A
C554   H561    1.065   .     S
C555   S594    1.788   .     S
C556   H559    1.083   .     S
Cu557  O588    1.971   .     S
Cu557  O577    1.979   .     S
Cu557  Cu558   2.679   .     S
Cu557  N575    2.014   .     S
Cu557  O586    1.973   .     S
Cu557  O590    1.972   .     S
Cu558  O587    1.972   .     S
Cu558  O591    1.973   .     S
Cu558  N576    2.013   .     S
Cu558  O585    1.971   .     S
Cu558  O589    1.979   .     S
H560   C1142   1.082   1_554 S
H563   O592    0.992   .     S
H564   O580    0.991   .     S
H565   O581    0.992   .     S
H566   O584    0.990   .     S
H572   C1139   1.083   .     S
O578   S593    1.501   .     D
O579   S593    1.505   .     D
O580   S593    1.682   .     S
O582   S594    1.503   .     D
O583   S594    1.504   .     D
O584   S594    1.679   .     S
C595   O651    1.300   .     A
C595   C603    1.472   .     S
C595   O643    1.294   .     A
C596   C616    1.422   .     A
C596   C598    1.481   .     S
C596   C613    1.406   .     A
C597   C603    1.407   .     A
C597   H628    1.083   .     S
C597   C797    1.387   .     S
C598   O653    1.299   .     A
C598   O652    1.298   .     A
C599   H633    1.083   .     S
C599   C600    1.398   .     A
C599   C993    1.387   1_545 S
C600   C601    1.408   .     A
C600   C609    1.459   .     S
C601   O658    1.379   .     S
C601   C998    1.388   1_545 S
C602   S659    1.771   .     S
C602   C603    1.421   .     A
C602   C799    1.388   .     S
C604   N642    1.372   .     A
C604   O647    1.373   .     S
C604   C671    1.419   .     S
C605   N641    1.356   .     A
C605   H634    1.071   .     S
C605   C736    1.419   1_455 S
C606   C616    1.413   .     A
C606   C21     1.409   1_556 S
C606   C23     1.417   1_556 S
C607   H635    1.080   .     S
C607   N641    1.368   .     A
C607   C740    1.417   1_455 S
C608   H636    1.082   .     S
C608   N642    1.366   .     A
C608   C673    1.417   .     S
C609   O654    1.293   .     A
C609   O655    1.295   .     A
C610   O657    1.298   .     A
C610   O656    1.293   .     A
C610   C612    1.467   .     S
C611   C622    1.394   .     A
C612   C622    1.406   .     A
C612   C621    1.413   .     A
C613   H639    1.083   .     S
C613   C614    1.391   .     A
C614   C21     1.391   1_556 S
C614   H32     1.082   1_556 S
C615   H640    1.079   .     S
C616   C620    1.406   .     A
C617   C621    1.400   .     A
C618   C619    1.391   .     A
C618   C17     1.399   1_556 S
C618   C23     1.412   1_556 S
C619   H637    1.084   .     S
C619   C620    1.390   .     A
C620   H627    1.065   .     S
C621   S660    1.788   .     S
C622   H625    1.083   .     S
Cu623  O654    1.971   .     S
Cu623  O643    1.979   .     S
Cu623  Cu624   2.679   .     S
Cu623  N641    2.014   .     S
Cu623  O652    1.973   .     S
Cu623  O656    1.972   .     S
Cu624  O653    1.972   .     S
Cu624  O657    1.973   .     S
Cu624  N642    2.013   .     S
Cu624  O651    1.971   .     S
Cu624  O655    1.979   .     S
H629   O658    0.992   .     S
H630   O646    0.991   .     S
H631   O647    0.992   .     S
H632   O650    0.990   .     S
H638   C17     1.083   1_556 S
O644   S659    1.501   .     D
O645   S659    1.505   .     D
O646   S659    1.682   .     S
O648   S660    1.503   .     D
O649   S660    1.504   .     D
O650   S660    1.679   .     S
C661   O717    1.300   .     A
C661   C669    1.472   .     S
C661   O709    1.294   .     A
C662   C682    1.422   .     A
C662   C664    1.481   .     S
C662   C679    1.406   .     A
C663   C669    1.407   .     A
C663   H694    1.083   .     S
C663   C863    1.387   .     S
C664   O719    1.299   .     A
C664   O718    1.298   .     A
C665   H699    1.083   .     S
C665   C666    1.398   .     A
C665   C1059   1.387   1_545 S
C666   C667    1.408   .     A
C666   C675    1.459   .     S
C667   O724    1.379   .     S
C667   C1064   1.388   1_545 S
C668   S725    1.771   .     S
C668   C669    1.421   .     A
C668   C865    1.388   .     S
C670   N708    1.372   .     A
C670   O713    1.373   .     S
C670   C737    1.419   .     S
C671   N707    1.356   .     A
C671   H700    1.071   .     S
C672   C682    1.413   .     A
C672   C87     1.409   1_556 S
C672   C89     1.417   1_556 S
C673   H701    1.080   .     S
C673   N707    1.368   .     A
C674   H702    1.082   .     S
C674   N708    1.366   .     A
C674   C739    1.417   .     S
C675   O720    1.293   .     A
C675   O721    1.295   .     A
C676   O723    1.298   .     A
C676   O722    1.293   .     A
C676   C678    1.467   .     S
C677   C688    1.394   .     A
C678   C688    1.406   .     A
C678   C687    1.413   .     A
C679   H705    1.083   .     S
C679   C680    1.391   .     A
C680   C87     1.391   1_556 S
C680   H98     1.082   1_556 S
C681   H706    1.079   .     S
C682   C686    1.406   .     A
C683   C687    1.400   .     A
C684   C685    1.391   .     A
C684   C83     1.399   1_556 S
C684   C89     1.412   1_556 S
C685   H703    1.084   .     S
C685   C686    1.390   .     A
C686   H693    1.065   .     S
C687   S726    1.788   .     S
C688   H691    1.083   .     S
Cu689  O720    1.971   .     S
Cu689  O709    1.979   .     S
Cu689  Cu690   2.679   .     S
Cu689  N707    2.014   .     S
Cu689  O718    1.973   .     S
Cu689  O722    1.972   .     S
Cu690  O719    1.972   .     S
Cu690  O723    1.973   .     S
Cu690  N708    2.013   .     S
Cu690  O717    1.971   .     S
Cu690  O721    1.979   .     S
H695   O724    0.992   .     S
H696   O712    0.991   .     S
H697   O713    0.992   .     S
H698   O716    0.990   .     S
H704   C83     1.083   1_556 S
O710   S725    1.501   .     D
O711   S725    1.505   .     D
O712   S725    1.682   .     S
O714   S726    1.503   .     D
O715   S726    1.504   .     D
O716   S726    1.679   .     S
C727   O783    1.300   .     A
C727   C735    1.472   .     S
C727   O775    1.294   .     A
C728   C748    1.422   .     A
C728   C730    1.481   .     S
C728   C745    1.406   .     A
C729   C735    1.407   .     A
C729   H760    1.083   .     S
C729   C929    1.387   .     S
C730   O785    1.299   .     A
C730   O784    1.298   .     A
C731   H765    1.083   .     S
C731   C732    1.398   .     A
C731   C1125   1.387   1_545 S
C732   C733    1.408   .     A
C732   C741    1.459   .     S
C733   O790    1.379   .     S
C733   C1130   1.388   1_545 S
C734   S791    1.771   .     S
C734   C735    1.421   .     A
C734   C931    1.388   .     S
C736   N774    1.372   .     A
C736   O779    1.373   .     S
C736   C605    1.419   1_655 S
C737   N773    1.356   .     A
C737   H766    1.071   .     S
C738   C748    1.413   .     A
C738   C153    1.409   1_556 S
C738   C155    1.417   1_556 S
C739   H767    1.080   .     S
C739   N773    1.368   .     A
C740   H768    1.082   .     S
C740   N774    1.366   .     A
C740   C607    1.417   1_655 S
C741   O786    1.293   .     A
C741   O787    1.295   .     A
C742   O789    1.298   .     A
C742   O788    1.293   .     A
C742   C744    1.467   .     S
C743   C754    1.394   .     A
C744   C754    1.406   .     A
C744   C753    1.413   .     A
C745   H771    1.083   .     S
C745   C746    1.391   .     A
C746   C153    1.391   1_556 S
C746   H164    1.082   1_556 S
C747   H772    1.079   .     S
C748   C752    1.406   .     A
C749   C753    1.400   .     A
C750   C751    1.391   .     A
C750   C149    1.399   1_556 S
C750   C155    1.412   1_556 S
C751   H769    1.084   .     S
C751   C752    1.390   .     A
C752   H759    1.065   .     S
C753   S792    1.788   .     S
C754   H757    1.083   .     S
Cu755  O786    1.971   .     S
Cu755  O775    1.979   .     S
Cu755  Cu756   2.679   .     S
Cu755  N773    2.014   .     S
Cu755  O784    1.973   .     S
Cu755  O788    1.972   .     S
Cu756  O785    1.972   .     S
Cu756  O789    1.973   .     S
Cu756  N774    2.013   .     S
Cu756  O783    1.971   .     S
Cu756  O787    1.979   .     S
H761   O790    0.992   .     S
H762   O778    0.991   .     S
H763   O779    0.992   .     S
H764   O782    0.990   .     S
H770   C149    1.083   1_556 S
O776   S791    1.501   .     D
O777   S791    1.505   .     D
O778   S791    1.682   .     S
O780   S792    1.503   .     D
O781   S792    1.504   .     D
O782   S792    1.679   .     S
C793   O849    1.300   .     A
C793   C801    1.472   .     S
C793   O841    1.294   .     A
C794   C814    1.422   .     A
C794   C796    1.481   .     S
C794   C811    1.406   .     A
C795   C801    1.407   .     A
C795   H826    1.083   .     S
C795   C995    1.387   .     S
C796   O851    1.299   .     A
C796   O850    1.298   .     A
C797   H831    1.083   .     S
C797   C798    1.398   .     A
C798   C799    1.408   .     A
C798   C807    1.459   .     S
C799   O856    1.379   .     S
C800   S857    1.771   .     S
C800   C801    1.421   .     A
C800   C997    1.388   .     S
C802   N840    1.372   .     A
C802   O845    1.373   .     S
C802   C869    1.419   .     S
C803   N839    1.356   .     A
C803   H832    1.071   .     S
C803   C934    1.419   1_455 S
C804   C814    1.413   .     A
C804   C219    1.409   1_556 S
C804   C221    1.417   1_556 S
C805   H833    1.080   .     S
C805   N839    1.368   .     A
C805   C938    1.417   1_455 S
C806   H834    1.082   .     S
C806   N840    1.366   .     A
C806   C871    1.417   .     S
C807   O852    1.293   .     A
C807   O853    1.295   .     A
C808   O855    1.298   .     A
C808   O854    1.293   .     A
C808   C810    1.467   .     S
C809   C820    1.394   .     A
C810   C820    1.406   .     A
C810   C819    1.413   .     A
C811   H837    1.083   .     S
C811   C812    1.391   .     A
C812   C219    1.391   1_556 S
C812   H230    1.082   1_556 S
C813   H838    1.079   .     S
C814   C818    1.406   .     A
C815   C819    1.400   .     A
C816   C817    1.391   .     A
C816   C215    1.399   1_556 S
C816   C221    1.412   1_556 S
C817   H835    1.084   .     S
C817   C818    1.390   .     A
C818   H825    1.065   .     S
C819   S858    1.788   .     S
C820   H823    1.083   .     S
Cu821  O852    1.971   .     S
Cu821  O841    1.979   .     S
Cu821  Cu822   2.679   .     S
Cu821  N839    2.014   .     S
Cu821  O850    1.973   .     S
Cu821  O854    1.972   .     S
Cu822  O851    1.972   .     S
Cu822  O855    1.973   .     S
Cu822  N840    2.013   .     S
Cu822  O849    1.971   .     S
Cu822  O853    1.979   .     S
H827   O856    0.992   .     S
H828   O844    0.991   .     S
H829   O845    0.992   .     S
H830   O848    0.990   .     S
H836   C215    1.083   1_556 S
O842   S857    1.501   .     D
O843   S857    1.505   .     D
O844   S857    1.682   .     S
O846   S858    1.503   .     D
O847   S858    1.504   .     D
O848   S858    1.679   .     S
C859   O915    1.300   .     A
C859   C867    1.472   .     S
C859   O907    1.294   .     A
C860   C880    1.422   .     A
C860   C862    1.481   .     S
C860   C877    1.406   .     A
C861   C867    1.407   .     A
C861   H892    1.083   .     S
C861   C1061   1.387   .     S
C862   O917    1.299   .     A
C862   O916    1.298   .     A
C863   H897    1.083   .     S
C863   C864    1.398   .     A
C864   C865    1.408   .     A
C864   C873    1.459   .     S
C865   O922    1.379   .     S
C866   S923    1.771   .     S
C866   C867    1.421   .     A
C866   C1063   1.388   .     S
C868   N906    1.372   .     A
C868   O911    1.373   .     S
C868   C935    1.419   .     S
C869   N905    1.356   .     A
C869   H898    1.071   .     S
C870   C880    1.413   .     A
C870   C285    1.409   1_556 S
C870   C287    1.417   1_556 S
C871   H899    1.080   .     S
C871   N905    1.368   .     A
C872   H900    1.082   .     S
C872   N906    1.366   .     A
C872   C937    1.417   .     S
C873   O918    1.293   .     A
C873   O919    1.295   .     A
C874   O921    1.298   .     A
C874   O920    1.293   .     A
C874   C876    1.467   .     S
C875   C886    1.394   .     A
C876   C886    1.406   .     A
C876   C885    1.413   .     A
C877   H903    1.083   .     S
C877   C878    1.391   .     A
C878   C285    1.391   1_556 S
C878   H296    1.082   1_556 S
C879   H904    1.079   .     S
C880   C884    1.406   .     A
C881   C885    1.400   .     A
C882   C883    1.391   .     A
C882   C281    1.399   1_556 S
C882   C287    1.412   1_556 S
C883   H901    1.084   .     S
C883   C884    1.390   .     A
C884   H891    1.065   .     S
C885   S924    1.788   .     S
C886   H889    1.083   .     S
Cu887  O918    1.971   .     S
Cu887  O907    1.979   .     S
Cu887  Cu888   2.679   .     S
Cu887  N905    2.014   .     S
Cu887  O916    1.973   .     S
Cu887  O920    1.972   .     S
Cu888  O917    1.972   .     S
Cu888  O921    1.973   .     S
Cu888  N906    2.013   .     S
Cu888  O915    1.971   .     S
Cu888  O919    1.979   .     S
H893   O922    0.992   .     S
H894   O910    0.991   .     S
H895   O911    0.992   .     S
H896   O914    0.990   .     S
H902   C281    1.083   1_556 S
O908   S923    1.501   .     D
O909   S923    1.505   .     D
O910   S923    1.682   .     S
O912   S924    1.503   .     D
O913   S924    1.504   .     D
O914   S924    1.679   .     S
C925   O981    1.300   .     A
C925   C933    1.472   .     S
C925   O973    1.294   .     A
C926   C946    1.422   .     A
C926   C928    1.481   .     S
C926   C943    1.406   .     A
C927   C933    1.407   .     A
C927   H958    1.083   .     S
C927   C1127   1.387   .     S
C928   O983    1.299   .     A
C928   O982    1.298   .     A
C929   H963    1.083   .     S
C929   C930    1.398   .     A
C930   C931    1.408   .     A
C930   C939    1.459   .     S
C931   O988    1.379   .     S
C932   S989    1.771   .     S
C932   C933    1.421   .     A
C932   C1129   1.388   .     S
C934   N972    1.372   .     A
C934   O977    1.373   .     S
C934   C803    1.419   1_655 S
C935   N971    1.356   .     A
C935   H964    1.071   .     S
C936   C946    1.413   .     A
C936   C351    1.409   1_556 S
C936   C353    1.417   1_556 S
C937   H965    1.080   .     S
C937   N971    1.368   .     A
C938   H966    1.082   .     S
C938   N972    1.366   .     A
C938   C805    1.417   1_655 S
C939   O984    1.293   .     A
C939   O985    1.295   .     A
C940   O987    1.298   .     A
C940   O986    1.293   .     A
C940   C942    1.467   .     S
C941   C952    1.394   .     A
C942   C952    1.406   .     A
C942   C951    1.413   .     A
C943   H969    1.083   .     S
C943   C944    1.391   .     A
C944   C351    1.391   1_556 S
C944   H362    1.082   1_556 S
C945   H970    1.079   .     S
C946   C950    1.406   .     A
C947   C951    1.400   .     A
C948   C949    1.391   .     A
C948   C347    1.399   1_556 S
C948   C353    1.412   1_556 S
C949   H967    1.084   .     S
C949   C950    1.390   .     A
C950   H957    1.065   .     S
C951   S990    1.788   .     S
C952   H955    1.083   .     S
Cu953  O984    1.971   .     S
Cu953  O973    1.979   .     S
Cu953  Cu954   2.679   .     S
Cu953  N971    2.014   .     S
Cu953  O982    1.973   .     S
Cu953  O986    1.972   .     S
Cu954  O983    1.972   .     S
Cu954  O987    1.973   .     S
Cu954  N972    2.013   .     S
Cu954  O981    1.971   .     S
Cu954  O985    1.979   .     S
H959   O988    0.992   .     S
H960   O976    0.991   .     S
H961   O977    0.992   .     S
H962   O980    0.990   .     S
H968   C347    1.083   1_556 S
O974   S989    1.501   .     D
O975   S989    1.505   .     D
O976   S989    1.682   .     S
O978   S990    1.503   .     D
O979   S990    1.504   .     D
O980   S990    1.679   .     S
C991   O1047   1.300   .     A
C991   C999    1.472   .     S
C991   O1039   1.294   .     A
C992   C1012   1.422   .     A
C992   C994    1.481   .     S
C992   C1009   1.406   .     A
C993   C999    1.407   .     A
C993   H1024   1.083   .     S
C993   C599    1.387   1_565 S
C994   O1049   1.299   .     A
C994   O1048   1.298   .     A
C995   H1029   1.083   .     S
C995   C996    1.398   .     A
C996   C997    1.408   .     A
C996   C1005   1.459   .     S
C997   O1054   1.379   .     S
C998   S1055   1.771   .     S
C998   C999    1.421   .     A
C998   C601    1.388   1_565 S
C1000  N1038   1.372   .     A
C1000  O1043   1.373   .     S
C1000  C1067   1.419   .     S
C1001  N1037   1.356   .     A
C1001  H1030   1.071   .     S
C1001  C1132   1.419   1_455 S
C1002  C1012   1.413   .     A
C1002  C417    1.409   1_556 S
C1002  C419    1.417   1_556 S
C1003  H1031   1.080   .     S
C1003  N1037   1.368   .     A
C1003  C1136   1.417   1_455 S
C1004  H1032   1.082   .     S
C1004  N1038   1.366   .     A
C1004  C1069   1.417   .     S
C1005  O1050   1.293   .     A
C1005  O1051   1.295   .     A
C1006  O1053   1.298   .     A
C1006  O1052   1.293   .     A
C1006  C1008   1.467   .     S
C1007  C1018   1.394   .     A
C1008  C1018   1.406   .     A
C1008  C1017   1.413   .     A
C1009  H1035   1.083   .     S
C1009  C1010   1.391   .     A
C1010  C417    1.391   1_556 S
C1010  H428    1.082   1_556 S
C1011  H1036   1.079   .     S
C1012  C1016   1.406   .     A
C1013  C1017   1.400   .     A
C1014  C1015   1.391   .     A
C1014  C413    1.399   1_556 S
C1014  C419    1.412   1_556 S
C1015  H1033   1.084   .     S
C1015  C1016   1.390   .     A
C1016  H1023   1.065   .     S
C1017  S1056   1.788   .     S
C1018  H1021   1.083   .     S
Cu1019 O1050   1.971   .     S
Cu1019 O1039   1.979   .     S
Cu1019 Cu1020  2.679   .     S
Cu1019 N1037   2.014   .     S
Cu1019 O1048   1.973   .     S
Cu1019 O1052   1.972   .     S
Cu1020 O1049   1.972   .     S
Cu1020 O1053   1.973   .     S
Cu1020 N1038   2.013   .     S
Cu1020 O1047   1.971   .     S
Cu1020 O1051   1.979   .     S
H1025  O1054   0.992   .     S
H1026  O1042   0.991   .     S
H1027  O1043   0.992   .     S
H1028  O1046   0.990   .     S
H1034  C413    1.083   1_556 S
O1040  S1055   1.501   .     D
O1041  S1055   1.505   .     D
O1042  S1055   1.682   .     S
O1044  S1056   1.503   .     D
O1045  S1056   1.504   .     D
O1046  S1056   1.679   .     S
C1057  O1113   1.300   .     A
C1057  C1065   1.472   .     S
C1057  O1105   1.294   .     A
C1058  C1078   1.422   .     A
C1058  C1060   1.481   .     S
C1058  C1075   1.406   .     A
C1059  C1065   1.407   .     A
C1059  H1090   1.083   .     S
C1059  C665    1.387   1_565 S
C1060  O1115   1.299   .     A
C1060  O1114   1.298   .     A
C1061  H1095   1.083   .     S
C1061  C1062   1.398   .     A
C1062  C1063   1.408   .     A
C1062  C1071   1.459   .     S
C1063  O1120   1.379   .     S
C1064  S1121   1.771   .     S
C1064  C1065   1.421   .     A
C1064  C667    1.388   1_565 S
C1066  N1104   1.372   .     A
C1066  O1109   1.373   .     S
C1066  C1133   1.419   .     S
C1067  N1103   1.356   .     A
C1067  H1096   1.071   .     S
C1068  C1078   1.413   .     A
C1068  C483    1.409   1_556 S
C1068  C485    1.417   1_556 S
C1069  H1097   1.080   .     S
C1069  N1103   1.368   .     A
C1070  H1098   1.082   .     S
C1070  N1104   1.366   .     A
C1070  C1135   1.417   .     S
C1071  O1116   1.293   .     A
C1071  O1117   1.295   .     A
C1072  O1119   1.298   .     A
C1072  O1118   1.293   .     A
C1072  C1074   1.467   .     S
C1073  C1084   1.394   .     A
C1074  C1084   1.406   .     A
C1074  C1083   1.413   .     A
C1075  H1101   1.083   .     S
C1075  C1076   1.391   .     A
C1076  C483    1.391   1_556 S
C1076  H494    1.082   1_556 S
C1077  H1102   1.079   .     S
C1078  C1082   1.406   .     A
C1079  C1083   1.400   .     A
C1080  C1081   1.391   .     A
C1080  C479    1.399   1_556 S
C1080  C485    1.412   1_556 S
C1081  H1099   1.084   .     S
C1081  C1082   1.390   .     A
C1082  H1089   1.065   .     S
C1083  S1122   1.788   .     S
C1084  H1087   1.083   .     S
Cu1085 O1116   1.971   .     S
Cu1085 O1105   1.979   .     S
Cu1085 Cu1086  2.679   .     S
Cu1085 N1103   2.014   .     S
Cu1085 O1114   1.973   .     S
Cu1085 O1118   1.972   .     S
Cu1086 O1115   1.972   .     S
Cu1086 O1119   1.973   .     S
Cu1086 N1104   2.013   .     S
Cu1086 O1113   1.971   .     S
Cu1086 O1117   1.979   .     S
H1091  O1120   0.992   .     S
H1092  O1108   0.991   .     S
H1093  O1109   0.992   .     S
H1094  O1112   0.990   .     S
H1100  C479    1.083   1_556 S
O1106  S1121   1.501   .     D
O1107  S1121   1.505   .     D
O1108  S1121   1.682   .     S
O1110  S1122   1.503   .     D
O1111  S1122   1.504   .     D
O1112  S1122   1.679   .     S
C1123  O1179   1.300   .     A
C1123  C1131   1.472   .     S
C1123  O1171   1.294   .     A
C1124  C1144   1.422   .     A
C1124  C1126   1.481   .     S
C1124  C1141   1.406   .     A
C1125  C1131   1.407   .     A
C1125  H1156   1.083   .     S
C1125  C731    1.387   1_565 S
C1126  O1181   1.299   .     A
C1126  O1180   1.298   .     A
C1127  H1161   1.083   .     S
C1127  C1128   1.398   .     A
C1128  C1129   1.408   .     A
C1128  C1137   1.459   .     S
C1129  O1186   1.379   .     S
C1130  S1187   1.771   .     S
C1130  C1131   1.421   .     A
C1130  C733    1.388   1_565 S
C1132  N1170   1.372   .     A
C1132  O1175   1.373   .     S
C1132  C1001   1.419   1_655 S
C1133  N1169   1.356   .     A
C1133  H1162   1.071   .     S
C1134  C1144   1.413   .     A
C1134  C549    1.409   1_556 S
C1134  C551    1.417   1_556 S
C1135  H1163   1.080   .     S
C1135  N1169   1.368   .     A
C1136  H1164   1.082   .     S
C1136  N1170   1.366   .     A
C1136  C1003   1.417   1_655 S
C1137  O1182   1.293   .     A
C1137  O1183   1.295   .     A
C1138  O1185   1.298   .     A
C1138  O1184   1.293   .     A
C1138  C1140   1.467   .     S
C1139  C1150   1.394   .     A
C1140  C1150   1.406   .     A
C1140  C1149   1.413   .     A
C1141  H1167   1.083   .     S
C1141  C1142   1.391   .     A
C1142  C549    1.391   1_556 S
C1142  H560    1.082   1_556 S
C1143  H1168   1.079   .     S
C1144  C1148   1.406   .     A
C1145  C1149   1.400   .     A
C1146  C1147   1.391   .     A
C1146  C545    1.399   1_556 S
C1146  C551    1.412   1_556 S
C1147  H1165   1.084   .     S
C1147  C1148   1.390   .     A
C1148  H1155   1.065   .     S
C1149  S1188   1.788   .     S
C1150  H1153   1.083   .     S
Cu1151 O1182   1.971   .     S
Cu1151 O1171   1.979   .     S
Cu1151 Cu1152  2.679   .     S
Cu1151 N1169   2.014   .     S
Cu1151 O1180   1.973   .     S
Cu1151 O1184   1.972   .     S
Cu1152 O1181   1.972   .     S
Cu1152 O1185   1.973   .     S
Cu1152 N1170   2.013   .     S
Cu1152 O1179   1.971   .     S
Cu1152 O1183   1.979   .     S
H1157  O1186   0.992   .     S
H1158  O1174   0.991   .     S
H1159  O1175   0.992   .     S
H1160  O1178   0.990   .     S
H1166  C545    1.083   1_556 S
O1172  S1187   1.501   .     D
O1173  S1187   1.505   .     D
O1174  S1187   1.682   .     S
O1176  S1188   1.503   .     D
O1177  S1188   1.504   .     D
O1178  S1188   1.679   .     S
