data_str_m2_o1_o17_pcu_sym.208
_audit_creation_date              2020-01-03
_audit_creation_method            'Materials Studio'
_symmetry_space_group_name_H-M    'P1'
_symmetry_Int_Tables_number       1
_symmetry_cell_setting            triclinic
loop_
_symmetry_equiv_pos_as_xyz
  x,y,z
_cell_length_a                    32.4894
_cell_length_b                    28.5352
_cell_length_c                    30.1551
_cell_angle_alpha                 89.8812
_cell_angle_beta                  89.9133
_cell_angle_gamma                 90.0665
loop_
_atom_site_label
_atom_site_type_symbol
_atom_site_fract_x
_atom_site_fract_y
_atom_site_fract_z
_atom_site_U_iso_or_equiv
_atom_site_adp_type
_atom_site_occupancy
C1     C     0.08735   0.16665   0.24992   0.00000  Uiso   1.00
C2     C     0.24598   0.16668   0.25008   0.00000  Uiso   1.00
C3     C     0.13155   0.24250   0.02177   0.00000  Uiso   1.00
C4     C     0.20178   0.09084   0.47823   0.00000  Uiso   1.00
C5     C     0.02123   0.12424   0.25366   0.00000  Uiso   1.00
C6     C     0.31210   0.20909   0.24634   0.00000  Uiso   1.00
C7     C     0.31199   0.12427   0.25383   0.00000  Uiso   1.00
C8     C     0.02135   0.20907   0.24617   0.00000  Uiso   1.00
C9     C     0.29059   0.16669   0.25013   0.00000  Uiso   1.00
C10    C     0.04274   0.16664   0.24987   0.00000  Uiso   1.00
C11    C     0.14023   0.02483   0.22348   0.00000  Uiso   1.00
C12    C     0.19311   0.30850   0.27652   0.00000  Uiso   1.00
C13    C     0.19311   0.02479   0.27651   0.00000  Uiso   1.00
C14    C     0.14022   0.30854   0.22349   0.00000  Uiso   1.00
C15    C     0.16593   0.16673   0.16434   0.00000  Uiso   1.00
C16    C     0.16741   0.16661   0.33566   0.00000  Uiso   1.00
C17    C     0.18729   0.12922   0.40744   0.00000  Uiso   1.00
C18    C     0.14603   0.20410   0.09257   0.00000  Uiso   1.00
C19    C     0.16881   0.16656   0.38402   0.00000  Uiso   1.00
C20    C     0.16452   0.16677   0.11598   0.00000  Uiso   1.00
C21    C     0.15145   0.20435   0.40686   0.00000  Uiso   1.00
C22    C     0.18189   0.12899   0.09314   0.00000  Uiso   1.00
C23    C     0.15070   0.20475   0.45296   0.00000  Uiso   1.00
C24    C     0.18265   0.12859   0.04704   0.00000  Uiso   1.00
C25    C     0.16741   0.16667   0.47671   0.00000  Uiso   1.00
C26    C     0.16593   0.16667   0.02329   0.00000  Uiso   1.00
C27    C     0.18558   0.12863   0.45398   0.00000  Uiso   1.00
C28    C     0.14775   0.20471   0.04603   0.00000  Uiso   1.00
C29    C     0.13300   0.24246   0.47563   0.00000  Uiso   1.00
C30    C     0.20035   0.09088   0.02437   0.00000  Uiso   1.00
Cu31   Cu    0.16667   0.21355   0.25000   0.00000  Uiso   1.00
Cu32   Cu    0.16667   0.11978   0.25000   0.00000  Uiso   1.00
H33    H     0.13775   0.23318   0.38863   0.00000  Uiso   1.00
H34    H     0.19561   0.10017   0.11137   0.00000  Uiso   1.00
H35    H     0.12014   0.27191   0.45765   0.00000  Uiso   1.00
H36    H     0.21320   0.06143   0.04235   0.00000  Uiso   1.00
H37    H     0.11769   0.27221   0.03831   0.00000  Uiso   1.00
H38    H     0.21563   0.06112   0.46169   0.00000  Uiso   1.00
H39    H     0.03722   0.09109   0.25665   0.00000  Uiso   1.00
H40    H     0.29612   0.24224   0.24335   0.00000  Uiso   1.00
H41    H     0.29591   0.09114   0.25697   0.00000  Uiso   1.00
H42    H     0.03742   0.24219   0.24303   0.00000  Uiso   1.00
H43    H     0.11906   0.04357   0.20222   0.00000  Uiso   1.00
H44    H     0.21427   0.28977   0.29778   0.00000  Uiso   1.00
H45    H     0.21431   0.04348   0.29768   0.00000  Uiso   1.00
H46    H     0.11902   0.28985   0.20231   0.00000  Uiso   1.00
N47    N     0.16667   0.28402   0.25000   0.00000  Uiso   1.00
N48    N     0.16667   0.04931   0.25000   0.00000  Uiso   1.00
O49    O     0.10655   0.20625   0.24999   0.00000  Uiso   1.00
O50    O     0.22679   0.12709   0.25000   0.00000  Uiso   1.00
O51    O     0.22679   0.20625   0.25000   0.00000  Uiso   1.00
O52    O     0.10655   0.12709   0.24999   0.00000  Uiso   1.00
O53    O     0.16666   0.20627   0.18513   0.00000  Uiso   1.00
O54    O     0.16668   0.12707   0.31487   0.00000  Uiso   1.00
O55    O     0.16668   0.20627   0.31487   0.00000  Uiso   1.00
O56    O     0.16666   0.12707   0.18513   0.00000  Uiso   1.00
O57    O     0.20585   0.09264   0.38490   0.00000  Uiso   1.00
C58    C     0.24720   0.10495   0.37637   0.00000  Uiso   1.00
H59    H     0.24936   0.13603   0.35413   0.00000  Uiso   1.00
H60    H     0.26241   0.07528   0.35923   0.00000  Uiso   1.00
H61    H     0.26438   0.11151   0.40767   0.00000  Uiso   1.00
O62    O     0.12743   0.24066   0.11510   0.00000  Uiso   1.00
C63    C     0.08610   0.22829   0.12365   0.00000  Uiso   1.00
H64    H     0.07087   0.25792   0.14083   0.00000  Uiso   1.00
H65    H     0.08397   0.19718   0.14586   0.00000  Uiso   1.00
H66    H     0.06892   0.22175   0.09235   0.00000  Uiso   1.00
C67    C     0.42068   0.16665   0.24992   0.00000  Uiso   1.00
C68    C     0.57932   0.16668   0.25008   0.00000  Uiso   1.00
C69    C     0.46489   0.24250   0.02177   0.00000  Uiso   1.00
C70    C     0.53511   0.09084   0.47823   0.00000  Uiso   1.00
C71    C     0.35457   0.12424   0.25366   0.00000  Uiso   1.00
C72    C     0.64543   0.20909   0.24634   0.00000  Uiso   1.00
C73    C     0.64532   0.12427   0.25383   0.00000  Uiso   1.00
C74    C     0.35468   0.20907   0.24617   0.00000  Uiso   1.00
C75    C     0.62393   0.16669   0.25013   0.00000  Uiso   1.00
C76    C     0.37607   0.16664   0.24987   0.00000  Uiso   1.00
C77    C     0.47356   0.02483   0.22348   0.00000  Uiso   1.00
C78    C     0.52644   0.30850   0.27652   0.00000  Uiso   1.00
C79    C     0.52645   0.02479   0.27651   0.00000  Uiso   1.00
C80    C     0.47355   0.30854   0.22349   0.00000  Uiso   1.00
C81    C     0.49926   0.16673   0.16434   0.00000  Uiso   1.00
C82    C     0.50074   0.16661   0.33566   0.00000  Uiso   1.00
C83    C     0.52063   0.12922   0.40744   0.00000  Uiso   1.00
C84    C     0.47936   0.20410   0.09257   0.00000  Uiso   1.00
C85    C     0.50214   0.16656   0.38402   0.00000  Uiso   1.00
C86    C     0.49786   0.16677   0.11598   0.00000  Uiso   1.00
C87    C     0.48479   0.20435   0.40686   0.00000  Uiso   1.00
C88    C     0.51523   0.12899   0.09314   0.00000  Uiso   1.00
C89    C     0.48403   0.20475   0.45296   0.00000  Uiso   1.00
C90    C     0.51598   0.12859   0.04704   0.00000  Uiso   1.00
C91    C     0.50075   0.16667   0.47671   0.00000  Uiso   1.00
C92    C     0.49927   0.16667   0.02329   0.00000  Uiso   1.00
C93    C     0.51892   0.12863   0.45398   0.00000  Uiso   1.00
C94    C     0.48108   0.20471   0.04603   0.00000  Uiso   1.00
C95    C     0.46633   0.24246   0.47563   0.00000  Uiso   1.00
C96    C     0.53368   0.09088   0.02437   0.00000  Uiso   1.00
Cu97   Cu    0.50000   0.21355   0.25000   0.00000  Uiso   1.00
Cu98   Cu    0.50000   0.11978   0.25000   0.00000  Uiso   1.00
H99    H     0.47108   0.23318   0.38863   0.00000  Uiso   1.00
H100   H     0.52894   0.10017   0.11137   0.00000  Uiso   1.00
H101   H     0.45347   0.27191   0.45765   0.00000  Uiso   1.00
H102   H     0.54653   0.06143   0.04235   0.00000  Uiso   1.00
H103   H     0.45102   0.27221   0.03831   0.00000  Uiso   1.00
H104   H     0.54897   0.06112   0.46169   0.00000  Uiso   1.00
H105   H     0.37055   0.09109   0.25665   0.00000  Uiso   1.00
H106   H     0.62945   0.24224   0.24335   0.00000  Uiso   1.00
H107   H     0.62925   0.09114   0.25697   0.00000  Uiso   1.00
H108   H     0.37075   0.24219   0.24303   0.00000  Uiso   1.00
H109   H     0.45239   0.04357   0.20222   0.00000  Uiso   1.00
H110   H     0.54761   0.28977   0.29778   0.00000  Uiso   1.00
H111   H     0.54764   0.04348   0.29768   0.00000  Uiso   1.00
H112   H     0.45236   0.28985   0.20231   0.00000  Uiso   1.00
N113   N     0.50000   0.28402   0.25000   0.00000  Uiso   1.00
N114   N     0.50000   0.04931   0.25000   0.00000  Uiso   1.00
O115   O     0.43988   0.20625   0.24999   0.00000  Uiso   1.00
O116   O     0.56012   0.12709   0.25000   0.00000  Uiso   1.00
O117   O     0.56012   0.20625   0.25000   0.00000  Uiso   1.00
O118   O     0.43988   0.12709   0.24999   0.00000  Uiso   1.00
O119   O     0.49999   0.20627   0.18513   0.00000  Uiso   1.00
O120   O     0.50001   0.12707   0.31487   0.00000  Uiso   1.00
O121   O     0.50001   0.20627   0.31487   0.00000  Uiso   1.00
O122   O     0.49999   0.12707   0.18513   0.00000  Uiso   1.00
O123   O     0.53919   0.09264   0.38490   0.00000  Uiso   1.00
C124   C     0.58053   0.10495   0.37637   0.00000  Uiso   1.00
H125   H     0.58269   0.13603   0.35413   0.00000  Uiso   1.00
H126   H     0.59575   0.07528   0.35923   0.00000  Uiso   1.00
H127   H     0.59772   0.11151   0.40767   0.00000  Uiso   1.00
O128   O     0.46076   0.24066   0.11510   0.00000  Uiso   1.00
C129   C     0.41943   0.22829   0.12365   0.00000  Uiso   1.00
H130   H     0.40420   0.25792   0.14083   0.00000  Uiso   1.00
H131   H     0.41730   0.19718   0.14586   0.00000  Uiso   1.00
H132   H     0.40225   0.22175   0.09235   0.00000  Uiso   1.00
C133   C     0.75402   0.16665   0.24992   0.00000  Uiso   1.00
C134   C     0.91265   0.16668   0.25008   0.00000  Uiso   1.00
C135   C     0.79822   0.24250   0.02177   0.00000  Uiso   1.00
C136   C     0.86844   0.09084   0.47823   0.00000  Uiso   1.00
C137   C     0.68790   0.12424   0.25366   0.00000  Uiso   1.00
C138   C     0.97877   0.20909   0.24634   0.00000  Uiso   1.00
C139   C     0.97865   0.12427   0.25383   0.00000  Uiso   1.00
C140   C     0.68801   0.20907   0.24617   0.00000  Uiso   1.00
C141   C     0.95726   0.16669   0.25013   0.00000  Uiso   1.00
C142   C     0.70941   0.16664   0.24987   0.00000  Uiso   1.00
C143   C     0.80689   0.02483   0.22348   0.00000  Uiso   1.00
C144   C     0.85977   0.30850   0.27652   0.00000  Uiso   1.00
C145   C     0.85978   0.02479   0.27651   0.00000  Uiso   1.00
C146   C     0.80689   0.30854   0.22349   0.00000  Uiso   1.00
C147   C     0.83260   0.16673   0.16434   0.00000  Uiso   1.00
C148   C     0.83407   0.16661   0.33566   0.00000  Uiso   1.00
C149   C     0.85396   0.12922   0.40744   0.00000  Uiso   1.00
C150   C     0.81270   0.20410   0.09257   0.00000  Uiso   1.00
C151   C     0.83548   0.16656   0.38402   0.00000  Uiso   1.00
C152   C     0.83119   0.16677   0.11598   0.00000  Uiso   1.00
C153   C     0.81812   0.20435   0.40686   0.00000  Uiso   1.00
C154   C     0.84856   0.12899   0.09314   0.00000  Uiso   1.00
C155   C     0.81737   0.20475   0.45296   0.00000  Uiso   1.00
C156   C     0.84931   0.12859   0.04704   0.00000  Uiso   1.00
C157   C     0.83408   0.16667   0.47671   0.00000  Uiso   1.00
C158   C     0.83260   0.16667   0.02329   0.00000  Uiso   1.00
C159   C     0.85225   0.12863   0.45398   0.00000  Uiso   1.00
C160   C     0.81442   0.20471   0.04603   0.00000  Uiso   1.00
C161   C     0.79966   0.24246   0.47563   0.00000  Uiso   1.00
C162   C     0.86701   0.09088   0.02437   0.00000  Uiso   1.00
Cu163  Cu    0.83333   0.21355   0.25000   0.00000  Uiso   1.00
Cu164  Cu    0.83333   0.11978   0.25000   0.00000  Uiso   1.00
H165   H     0.80441   0.23318   0.38863   0.00000  Uiso   1.00
H166   H     0.86227   0.10017   0.11137   0.00000  Uiso   1.00
H167   H     0.78681   0.27191   0.45765   0.00000  Uiso   1.00
H168   H     0.87986   0.06143   0.04235   0.00000  Uiso   1.00
H169   H     0.78436   0.27221   0.03831   0.00000  Uiso   1.00
H170   H     0.88230   0.06112   0.46169   0.00000  Uiso   1.00
H171   H     0.70388   0.09109   0.25665   0.00000  Uiso   1.00
H172   H     0.96278   0.24224   0.24335   0.00000  Uiso   1.00
H173   H     0.96258   0.09114   0.25697   0.00000  Uiso   1.00
H174   H     0.70409   0.24219   0.24303   0.00000  Uiso   1.00
H175   H     0.78573   0.04357   0.20222   0.00000  Uiso   1.00
H176   H     0.88094   0.28977   0.29778   0.00000  Uiso   1.00
H177   H     0.88098   0.04348   0.29768   0.00000  Uiso   1.00
H178   H     0.78569   0.28985   0.20231   0.00000  Uiso   1.00
N179   N     0.83333   0.28402   0.25000   0.00000  Uiso   1.00
N180   N     0.83333   0.04931   0.25000   0.00000  Uiso   1.00
O181   O     0.77321   0.20625   0.24999   0.00000  Uiso   1.00
O182   O     0.89345   0.12709   0.25000   0.00000  Uiso   1.00
O183   O     0.89345   0.20625   0.25000   0.00000  Uiso   1.00
O184   O     0.77321   0.12709   0.24999   0.00000  Uiso   1.00
O185   O     0.83332   0.20627   0.18513   0.00000  Uiso   1.00
O186   O     0.83334   0.12707   0.31487   0.00000  Uiso   1.00
O187   O     0.83334   0.20627   0.31487   0.00000  Uiso   1.00
O188   O     0.83332   0.12707   0.18513   0.00000  Uiso   1.00
O189   O     0.87252   0.09264   0.38490   0.00000  Uiso   1.00
C190   C     0.91387   0.10495   0.37637   0.00000  Uiso   1.00
H191   H     0.91603   0.13603   0.35413   0.00000  Uiso   1.00
H192   H     0.92908   0.07528   0.35923   0.00000  Uiso   1.00
H193   H     0.93105   0.11151   0.40767   0.00000  Uiso   1.00
O194   O     0.79410   0.24066   0.11510   0.00000  Uiso   1.00
C195   C     0.75277   0.22829   0.12365   0.00000  Uiso   1.00
H196   H     0.73754   0.25792   0.14083   0.00000  Uiso   1.00
H197   H     0.75064   0.19718   0.14586   0.00000  Uiso   1.00
H198   H     0.73558   0.22175   0.09235   0.00000  Uiso   1.00
C199   C     0.08735   0.49998   0.24992   0.00000  Uiso   1.00
C200   C     0.24598   0.50002   0.25008   0.00000  Uiso   1.00
C201   C     0.13155   0.57583   0.02177   0.00000  Uiso   1.00
C202   C     0.20178   0.42417   0.47823   0.00000  Uiso   1.00
C203   C     0.02123   0.45757   0.25366   0.00000  Uiso   1.00
C204   C     0.31210   0.54243   0.24634   0.00000  Uiso   1.00
C205   C     0.31199   0.45760   0.25383   0.00000  Uiso   1.00
C206   C     0.02135   0.54240   0.24617   0.00000  Uiso   1.00
C207   C     0.29059   0.50003   0.25013   0.00000  Uiso   1.00
C208   C     0.04274   0.49997   0.24987   0.00000  Uiso   1.00
C209   C     0.14023   0.35817   0.22348   0.00000  Uiso   1.00
C210   C     0.19311   0.64183   0.27652   0.00000  Uiso   1.00
C211   C     0.19311   0.35812   0.27651   0.00000  Uiso   1.00
C212   C     0.14022   0.64188   0.22349   0.00000  Uiso   1.00
C213   C     0.16593   0.50006   0.16434   0.00000  Uiso   1.00
C214   C     0.16741   0.49994   0.33566   0.00000  Uiso   1.00
C215   C     0.18729   0.46255   0.40744   0.00000  Uiso   1.00
C216   C     0.14603   0.53744   0.09257   0.00000  Uiso   1.00
C217   C     0.16881   0.49989   0.38402   0.00000  Uiso   1.00
C218   C     0.16452   0.50011   0.11598   0.00000  Uiso   1.00
C219   C     0.15145   0.53769   0.40686   0.00000  Uiso   1.00
C220   C     0.18189   0.46232   0.09314   0.00000  Uiso   1.00
C221   C     0.15070   0.53809   0.45296   0.00000  Uiso   1.00
C222   C     0.18265   0.46192   0.04704   0.00000  Uiso   1.00
C223   C     0.16741   0.50001   0.47671   0.00000  Uiso   1.00
C224   C     0.16593   0.50000   0.02329   0.00000  Uiso   1.00
C225   C     0.18558   0.46196   0.45398   0.00000  Uiso   1.00
C226   C     0.14775   0.53804   0.04603   0.00000  Uiso   1.00
C227   C     0.13300   0.57579   0.47563   0.00000  Uiso   1.00
C228   C     0.20035   0.42422   0.02437   0.00000  Uiso   1.00
Cu229  Cu    0.16667   0.54689   0.25000   0.00000  Uiso   1.00
Cu230  Cu    0.16667   0.45311   0.25000   0.00000  Uiso   1.00
H231   H     0.13775   0.56651   0.38863   0.00000  Uiso   1.00
H232   H     0.19561   0.43350   0.11137   0.00000  Uiso   1.00
H233   H     0.12014   0.60525   0.45765   0.00000  Uiso   1.00
H234   H     0.21320   0.39476   0.04235   0.00000  Uiso   1.00
H235   H     0.11769   0.60555   0.03831   0.00000  Uiso   1.00
H236   H     0.21563   0.39445   0.46169   0.00000  Uiso   1.00
H237   H     0.03722   0.42443   0.25665   0.00000  Uiso   1.00
H238   H     0.29612   0.57557   0.24335   0.00000  Uiso   1.00
H239   H     0.29591   0.42447   0.25697   0.00000  Uiso   1.00
H240   H     0.03742   0.57553   0.24303   0.00000  Uiso   1.00
H241   H     0.11906   0.37690   0.20222   0.00000  Uiso   1.00
H242   H     0.21427   0.62310   0.29778   0.00000  Uiso   1.00
H243   H     0.21431   0.37681   0.29768   0.00000  Uiso   1.00
H244   H     0.11902   0.62319   0.20231   0.00000  Uiso   1.00
N245   N     0.16667   0.61736   0.25000   0.00000  Uiso   1.00
N246   N     0.16667   0.38264   0.25000   0.00000  Uiso   1.00
O247   O     0.10655   0.53958   0.24999   0.00000  Uiso   1.00
O248   O     0.22679   0.46042   0.25000   0.00000  Uiso   1.00
O249   O     0.22679   0.53958   0.25000   0.00000  Uiso   1.00
O250   O     0.10655   0.46042   0.24999   0.00000  Uiso   1.00
O251   O     0.16666   0.53960   0.18513   0.00000  Uiso   1.00
O252   O     0.16668   0.46040   0.31487   0.00000  Uiso   1.00
O253   O     0.16668   0.53960   0.31487   0.00000  Uiso   1.00
O254   O     0.16666   0.46040   0.18513   0.00000  Uiso   1.00
O255   O     0.20585   0.42598   0.38490   0.00000  Uiso   1.00
C256   C     0.24720   0.43828   0.37637   0.00000  Uiso   1.00
H257   H     0.24936   0.46936   0.35413   0.00000  Uiso   1.00
H258   H     0.26241   0.40862   0.35923   0.00000  Uiso   1.00
H259   H     0.26438   0.44484   0.40767   0.00000  Uiso   1.00
O260   O     0.12743   0.57400   0.11510   0.00000  Uiso   1.00
C261   C     0.08610   0.56163   0.12365   0.00000  Uiso   1.00
H262   H     0.07087   0.59125   0.14083   0.00000  Uiso   1.00
H263   H     0.08397   0.53052   0.14586   0.00000  Uiso   1.00
H264   H     0.06892   0.55508   0.09235   0.00000  Uiso   1.00
C265   C     0.42068   0.49998   0.24992   0.00000  Uiso   1.00
C266   C     0.57932   0.50002   0.25008   0.00000  Uiso   1.00
C267   C     0.46489   0.57583   0.02177   0.00000  Uiso   1.00
C268   C     0.53511   0.42417   0.47823   0.00000  Uiso   1.00
C269   C     0.35457   0.45757   0.25366   0.00000  Uiso   1.00
C270   C     0.64543   0.54243   0.24634   0.00000  Uiso   1.00
C271   C     0.64532   0.45760   0.25383   0.00000  Uiso   1.00
C272   C     0.35468   0.54240   0.24617   0.00000  Uiso   1.00
C273   C     0.62393   0.50003   0.25013   0.00000  Uiso   1.00
C274   C     0.37607   0.49997   0.24987   0.00000  Uiso   1.00
C275   C     0.47356   0.35817   0.22348   0.00000  Uiso   1.00
C276   C     0.52644   0.64183   0.27652   0.00000  Uiso   1.00
C277   C     0.52645   0.35812   0.27651   0.00000  Uiso   1.00
C278   C     0.47355   0.64188   0.22349   0.00000  Uiso   1.00
C279   C     0.49926   0.50006   0.16434   0.00000  Uiso   1.00
C280   C     0.50074   0.49994   0.33566   0.00000  Uiso   1.00
C281   C     0.52063   0.46255   0.40744   0.00000  Uiso   1.00
C282   C     0.47936   0.53744   0.09257   0.00000  Uiso   1.00
C283   C     0.50214   0.49989   0.38402   0.00000  Uiso   1.00
C284   C     0.49786   0.50011   0.11598   0.00000  Uiso   1.00
C285   C     0.48479   0.53769   0.40686   0.00000  Uiso   1.00
C286   C     0.51523   0.46232   0.09314   0.00000  Uiso   1.00
C287   C     0.48403   0.53809   0.45296   0.00000  Uiso   1.00
C288   C     0.51598   0.46192   0.04704   0.00000  Uiso   1.00
C289   C     0.50075   0.50001   0.47671   0.00000  Uiso   1.00
C290   C     0.49927   0.50000   0.02329   0.00000  Uiso   1.00
C291   C     0.51892   0.46196   0.45398   0.00000  Uiso   1.00
C292   C     0.48108   0.53804   0.04603   0.00000  Uiso   1.00
C293   C     0.46633   0.57579   0.47563   0.00000  Uiso   1.00
C294   C     0.53368   0.42422   0.02437   0.00000  Uiso   1.00
Cu295  Cu    0.50000   0.54689   0.25000   0.00000  Uiso   1.00
Cu296  Cu    0.50000   0.45311   0.25000   0.00000  Uiso   1.00
H297   H     0.47108   0.56651   0.38863   0.00000  Uiso   1.00
H298   H     0.52894   0.43350   0.11137   0.00000  Uiso   1.00
H299   H     0.45347   0.60525   0.45765   0.00000  Uiso   1.00
H300   H     0.54653   0.39476   0.04235   0.00000  Uiso   1.00
H301   H     0.45102   0.60555   0.03831   0.00000  Uiso   1.00
H302   H     0.54897   0.39445   0.46169   0.00000  Uiso   1.00
H303   H     0.37055   0.42443   0.25665   0.00000  Uiso   1.00
H304   H     0.62945   0.57557   0.24335   0.00000  Uiso   1.00
H305   H     0.62925   0.42447   0.25697   0.00000  Uiso   1.00
H306   H     0.37075   0.57553   0.24303   0.00000  Uiso   1.00
H307   H     0.45239   0.37690   0.20222   0.00000  Uiso   1.00
H308   H     0.54761   0.62310   0.29778   0.00000  Uiso   1.00
H309   H     0.54764   0.37681   0.29768   0.00000  Uiso   1.00
H310   H     0.45236   0.62319   0.20231   0.00000  Uiso   1.00
N311   N     0.50000   0.61736   0.25000   0.00000  Uiso   1.00
N312   N     0.50000   0.38264   0.25000   0.00000  Uiso   1.00
O313   O     0.43988   0.53958   0.24999   0.00000  Uiso   1.00
O314   O     0.56012   0.46042   0.25000   0.00000  Uiso   1.00
O315   O     0.56012   0.53958   0.25000   0.00000  Uiso   1.00
O316   O     0.43988   0.46042   0.24999   0.00000  Uiso   1.00
O317   O     0.49999   0.53960   0.18513   0.00000  Uiso   1.00
O318   O     0.50001   0.46040   0.31487   0.00000  Uiso   1.00
O319   O     0.50001   0.53960   0.31487   0.00000  Uiso   1.00
O320   O     0.49999   0.46040   0.18513   0.00000  Uiso   1.00
O321   O     0.53919   0.42598   0.38490   0.00000  Uiso   1.00
C322   C     0.58053   0.43828   0.37637   0.00000  Uiso   1.00
H323   H     0.58269   0.46936   0.35413   0.00000  Uiso   1.00
H324   H     0.59575   0.40862   0.35923   0.00000  Uiso   1.00
H325   H     0.59772   0.44484   0.40767   0.00000  Uiso   1.00
O326   O     0.46076   0.57400   0.11510   0.00000  Uiso   1.00
C327   C     0.41943   0.56163   0.12365   0.00000  Uiso   1.00
H328   H     0.40420   0.59125   0.14083   0.00000  Uiso   1.00
H329   H     0.41730   0.53052   0.14586   0.00000  Uiso   1.00
H330   H     0.40225   0.55508   0.09235   0.00000  Uiso   1.00
C331   C     0.75402   0.49998   0.24992   0.00000  Uiso   1.00
C332   C     0.91265   0.50002   0.25008   0.00000  Uiso   1.00
C333   C     0.79822   0.57583   0.02177   0.00000  Uiso   1.00
C334   C     0.86844   0.42417   0.47823   0.00000  Uiso   1.00
C335   C     0.68790   0.45757   0.25366   0.00000  Uiso   1.00
C336   C     0.97877   0.54243   0.24634   0.00000  Uiso   1.00
C337   C     0.97865   0.45760   0.25383   0.00000  Uiso   1.00
C338   C     0.68801   0.54240   0.24617   0.00000  Uiso   1.00
C339   C     0.95726   0.50003   0.25013   0.00000  Uiso   1.00
C340   C     0.70941   0.49997   0.24987   0.00000  Uiso   1.00
C341   C     0.80689   0.35817   0.22348   0.00000  Uiso   1.00
C342   C     0.85977   0.64183   0.27652   0.00000  Uiso   1.00
C343   C     0.85978   0.35812   0.27651   0.00000  Uiso   1.00
C344   C     0.80689   0.64188   0.22349   0.00000  Uiso   1.00
C345   C     0.83260   0.50006   0.16434   0.00000  Uiso   1.00
C346   C     0.83407   0.49994   0.33566   0.00000  Uiso   1.00
C347   C     0.85396   0.46255   0.40744   0.00000  Uiso   1.00
C348   C     0.81270   0.53744   0.09257   0.00000  Uiso   1.00
C349   C     0.83548   0.49989   0.38402   0.00000  Uiso   1.00
C350   C     0.83119   0.50011   0.11598   0.00000  Uiso   1.00
C351   C     0.81812   0.53769   0.40686   0.00000  Uiso   1.00
C352   C     0.84856   0.46232   0.09314   0.00000  Uiso   1.00
C353   C     0.81737   0.53809   0.45296   0.00000  Uiso   1.00
C354   C     0.84931   0.46192   0.04704   0.00000  Uiso   1.00
C355   C     0.83408   0.50001   0.47671   0.00000  Uiso   1.00
C356   C     0.83260   0.50000   0.02329   0.00000  Uiso   1.00
C357   C     0.85225   0.46196   0.45398   0.00000  Uiso   1.00
C358   C     0.81442   0.53804   0.04603   0.00000  Uiso   1.00
C359   C     0.79966   0.57579   0.47563   0.00000  Uiso   1.00
C360   C     0.86701   0.42422   0.02437   0.00000  Uiso   1.00
Cu361  Cu    0.83333   0.54689   0.25000   0.00000  Uiso   1.00
Cu362  Cu    0.83333   0.45311   0.25000   0.00000  Uiso   1.00
H363   H     0.80441   0.56651   0.38863   0.00000  Uiso   1.00
H364   H     0.86227   0.43350   0.11137   0.00000  Uiso   1.00
H365   H     0.78681   0.60525   0.45765   0.00000  Uiso   1.00
H366   H     0.87986   0.39476   0.04235   0.00000  Uiso   1.00
H367   H     0.78436   0.60555   0.03831   0.00000  Uiso   1.00
H368   H     0.88230   0.39445   0.46169   0.00000  Uiso   1.00
H369   H     0.70388   0.42443   0.25665   0.00000  Uiso   1.00
H370   H     0.96278   0.57557   0.24335   0.00000  Uiso   1.00
H371   H     0.96258   0.42447   0.25697   0.00000  Uiso   1.00
H372   H     0.70409   0.57553   0.24303   0.00000  Uiso   1.00
H373   H     0.78573   0.37690   0.20222   0.00000  Uiso   1.00
H374   H     0.88094   0.62310   0.29778   0.00000  Uiso   1.00
H375   H     0.88098   0.37681   0.29768   0.00000  Uiso   1.00
H376   H     0.78569   0.62319   0.20231   0.00000  Uiso   1.00
N377   N     0.83333   0.61736   0.25000   0.00000  Uiso   1.00
N378   N     0.83333   0.38264   0.25000   0.00000  Uiso   1.00
O379   O     0.77321   0.53958   0.24999   0.00000  Uiso   1.00
O380   O     0.89345   0.46042   0.25000   0.00000  Uiso   1.00
O381   O     0.89345   0.53958   0.25000   0.00000  Uiso   1.00
O382   O     0.77321   0.46042   0.24999   0.00000  Uiso   1.00
O383   O     0.83332   0.53960   0.18513   0.00000  Uiso   1.00
O384   O     0.83334   0.46040   0.31487   0.00000  Uiso   1.00
O385   O     0.83334   0.53960   0.31487   0.00000  Uiso   1.00
O386   O     0.83332   0.46040   0.18513   0.00000  Uiso   1.00
O387   O     0.87252   0.42598   0.38490   0.00000  Uiso   1.00
C388   C     0.91387   0.43828   0.37637   0.00000  Uiso   1.00
H389   H     0.91603   0.46936   0.35413   0.00000  Uiso   1.00
H390   H     0.92908   0.40862   0.35923   0.00000  Uiso   1.00
H391   H     0.93105   0.44484   0.40767   0.00000  Uiso   1.00
O392   O     0.79410   0.57400   0.11510   0.00000  Uiso   1.00
C393   C     0.75277   0.56163   0.12365   0.00000  Uiso   1.00
H394   H     0.73754   0.59125   0.14083   0.00000  Uiso   1.00
H395   H     0.75064   0.53052   0.14586   0.00000  Uiso   1.00
H396   H     0.73558   0.55508   0.09235   0.00000  Uiso   1.00
C397   C     0.08735   0.83332   0.24992   0.00000  Uiso   1.00
C398   C     0.24598   0.83335   0.25008   0.00000  Uiso   1.00
C399   C     0.13155   0.90916   0.02177   0.00000  Uiso   1.00
C400   C     0.20178   0.75750   0.47823   0.00000  Uiso   1.00
C401   C     0.02123   0.79091   0.25366   0.00000  Uiso   1.00
C402   C     0.31210   0.87576   0.24634   0.00000  Uiso   1.00
C403   C     0.31199   0.79093   0.25383   0.00000  Uiso   1.00
C404   C     0.02135   0.87573   0.24617   0.00000  Uiso   1.00
C405   C     0.29059   0.83336   0.25013   0.00000  Uiso   1.00
C406   C     0.04274   0.83331   0.24987   0.00000  Uiso   1.00
C407   C     0.14023   0.69150   0.22348   0.00000  Uiso   1.00
C408   C     0.19311   0.97517   0.27652   0.00000  Uiso   1.00
C409   C     0.19311   0.69146   0.27651   0.00000  Uiso   1.00
C410   C     0.14022   0.97521   0.22349   0.00000  Uiso   1.00
C411   C     0.16593   0.83339   0.16434   0.00000  Uiso   1.00
C412   C     0.16741   0.83327   0.33566   0.00000  Uiso   1.00
C413   C     0.18729   0.79589   0.40744   0.00000  Uiso   1.00
C414   C     0.14603   0.87077   0.09257   0.00000  Uiso   1.00
C415   C     0.16881   0.83322   0.38402   0.00000  Uiso   1.00
C416   C     0.16452   0.83344   0.11598   0.00000  Uiso   1.00
C417   C     0.15145   0.87102   0.40686   0.00000  Uiso   1.00
C418   C     0.18189   0.79566   0.09314   0.00000  Uiso   1.00
C419   C     0.15070   0.87142   0.45296   0.00000  Uiso   1.00
C420   C     0.18265   0.79526   0.04704   0.00000  Uiso   1.00
C421   C     0.16741   0.83334   0.47671   0.00000  Uiso   1.00
C422   C     0.16593   0.83334   0.02329   0.00000  Uiso   1.00
C423   C     0.18558   0.79530   0.45398   0.00000  Uiso   1.00
C424   C     0.14775   0.87137   0.04603   0.00000  Uiso   1.00
C425   C     0.13300   0.90913   0.47563   0.00000  Uiso   1.00
C426   C     0.20035   0.75755   0.02437   0.00000  Uiso   1.00
Cu427  Cu    0.16667   0.88022   0.25000   0.00000  Uiso   1.00
Cu428  Cu    0.16667   0.78645   0.25000   0.00000  Uiso   1.00
H429   H     0.13775   0.89985   0.38863   0.00000  Uiso   1.00
H430   H     0.19561   0.76684   0.11137   0.00000  Uiso   1.00
H431   H     0.12014   0.93858   0.45765   0.00000  Uiso   1.00
H432   H     0.21320   0.72809   0.04235   0.00000  Uiso   1.00
H433   H     0.11769   0.93888   0.03831   0.00000  Uiso   1.00
H434   H     0.21563   0.72778   0.46169   0.00000  Uiso   1.00
H435   H     0.03722   0.75776   0.25665   0.00000  Uiso   1.00
H436   H     0.29612   0.90891   0.24335   0.00000  Uiso   1.00
H437   H     0.29591   0.75781   0.25697   0.00000  Uiso   1.00
H438   H     0.03742   0.90886   0.24303   0.00000  Uiso   1.00
H439   H     0.11906   0.71023   0.20222   0.00000  Uiso   1.00
H440   H     0.21427   0.95644   0.29778   0.00000  Uiso   1.00
H441   H     0.21431   0.71015   0.29768   0.00000  Uiso   1.00
H442   H     0.11902   0.95652   0.20231   0.00000  Uiso   1.00
N443   N     0.16667   0.95069   0.25000   0.00000  Uiso   1.00
N444   N     0.16667   0.71598   0.25000   0.00000  Uiso   1.00
O445   O     0.10655   0.87291   0.24999   0.00000  Uiso   1.00
O446   O     0.22679   0.79375   0.25000   0.00000  Uiso   1.00
O447   O     0.22679   0.87291   0.25000   0.00000  Uiso   1.00
O448   O     0.10655   0.79375   0.24999   0.00000  Uiso   1.00
O449   O     0.16666   0.87293   0.18513   0.00000  Uiso   1.00
O450   O     0.16668   0.79373   0.31487   0.00000  Uiso   1.00
O451   O     0.16668   0.87293   0.31487   0.00000  Uiso   1.00
O452   O     0.16666   0.79373   0.18513   0.00000  Uiso   1.00
O453   O     0.20585   0.75931   0.38490   0.00000  Uiso   1.00
C454   C     0.24720   0.77162   0.37637   0.00000  Uiso   1.00
H455   H     0.24936   0.80270   0.35413   0.00000  Uiso   1.00
H456   H     0.26241   0.74195   0.35923   0.00000  Uiso   1.00
H457   H     0.26438   0.77818   0.40767   0.00000  Uiso   1.00
O458   O     0.12743   0.90733   0.11510   0.00000  Uiso   1.00
C459   C     0.08610   0.89496   0.12365   0.00000  Uiso   1.00
H460   H     0.07087   0.92459   0.14083   0.00000  Uiso   1.00
H461   H     0.08397   0.86385   0.14586   0.00000  Uiso   1.00
H462   H     0.06892   0.88841   0.09235   0.00000  Uiso   1.00
C463   C     0.42068   0.83332   0.24992   0.00000  Uiso   1.00
C464   C     0.57932   0.83335   0.25008   0.00000  Uiso   1.00
C465   C     0.46489   0.90916   0.02177   0.00000  Uiso   1.00
C466   C     0.53511   0.75750   0.47823   0.00000  Uiso   1.00
C467   C     0.35457   0.79091   0.25366   0.00000  Uiso   1.00
C468   C     0.64543   0.87576   0.24634   0.00000  Uiso   1.00
C469   C     0.64532   0.79093   0.25383   0.00000  Uiso   1.00
C470   C     0.35468   0.87573   0.24617   0.00000  Uiso   1.00
C471   C     0.62393   0.83336   0.25013   0.00000  Uiso   1.00
C472   C     0.37607   0.83331   0.24987   0.00000  Uiso   1.00
C473   C     0.47356   0.69150   0.22348   0.00000  Uiso   1.00
C474   C     0.52644   0.97517   0.27652   0.00000  Uiso   1.00
C475   C     0.52645   0.69146   0.27651   0.00000  Uiso   1.00
C476   C     0.47355   0.97521   0.22349   0.00000  Uiso   1.00
C477   C     0.49926   0.83339   0.16434   0.00000  Uiso   1.00
C478   C     0.50074   0.83327   0.33566   0.00000  Uiso   1.00
C479   C     0.52063   0.79589   0.40744   0.00000  Uiso   1.00
C480   C     0.47936   0.87077   0.09257   0.00000  Uiso   1.00
C481   C     0.50214   0.83322   0.38402   0.00000  Uiso   1.00
C482   C     0.49786   0.83344   0.11598   0.00000  Uiso   1.00
C483   C     0.48479   0.87102   0.40686   0.00000  Uiso   1.00
C484   C     0.51523   0.79566   0.09314   0.00000  Uiso   1.00
C485   C     0.48403   0.87142   0.45296   0.00000  Uiso   1.00
C486   C     0.51598   0.79526   0.04704   0.00000  Uiso   1.00
C487   C     0.50075   0.83334   0.47671   0.00000  Uiso   1.00
C488   C     0.49927   0.83334   0.02329   0.00000  Uiso   1.00
C489   C     0.51892   0.79530   0.45398   0.00000  Uiso   1.00
C490   C     0.48108   0.87137   0.04603   0.00000  Uiso   1.00
C491   C     0.46633   0.90913   0.47563   0.00000  Uiso   1.00
C492   C     0.53368   0.75755   0.02437   0.00000  Uiso   1.00
Cu493  Cu    0.50000   0.88022   0.25000   0.00000  Uiso   1.00
Cu494  Cu    0.50000   0.78645   0.25000   0.00000  Uiso   1.00
H495   H     0.47108   0.89985   0.38863   0.00000  Uiso   1.00
H496   H     0.52894   0.76684   0.11137   0.00000  Uiso   1.00
H497   H     0.45347   0.93858   0.45765   0.00000  Uiso   1.00
H498   H     0.54653   0.72809   0.04235   0.00000  Uiso   1.00
H499   H     0.45102   0.93888   0.03831   0.00000  Uiso   1.00
H500   H     0.54897   0.72778   0.46169   0.00000  Uiso   1.00
H501   H     0.37055   0.75776   0.25665   0.00000  Uiso   1.00
H502   H     0.62945   0.90891   0.24335   0.00000  Uiso   1.00
H503   H     0.62925   0.75781   0.25697   0.00000  Uiso   1.00
H504   H     0.37075   0.90886   0.24303   0.00000  Uiso   1.00
H505   H     0.45239   0.71023   0.20222   0.00000  Uiso   1.00
H506   H     0.54761   0.95644   0.29778   0.00000  Uiso   1.00
H507   H     0.54764   0.71015   0.29768   0.00000  Uiso   1.00
H508   H     0.45236   0.95652   0.20231   0.00000  Uiso   1.00
N509   N     0.50000   0.95069   0.25000   0.00000  Uiso   1.00
N510   N     0.50000   0.71598   0.25000   0.00000  Uiso   1.00
O511   O     0.43988   0.87291   0.24999   0.00000  Uiso   1.00
O512   O     0.56012   0.79375   0.25000   0.00000  Uiso   1.00
O513   O     0.56012   0.87291   0.25000   0.00000  Uiso   1.00
O514   O     0.43988   0.79375   0.24999   0.00000  Uiso   1.00
O515   O     0.49999   0.87293   0.18513   0.00000  Uiso   1.00
O516   O     0.50001   0.79373   0.31487   0.00000  Uiso   1.00
O517   O     0.50001   0.87293   0.31487   0.00000  Uiso   1.00
O518   O     0.49999   0.79373   0.18513   0.00000  Uiso   1.00
O519   O     0.53919   0.75931   0.38490   0.00000  Uiso   1.00
C520   C     0.58053   0.77162   0.37637   0.00000  Uiso   1.00
H521   H     0.58269   0.80270   0.35413   0.00000  Uiso   1.00
H522   H     0.59575   0.74195   0.35923   0.00000  Uiso   1.00
H523   H     0.59772   0.77818   0.40767   0.00000  Uiso   1.00
O524   O     0.46076   0.90733   0.11510   0.00000  Uiso   1.00
C525   C     0.41943   0.89496   0.12365   0.00000  Uiso   1.00
H526   H     0.40420   0.92459   0.14083   0.00000  Uiso   1.00
H527   H     0.41730   0.86385   0.14586   0.00000  Uiso   1.00
H528   H     0.40225   0.88841   0.09235   0.00000  Uiso   1.00
C529   C     0.75402   0.83332   0.24992   0.00000  Uiso   1.00
C530   C     0.91265   0.83335   0.25008   0.00000  Uiso   1.00
C531   C     0.79822   0.90916   0.02177   0.00000  Uiso   1.00
C532   C     0.86844   0.75750   0.47823   0.00000  Uiso   1.00
C533   C     0.68790   0.79091   0.25366   0.00000  Uiso   1.00
C534   C     0.97877   0.87576   0.24634   0.00000  Uiso   1.00
C535   C     0.97865   0.79093   0.25383   0.00000  Uiso   1.00
C536   C     0.68801   0.87573   0.24617   0.00000  Uiso   1.00
C537   C     0.95726   0.83336   0.25013   0.00000  Uiso   1.00
C538   C     0.70941   0.83331   0.24987   0.00000  Uiso   1.00
C539   C     0.80689   0.69150   0.22348   0.00000  Uiso   1.00
C540   C     0.85977   0.97517   0.27652   0.00000  Uiso   1.00
C541   C     0.85978   0.69146   0.27651   0.00000  Uiso   1.00
C542   C     0.80689   0.97521   0.22349   0.00000  Uiso   1.00
C543   C     0.83260   0.83339   0.16434   0.00000  Uiso   1.00
C544   C     0.83407   0.83327   0.33566   0.00000  Uiso   1.00
C545   C     0.85396   0.79589   0.40744   0.00000  Uiso   1.00
C546   C     0.81270   0.87077   0.09257   0.00000  Uiso   1.00
C547   C     0.83548   0.83322   0.38402   0.00000  Uiso   1.00
C548   C     0.83119   0.83344   0.11598   0.00000  Uiso   1.00
C549   C     0.81812   0.87102   0.40686   0.00000  Uiso   1.00
C550   C     0.84856   0.79566   0.09314   0.00000  Uiso   1.00
C551   C     0.81737   0.87142   0.45296   0.00000  Uiso   1.00
C552   C     0.84931   0.79526   0.04704   0.00000  Uiso   1.00
C553   C     0.83408   0.83334   0.47671   0.00000  Uiso   1.00
C554   C     0.83260   0.83334   0.02329   0.00000  Uiso   1.00
C555   C     0.85225   0.79530   0.45398   0.00000  Uiso   1.00
C556   C     0.81442   0.87137   0.04603   0.00000  Uiso   1.00
C557   C     0.79966   0.90913   0.47563   0.00000  Uiso   1.00
C558   C     0.86701   0.75755   0.02437   0.00000  Uiso   1.00
Cu559  Cu    0.83333   0.88022   0.25000   0.00000  Uiso   1.00
Cu560  Cu    0.83333   0.78645   0.25000   0.00000  Uiso   1.00
H561   H     0.80441   0.89985   0.38863   0.00000  Uiso   1.00
H562   H     0.86227   0.76684   0.11137   0.00000  Uiso   1.00
H563   H     0.78681   0.93858   0.45765   0.00000  Uiso   1.00
H564   H     0.87986   0.72809   0.04235   0.00000  Uiso   1.00
H565   H     0.78436   0.93888   0.03831   0.00000  Uiso   1.00
H566   H     0.88230   0.72778   0.46169   0.00000  Uiso   1.00
H567   H     0.70388   0.75776   0.25665   0.00000  Uiso   1.00
H568   H     0.96278   0.90891   0.24335   0.00000  Uiso   1.00
H569   H     0.96258   0.75781   0.25697   0.00000  Uiso   1.00
H570   H     0.70409   0.90886   0.24303   0.00000  Uiso   1.00
H571   H     0.78573   0.71023   0.20222   0.00000  Uiso   1.00
H572   H     0.88094   0.95644   0.29778   0.00000  Uiso   1.00
H573   H     0.88098   0.71015   0.29768   0.00000  Uiso   1.00
H574   H     0.78569   0.95652   0.20231   0.00000  Uiso   1.00
N575   N     0.83333   0.95069   0.25000   0.00000  Uiso   1.00
N576   N     0.83333   0.71598   0.25000   0.00000  Uiso   1.00
O577   O     0.77321   0.87291   0.24999   0.00000  Uiso   1.00
O578   O     0.89345   0.79375   0.25000   0.00000  Uiso   1.00
O579   O     0.89345   0.87291   0.25000   0.00000  Uiso   1.00
O580   O     0.77321   0.79375   0.24999   0.00000  Uiso   1.00
O581   O     0.83332   0.87293   0.18513   0.00000  Uiso   1.00
O582   O     0.83334   0.79373   0.31487   0.00000  Uiso   1.00
O583   O     0.83334   0.87293   0.31487   0.00000  Uiso   1.00
O584   O     0.83332   0.79373   0.18513   0.00000  Uiso   1.00
O585   O     0.87252   0.75931   0.38490   0.00000  Uiso   1.00
C586   C     0.91387   0.77162   0.37637   0.00000  Uiso   1.00
H587   H     0.91603   0.80270   0.35413   0.00000  Uiso   1.00
H588   H     0.92908   0.74195   0.35923   0.00000  Uiso   1.00
H589   H     0.93105   0.77818   0.40767   0.00000  Uiso   1.00
O590   O     0.79410   0.90733   0.11510   0.00000  Uiso   1.00
C591   C     0.75277   0.89496   0.12365   0.00000  Uiso   1.00
H592   H     0.73754   0.92459   0.14083   0.00000  Uiso   1.00
H593   H     0.75064   0.86385   0.14586   0.00000  Uiso   1.00
H594   H     0.73558   0.88841   0.09235   0.00000  Uiso   1.00
C595   C     0.08735   0.16665   0.74992   0.00000  Uiso   1.00
C596   C     0.24598   0.16668   0.75008   0.00000  Uiso   1.00
C597   C     0.13155   0.24250   0.52177   0.00000  Uiso   1.00
C598   C     0.20178   0.09084   0.97823   0.00000  Uiso   1.00
C599   C     0.02123   0.12424   0.75366   0.00000  Uiso   1.00
C600   C     0.31210   0.20909   0.74634   0.00000  Uiso   1.00
C601   C     0.31199   0.12427   0.75383   0.00000  Uiso   1.00
C602   C     0.02135   0.20907   0.74617   0.00000  Uiso   1.00
C603   C     0.29059   0.16669   0.75013   0.00000  Uiso   1.00
C604   C     0.04274   0.16664   0.74987   0.00000  Uiso   1.00
C605   C     0.14023   0.02483   0.72348   0.00000  Uiso   1.00
C606   C     0.19311   0.30850   0.77652   0.00000  Uiso   1.00
C607   C     0.19311   0.02479   0.77651   0.00000  Uiso   1.00
C608   C     0.14022   0.30854   0.72349   0.00000  Uiso   1.00
C609   C     0.16593   0.16673   0.66434   0.00000  Uiso   1.00
C610   C     0.16741   0.16661   0.83566   0.00000  Uiso   1.00
C611   C     0.18729   0.12922   0.90744   0.00000  Uiso   1.00
C612   C     0.14603   0.20410   0.59257   0.00000  Uiso   1.00
C613   C     0.16881   0.16656   0.88402   0.00000  Uiso   1.00
C614   C     0.16452   0.16677   0.61598   0.00000  Uiso   1.00
C615   C     0.15145   0.20435   0.90686   0.00000  Uiso   1.00
C616   C     0.18189   0.12899   0.59314   0.00000  Uiso   1.00
C617   C     0.15070   0.20475   0.95296   0.00000  Uiso   1.00
C618   C     0.18265   0.12859   0.54704   0.00000  Uiso   1.00
C619   C     0.16741   0.16667   0.97671   0.00000  Uiso   1.00
C620   C     0.16593   0.16667   0.52329   0.00000  Uiso   1.00
C621   C     0.18558   0.12863   0.95398   0.00000  Uiso   1.00
C622   C     0.14775   0.20471   0.54603   0.00000  Uiso   1.00
C623   C     0.13300   0.24246   0.97563   0.00000  Uiso   1.00
C624   C     0.20035   0.09088   0.52437   0.00000  Uiso   1.00
Cu625  Cu    0.16667   0.21355   0.75000   0.00000  Uiso   1.00
Cu626  Cu    0.16667   0.11978   0.75000   0.00000  Uiso   1.00
H627   H     0.13775   0.23318   0.88863   0.00000  Uiso   1.00
H628   H     0.19561   0.10017   0.61137   0.00000  Uiso   1.00
H629   H     0.12014   0.27191   0.95765   0.00000  Uiso   1.00
H630   H     0.21320   0.06143   0.54235   0.00000  Uiso   1.00
H631   H     0.11769   0.27221   0.53831   0.00000  Uiso   1.00
H632   H     0.21563   0.06112   0.96169   0.00000  Uiso   1.00
H633   H     0.03722   0.09109   0.75665   0.00000  Uiso   1.00
H634   H     0.29612   0.24224   0.74335   0.00000  Uiso   1.00
H635   H     0.29591   0.09114   0.75697   0.00000  Uiso   1.00
H636   H     0.03742   0.24219   0.74303   0.00000  Uiso   1.00
H637   H     0.11906   0.04357   0.70222   0.00000  Uiso   1.00
H638   H     0.21427   0.28977   0.79778   0.00000  Uiso   1.00
H639   H     0.21431   0.04348   0.79768   0.00000  Uiso   1.00
H640   H     0.11902   0.28985   0.70231   0.00000  Uiso   1.00
N641   N     0.16667   0.28402   0.75000   0.00000  Uiso   1.00
N642   N     0.16667   0.04931   0.75000   0.00000  Uiso   1.00
O643   O     0.10655   0.20625   0.74999   0.00000  Uiso   1.00
O644   O     0.22679   0.12709   0.75000   0.00000  Uiso   1.00
O645   O     0.22679   0.20625   0.75000   0.00000  Uiso   1.00
O646   O     0.10655   0.12709   0.74999   0.00000  Uiso   1.00
O647   O     0.16666   0.20627   0.68513   0.00000  Uiso   1.00
O648   O     0.16668   0.12707   0.81487   0.00000  Uiso   1.00
O649   O     0.16668   0.20627   0.81487   0.00000  Uiso   1.00
O650   O     0.16666   0.12707   0.68513   0.00000  Uiso   1.00
O651   O     0.20585   0.09264   0.88490   0.00000  Uiso   1.00
C652   C     0.24720   0.10495   0.87637   0.00000  Uiso   1.00
H653   H     0.24936   0.13603   0.85413   0.00000  Uiso   1.00
H654   H     0.26241   0.07528   0.85923   0.00000  Uiso   1.00
H655   H     0.26438   0.11151   0.90767   0.00000  Uiso   1.00
O656   O     0.12743   0.24066   0.61510   0.00000  Uiso   1.00
C657   C     0.08610   0.22829   0.62365   0.00000  Uiso   1.00
H658   H     0.07087   0.25792   0.64083   0.00000  Uiso   1.00
H659   H     0.08397   0.19718   0.64586   0.00000  Uiso   1.00
H660   H     0.06892   0.22175   0.59235   0.00000  Uiso   1.00
C661   C     0.42068   0.16665   0.74992   0.00000  Uiso   1.00
C662   C     0.57932   0.16668   0.75008   0.00000  Uiso   1.00
C663   C     0.46489   0.24250   0.52177   0.00000  Uiso   1.00
C664   C     0.53511   0.09084   0.97823   0.00000  Uiso   1.00
C665   C     0.35457   0.12424   0.75366   0.00000  Uiso   1.00
C666   C     0.64543   0.20909   0.74634   0.00000  Uiso   1.00
C667   C     0.64532   0.12427   0.75383   0.00000  Uiso   1.00
C668   C     0.35468   0.20907   0.74617   0.00000  Uiso   1.00
C669   C     0.62393   0.16669   0.75013   0.00000  Uiso   1.00
C670   C     0.37607   0.16664   0.74987   0.00000  Uiso   1.00
C671   C     0.47356   0.02483   0.72348   0.00000  Uiso   1.00
C672   C     0.52644   0.30850   0.77652   0.00000  Uiso   1.00
C673   C     0.52645   0.02479   0.77651   0.00000  Uiso   1.00
C674   C     0.47355   0.30854   0.72349   0.00000  Uiso   1.00
C675   C     0.49926   0.16673   0.66434   0.00000  Uiso   1.00
C676   C     0.50074   0.16661   0.83566   0.00000  Uiso   1.00
C677   C     0.52063   0.12922   0.90744   0.00000  Uiso   1.00
C678   C     0.47936   0.20410   0.59257   0.00000  Uiso   1.00
C679   C     0.50214   0.16656   0.88402   0.00000  Uiso   1.00
C680   C     0.49786   0.16677   0.61598   0.00000  Uiso   1.00
C681   C     0.48479   0.20435   0.90686   0.00000  Uiso   1.00
C682   C     0.51523   0.12899   0.59314   0.00000  Uiso   1.00
C683   C     0.48403   0.20475   0.95296   0.00000  Uiso   1.00
C684   C     0.51598   0.12859   0.54704   0.00000  Uiso   1.00
C685   C     0.50075   0.16667   0.97671   0.00000  Uiso   1.00
C686   C     0.49927   0.16667   0.52329   0.00000  Uiso   1.00
C687   C     0.51892   0.12863   0.95398   0.00000  Uiso   1.00
C688   C     0.48108   0.20471   0.54603   0.00000  Uiso   1.00
C689   C     0.46633   0.24246   0.97563   0.00000  Uiso   1.00
C690   C     0.53368   0.09088   0.52437   0.00000  Uiso   1.00
Cu691  Cu    0.50000   0.21355   0.75000   0.00000  Uiso   1.00
Cu692  Cu    0.50000   0.11978   0.75000   0.00000  Uiso   1.00
H693   H     0.47108   0.23318   0.88863   0.00000  Uiso   1.00
H694   H     0.52894   0.10017   0.61137   0.00000  Uiso   1.00
H695   H     0.45347   0.27191   0.95765   0.00000  Uiso   1.00
H696   H     0.54653   0.06143   0.54235   0.00000  Uiso   1.00
H697   H     0.45102   0.27221   0.53831   0.00000  Uiso   1.00
H698   H     0.54897   0.06112   0.96169   0.00000  Uiso   1.00
H699   H     0.37055   0.09109   0.75665   0.00000  Uiso   1.00
H700   H     0.62945   0.24224   0.74335   0.00000  Uiso   1.00
H701   H     0.62925   0.09114   0.75697   0.00000  Uiso   1.00
H702   H     0.37075   0.24219   0.74303   0.00000  Uiso   1.00
H703   H     0.45239   0.04357   0.70222   0.00000  Uiso   1.00
H704   H     0.54761   0.28977   0.79778   0.00000  Uiso   1.00
H705   H     0.54764   0.04348   0.79768   0.00000  Uiso   1.00
H706   H     0.45236   0.28985   0.70231   0.00000  Uiso   1.00
N707   N     0.50000   0.28402   0.75000   0.00000  Uiso   1.00
N708   N     0.50000   0.04931   0.75000   0.00000  Uiso   1.00
O709   O     0.43988   0.20625   0.74999   0.00000  Uiso   1.00
O710   O     0.56012   0.12709   0.75000   0.00000  Uiso   1.00
O711   O     0.56012   0.20625   0.75000   0.00000  Uiso   1.00
O712   O     0.43988   0.12709   0.74999   0.00000  Uiso   1.00
O713   O     0.49999   0.20627   0.68513   0.00000  Uiso   1.00
O714   O     0.50001   0.12707   0.81487   0.00000  Uiso   1.00
O715   O     0.50001   0.20627   0.81487   0.00000  Uiso   1.00
O716   O     0.49999   0.12707   0.68513   0.00000  Uiso   1.00
O717   O     0.53919   0.09264   0.88490   0.00000  Uiso   1.00
C718   C     0.58053   0.10495   0.87637   0.00000  Uiso   1.00
H719   H     0.58269   0.13603   0.85413   0.00000  Uiso   1.00
H720   H     0.59575   0.07528   0.85923   0.00000  Uiso   1.00
H721   H     0.59772   0.11151   0.90767   0.00000  Uiso   1.00
O722   O     0.46076   0.24066   0.61510   0.00000  Uiso   1.00
C723   C     0.41943   0.22829   0.62365   0.00000  Uiso   1.00
H724   H     0.40420   0.25792   0.64083   0.00000  Uiso   1.00
H725   H     0.41730   0.19718   0.64586   0.00000  Uiso   1.00
H726   H     0.40225   0.22175   0.59235   0.00000  Uiso   1.00
C727   C     0.75402   0.16665   0.74992   0.00000  Uiso   1.00
C728   C     0.91265   0.16668   0.75008   0.00000  Uiso   1.00
C729   C     0.79822   0.24250   0.52177   0.00000  Uiso   1.00
C730   C     0.86844   0.09084   0.97823   0.00000  Uiso   1.00
C731   C     0.68790   0.12424   0.75366   0.00000  Uiso   1.00
C732   C     0.97877   0.20909   0.74634   0.00000  Uiso   1.00
C733   C     0.97865   0.12427   0.75383   0.00000  Uiso   1.00
C734   C     0.68801   0.20907   0.74617   0.00000  Uiso   1.00
C735   C     0.95726   0.16669   0.75013   0.00000  Uiso   1.00
C736   C     0.70941   0.16664   0.74987   0.00000  Uiso   1.00
C737   C     0.80689   0.02483   0.72348   0.00000  Uiso   1.00
C738   C     0.85977   0.30850   0.77652   0.00000  Uiso   1.00
C739   C     0.85978   0.02479   0.77651   0.00000  Uiso   1.00
C740   C     0.80689   0.30854   0.72349   0.00000  Uiso   1.00
C741   C     0.83260   0.16673   0.66434   0.00000  Uiso   1.00
C742   C     0.83407   0.16661   0.83566   0.00000  Uiso   1.00
C743   C     0.85396   0.12922   0.90744   0.00000  Uiso   1.00
C744   C     0.81270   0.20410   0.59257   0.00000  Uiso   1.00
C745   C     0.83548   0.16656   0.88402   0.00000  Uiso   1.00
C746   C     0.83119   0.16677   0.61598   0.00000  Uiso   1.00
C747   C     0.81812   0.20435   0.90686   0.00000  Uiso   1.00
C748   C     0.84856   0.12899   0.59314   0.00000  Uiso   1.00
C749   C     0.81737   0.20475   0.95296   0.00000  Uiso   1.00
C750   C     0.84931   0.12859   0.54704   0.00000  Uiso   1.00
C751   C     0.83408   0.16667   0.97671   0.00000  Uiso   1.00
C752   C     0.83260   0.16667   0.52329   0.00000  Uiso   1.00
C753   C     0.85225   0.12863   0.95398   0.00000  Uiso   1.00
C754   C     0.81442   0.20471   0.54603   0.00000  Uiso   1.00
C755   C     0.79966   0.24246   0.97563   0.00000  Uiso   1.00
C756   C     0.86701   0.09088   0.52437   0.00000  Uiso   1.00
Cu757  Cu    0.83333   0.21355   0.75000   0.00000  Uiso   1.00
Cu758  Cu    0.83333   0.11978   0.75000   0.00000  Uiso   1.00
H759   H     0.80441   0.23318   0.88863   0.00000  Uiso   1.00
H760   H     0.86227   0.10017   0.61137   0.00000  Uiso   1.00
H761   H     0.78681   0.27191   0.95765   0.00000  Uiso   1.00
H762   H     0.87986   0.06143   0.54235   0.00000  Uiso   1.00
H763   H     0.78436   0.27221   0.53831   0.00000  Uiso   1.00
H764   H     0.88230   0.06112   0.96169   0.00000  Uiso   1.00
H765   H     0.70388   0.09109   0.75665   0.00000  Uiso   1.00
H766   H     0.96278   0.24224   0.74335   0.00000  Uiso   1.00
H767   H     0.96258   0.09114   0.75697   0.00000  Uiso   1.00
H768   H     0.70409   0.24219   0.74303   0.00000  Uiso   1.00
H769   H     0.78573   0.04357   0.70222   0.00000  Uiso   1.00
H770   H     0.88094   0.28977   0.79778   0.00000  Uiso   1.00
H771   H     0.88098   0.04348   0.79768   0.00000  Uiso   1.00
H772   H     0.78569   0.28985   0.70231   0.00000  Uiso   1.00
N773   N     0.83333   0.28402   0.75000   0.00000  Uiso   1.00
N774   N     0.83333   0.04931   0.75000   0.00000  Uiso   1.00
O775   O     0.77321   0.20625   0.74999   0.00000  Uiso   1.00
O776   O     0.89345   0.12709   0.75000   0.00000  Uiso   1.00
O777   O     0.89345   0.20625   0.75000   0.00000  Uiso   1.00
O778   O     0.77321   0.12709   0.74999   0.00000  Uiso   1.00
O779   O     0.83332   0.20627   0.68513   0.00000  Uiso   1.00
O780   O     0.83334   0.12707   0.81487   0.00000  Uiso   1.00
O781   O     0.83334   0.20627   0.81487   0.00000  Uiso   1.00
O782   O     0.83332   0.12707   0.68513   0.00000  Uiso   1.00
O783   O     0.87252   0.09264   0.88490   0.00000  Uiso   1.00
C784   C     0.91387   0.10495   0.87637   0.00000  Uiso   1.00
H785   H     0.91603   0.13603   0.85413   0.00000  Uiso   1.00
H786   H     0.92908   0.07528   0.85923   0.00000  Uiso   1.00
H787   H     0.93105   0.11151   0.90767   0.00000  Uiso   1.00
O788   O     0.79410   0.24066   0.61510   0.00000  Uiso   1.00
C789   C     0.75277   0.22829   0.62365   0.00000  Uiso   1.00
H790   H     0.73754   0.25792   0.64083   0.00000  Uiso   1.00
H791   H     0.75064   0.19718   0.64586   0.00000  Uiso   1.00
H792   H     0.73558   0.22175   0.59235   0.00000  Uiso   1.00
C793   C     0.08735   0.49998   0.74992   0.00000  Uiso   1.00
C794   C     0.24598   0.50002   0.75008   0.00000  Uiso   1.00
C795   C     0.13155   0.57583   0.52177   0.00000  Uiso   1.00
C796   C     0.20178   0.42417   0.97823   0.00000  Uiso   1.00
C797   C     0.02123   0.45757   0.75366   0.00000  Uiso   1.00
C798   C     0.31210   0.54243   0.74634   0.00000  Uiso   1.00
C799   C     0.31199   0.45760   0.75383   0.00000  Uiso   1.00
C800   C     0.02135   0.54240   0.74617   0.00000  Uiso   1.00
C801   C     0.29059   0.50003   0.75013   0.00000  Uiso   1.00
C802   C     0.04274   0.49997   0.74987   0.00000  Uiso   1.00
C803   C     0.14023   0.35817   0.72348   0.00000  Uiso   1.00
C804   C     0.19311   0.64183   0.77652   0.00000  Uiso   1.00
C805   C     0.19311   0.35812   0.77651   0.00000  Uiso   1.00
C806   C     0.14022   0.64188   0.72349   0.00000  Uiso   1.00
C807   C     0.16593   0.50006   0.66434   0.00000  Uiso   1.00
C808   C     0.16741   0.49994   0.83566   0.00000  Uiso   1.00
C809   C     0.18729   0.46255   0.90744   0.00000  Uiso   1.00
C810   C     0.14603   0.53744   0.59257   0.00000  Uiso   1.00
C811   C     0.16881   0.49989   0.88402   0.00000  Uiso   1.00
C812   C     0.16452   0.50011   0.61598   0.00000  Uiso   1.00
C813   C     0.15145   0.53769   0.90686   0.00000  Uiso   1.00
C814   C     0.18189   0.46232   0.59314   0.00000  Uiso   1.00
C815   C     0.15070   0.53809   0.95296   0.00000  Uiso   1.00
C816   C     0.18265   0.46192   0.54704   0.00000  Uiso   1.00
C817   C     0.16741   0.50001   0.97671   0.00000  Uiso   1.00
C818   C     0.16593   0.50000   0.52329   0.00000  Uiso   1.00
C819   C     0.18558   0.46196   0.95398   0.00000  Uiso   1.00
C820   C     0.14775   0.53804   0.54603   0.00000  Uiso   1.00
C821   C     0.13300   0.57579   0.97563   0.00000  Uiso   1.00
C822   C     0.20035   0.42422   0.52437   0.00000  Uiso   1.00
Cu823  Cu    0.16667   0.54689   0.75000   0.00000  Uiso   1.00
Cu824  Cu    0.16667   0.45311   0.75000   0.00000  Uiso   1.00
H825   H     0.13775   0.56651   0.88863   0.00000  Uiso   1.00
H826   H     0.19561   0.43350   0.61137   0.00000  Uiso   1.00
H827   H     0.12014   0.60525   0.95765   0.00000  Uiso   1.00
H828   H     0.21320   0.39476   0.54235   0.00000  Uiso   1.00
H829   H     0.11769   0.60555   0.53831   0.00000  Uiso   1.00
H830   H     0.21563   0.39445   0.96169   0.00000  Uiso   1.00
H831   H     0.03722   0.42443   0.75665   0.00000  Uiso   1.00
H832   H     0.29612   0.57557   0.74335   0.00000  Uiso   1.00
H833   H     0.29591   0.42447   0.75697   0.00000  Uiso   1.00
H834   H     0.03742   0.57553   0.74303   0.00000  Uiso   1.00
H835   H     0.11906   0.37690   0.70222   0.00000  Uiso   1.00
H836   H     0.21427   0.62310   0.79778   0.00000  Uiso   1.00
H837   H     0.21431   0.37681   0.79768   0.00000  Uiso   1.00
H838   H     0.11902   0.62319   0.70231   0.00000  Uiso   1.00
N839   N     0.16667   0.61736   0.75000   0.00000  Uiso   1.00
N840   N     0.16667   0.38264   0.75000   0.00000  Uiso   1.00
O841   O     0.10655   0.53958   0.74999   0.00000  Uiso   1.00
O842   O     0.22679   0.46042   0.75000   0.00000  Uiso   1.00
O843   O     0.22679   0.53958   0.75000   0.00000  Uiso   1.00
O844   O     0.10655   0.46042   0.74999   0.00000  Uiso   1.00
O845   O     0.16666   0.53960   0.68513   0.00000  Uiso   1.00
O846   O     0.16668   0.46040   0.81487   0.00000  Uiso   1.00
O847   O     0.16668   0.53960   0.81487   0.00000  Uiso   1.00
O848   O     0.16666   0.46040   0.68513   0.00000  Uiso   1.00
O849   O     0.20585   0.42598   0.88490   0.00000  Uiso   1.00
C850   C     0.24720   0.43828   0.87637   0.00000  Uiso   1.00
H851   H     0.24936   0.46936   0.85413   0.00000  Uiso   1.00
H852   H     0.26241   0.40862   0.85923   0.00000  Uiso   1.00
H853   H     0.26438   0.44484   0.90767   0.00000  Uiso   1.00
O854   O     0.12743   0.57400   0.61510   0.00000  Uiso   1.00
C855   C     0.08610   0.56163   0.62365   0.00000  Uiso   1.00
H856   H     0.07087   0.59125   0.64083   0.00000  Uiso   1.00
H857   H     0.08397   0.53052   0.64586   0.00000  Uiso   1.00
H858   H     0.06892   0.55508   0.59235   0.00000  Uiso   1.00
C859   C     0.42068   0.49998   0.74992   0.00000  Uiso   1.00
C860   C     0.57932   0.50002   0.75008   0.00000  Uiso   1.00
C861   C     0.46489   0.57583   0.52177   0.00000  Uiso   1.00
C862   C     0.53511   0.42417   0.97823   0.00000  Uiso   1.00
C863   C     0.35457   0.45757   0.75366   0.00000  Uiso   1.00
C864   C     0.64543   0.54243   0.74634   0.00000  Uiso   1.00
C865   C     0.64532   0.45760   0.75383   0.00000  Uiso   1.00
C866   C     0.35468   0.54240   0.74617   0.00000  Uiso   1.00
C867   C     0.62393   0.50003   0.75013   0.00000  Uiso   1.00
C868   C     0.37607   0.49997   0.74987   0.00000  Uiso   1.00
C869   C     0.47356   0.35817   0.72348   0.00000  Uiso   1.00
C870   C     0.52644   0.64183   0.77652   0.00000  Uiso   1.00
C871   C     0.52645   0.35812   0.77651   0.00000  Uiso   1.00
C872   C     0.47355   0.64188   0.72349   0.00000  Uiso   1.00
C873   C     0.49926   0.50006   0.66434   0.00000  Uiso   1.00
C874   C     0.50074   0.49994   0.83566   0.00000  Uiso   1.00
C875   C     0.52063   0.46255   0.90744   0.00000  Uiso   1.00
C876   C     0.47936   0.53744   0.59257   0.00000  Uiso   1.00
C877   C     0.50214   0.49989   0.88402   0.00000  Uiso   1.00
C878   C     0.49786   0.50011   0.61598   0.00000  Uiso   1.00
C879   C     0.48479   0.53769   0.90686   0.00000  Uiso   1.00
C880   C     0.51523   0.46232   0.59314   0.00000  Uiso   1.00
C881   C     0.48403   0.53809   0.95296   0.00000  Uiso   1.00
C882   C     0.51598   0.46192   0.54704   0.00000  Uiso   1.00
C883   C     0.50075   0.50001   0.97671   0.00000  Uiso   1.00
C884   C     0.49927   0.50000   0.52329   0.00000  Uiso   1.00
C885   C     0.51892   0.46196   0.95398   0.00000  Uiso   1.00
C886   C     0.48108   0.53804   0.54603   0.00000  Uiso   1.00
C887   C     0.46633   0.57579   0.97563   0.00000  Uiso   1.00
C888   C     0.53368   0.42422   0.52437   0.00000  Uiso   1.00
Cu889  Cu    0.50000   0.54689   0.75000   0.00000  Uiso   1.00
Cu890  Cu    0.50000   0.45311   0.75000   0.00000  Uiso   1.00
H891   H     0.47108   0.56651   0.88863   0.00000  Uiso   1.00
H892   H     0.52894   0.43350   0.61137   0.00000  Uiso   1.00
H893   H     0.45347   0.60525   0.95765   0.00000  Uiso   1.00
H894   H     0.54653   0.39476   0.54235   0.00000  Uiso   1.00
H895   H     0.45102   0.60555   0.53831   0.00000  Uiso   1.00
H896   H     0.54897   0.39445   0.96169   0.00000  Uiso   1.00
H897   H     0.37055   0.42443   0.75665   0.00000  Uiso   1.00
H898   H     0.62945   0.57557   0.74335   0.00000  Uiso   1.00
H899   H     0.62925   0.42447   0.75697   0.00000  Uiso   1.00
H900   H     0.37075   0.57553   0.74303   0.00000  Uiso   1.00
H901   H     0.45239   0.37690   0.70222   0.00000  Uiso   1.00
H902   H     0.54761   0.62310   0.79778   0.00000  Uiso   1.00
H903   H     0.54764   0.37681   0.79768   0.00000  Uiso   1.00
H904   H     0.45236   0.62319   0.70231   0.00000  Uiso   1.00
N905   N     0.50000   0.61736   0.75000   0.00000  Uiso   1.00
N906   N     0.50000   0.38264   0.75000   0.00000  Uiso   1.00
O907   O     0.43988   0.53958   0.74999   0.00000  Uiso   1.00
O908   O     0.56012   0.46042   0.75000   0.00000  Uiso   1.00
O909   O     0.56012   0.53958   0.75000   0.00000  Uiso   1.00
O910   O     0.43988   0.46042   0.74999   0.00000  Uiso   1.00
O911   O     0.49999   0.53960   0.68513   0.00000  Uiso   1.00
O912   O     0.50001   0.46040   0.81487   0.00000  Uiso   1.00
O913   O     0.50001   0.53960   0.81487   0.00000  Uiso   1.00
O914   O     0.49999   0.46040   0.68513   0.00000  Uiso   1.00
O915   O     0.53919   0.42598   0.88490   0.00000  Uiso   1.00
C916   C     0.58053   0.43828   0.87637   0.00000  Uiso   1.00
H917   H     0.58269   0.46936   0.85413   0.00000  Uiso   1.00
H918   H     0.59575   0.40862   0.85923   0.00000  Uiso   1.00
H919   H     0.59772   0.44484   0.90767   0.00000  Uiso   1.00
O920   O     0.46076   0.57400   0.61510   0.00000  Uiso   1.00
C921   C     0.41943   0.56163   0.62365   0.00000  Uiso   1.00
H922   H     0.40420   0.59125   0.64083   0.00000  Uiso   1.00
H923   H     0.41730   0.53052   0.64586   0.00000  Uiso   1.00
H924   H     0.40225   0.55508   0.59235   0.00000  Uiso   1.00
C925   C     0.75402   0.49998   0.74992   0.00000  Uiso   1.00
C926   C     0.91265   0.50002   0.75008   0.00000  Uiso   1.00
C927   C     0.79822   0.57583   0.52177   0.00000  Uiso   1.00
C928   C     0.86844   0.42417   0.97823   0.00000  Uiso   1.00
C929   C     0.68790   0.45757   0.75366   0.00000  Uiso   1.00
C930   C     0.97877   0.54243   0.74634   0.00000  Uiso   1.00
C931   C     0.97865   0.45760   0.75383   0.00000  Uiso   1.00
C932   C     0.68801   0.54240   0.74617   0.00000  Uiso   1.00
C933   C     0.95726   0.50003   0.75013   0.00000  Uiso   1.00
C934   C     0.70941   0.49997   0.74987   0.00000  Uiso   1.00
C935   C     0.80689   0.35817   0.72348   0.00000  Uiso   1.00
C936   C     0.85977   0.64183   0.77652   0.00000  Uiso   1.00
C937   C     0.85978   0.35812   0.77651   0.00000  Uiso   1.00
C938   C     0.80689   0.64188   0.72349   0.00000  Uiso   1.00
C939   C     0.83260   0.50006   0.66434   0.00000  Uiso   1.00
C940   C     0.83407   0.49994   0.83566   0.00000  Uiso   1.00
C941   C     0.85396   0.46255   0.90744   0.00000  Uiso   1.00
C942   C     0.81270   0.53744   0.59257   0.00000  Uiso   1.00
C943   C     0.83548   0.49989   0.88402   0.00000  Uiso   1.00
C944   C     0.83119   0.50011   0.61598   0.00000  Uiso   1.00
C945   C     0.81812   0.53769   0.90686   0.00000  Uiso   1.00
C946   C     0.84856   0.46232   0.59314   0.00000  Uiso   1.00
C947   C     0.81737   0.53809   0.95296   0.00000  Uiso   1.00
C948   C     0.84931   0.46192   0.54704   0.00000  Uiso   1.00
C949   C     0.83408   0.50001   0.97671   0.00000  Uiso   1.00
C950   C     0.83260   0.50000   0.52329   0.00000  Uiso   1.00
C951   C     0.85225   0.46196   0.95398   0.00000  Uiso   1.00
C952   C     0.81442   0.53804   0.54603   0.00000  Uiso   1.00
C953   C     0.79966   0.57579   0.97563   0.00000  Uiso   1.00
C954   C     0.86701   0.42422   0.52437   0.00000  Uiso   1.00
Cu955  Cu    0.83333   0.54689   0.75000   0.00000  Uiso   1.00
Cu956  Cu    0.83333   0.45311   0.75000   0.00000  Uiso   1.00
H957   H     0.80441   0.56651   0.88863   0.00000  Uiso   1.00
H958   H     0.86227   0.43350   0.61137   0.00000  Uiso   1.00
H959   H     0.78681   0.60525   0.95765   0.00000  Uiso   1.00
H960   H     0.87986   0.39476   0.54235   0.00000  Uiso   1.00
H961   H     0.78436   0.60555   0.53831   0.00000  Uiso   1.00
H962   H     0.88230   0.39445   0.96169   0.00000  Uiso   1.00
H963   H     0.70388   0.42443   0.75665   0.00000  Uiso   1.00
H964   H     0.96278   0.57557   0.74335   0.00000  Uiso   1.00
H965   H     0.96258   0.42447   0.75697   0.00000  Uiso   1.00
H966   H     0.70409   0.57553   0.74303   0.00000  Uiso   1.00
H967   H     0.78573   0.37690   0.70222   0.00000  Uiso   1.00
H968   H     0.88094   0.62310   0.79778   0.00000  Uiso   1.00
H969   H     0.88098   0.37681   0.79768   0.00000  Uiso   1.00
H970   H     0.78569   0.62319   0.70231   0.00000  Uiso   1.00
N971   N     0.83333   0.61736   0.75000   0.00000  Uiso   1.00
N972   N     0.83333   0.38264   0.75000   0.00000  Uiso   1.00
O973   O     0.77321   0.53958   0.74999   0.00000  Uiso   1.00
O974   O     0.89345   0.46042   0.75000   0.00000  Uiso   1.00
O975   O     0.89345   0.53958   0.75000   0.00000  Uiso   1.00
O976   O     0.77321   0.46042   0.74999   0.00000  Uiso   1.00
O977   O     0.83332   0.53960   0.68513   0.00000  Uiso   1.00
O978   O     0.83334   0.46040   0.81487   0.00000  Uiso   1.00
O979   O     0.83334   0.53960   0.81487   0.00000  Uiso   1.00
O980   O     0.83332   0.46040   0.68513   0.00000  Uiso   1.00
O981   O     0.87252   0.42598   0.88490   0.00000  Uiso   1.00
C982   C     0.91387   0.43828   0.87637   0.00000  Uiso   1.00
H983   H     0.91603   0.46936   0.85413   0.00000  Uiso   1.00
H984   H     0.92908   0.40862   0.85923   0.00000  Uiso   1.00
H985   H     0.93105   0.44484   0.90767   0.00000  Uiso   1.00
O986   O     0.79410   0.57400   0.61510   0.00000  Uiso   1.00
C987   C     0.75277   0.56163   0.62365   0.00000  Uiso   1.00
H988   H     0.73754   0.59125   0.64083   0.00000  Uiso   1.00
H989   H     0.75064   0.53052   0.64586   0.00000  Uiso   1.00
H990   H     0.73558   0.55508   0.59235   0.00000  Uiso   1.00
C991   C     0.08735   0.83332   0.74992   0.00000  Uiso   1.00
C992   C     0.24598   0.83335   0.75008   0.00000  Uiso   1.00
C993   C     0.13155   0.90916   0.52177   0.00000  Uiso   1.00
C994   C     0.20178   0.75750   0.97823   0.00000  Uiso   1.00
C995   C     0.02123   0.79091   0.75366   0.00000  Uiso   1.00
C996   C     0.31210   0.87576   0.74634   0.00000  Uiso   1.00
C997   C     0.31199   0.79093   0.75383   0.00000  Uiso   1.00
C998   C     0.02135   0.87573   0.74617   0.00000  Uiso   1.00
C999   C     0.29059   0.83336   0.75013   0.00000  Uiso   1.00
C1000  C     0.04274   0.83331   0.74987   0.00000  Uiso   1.00
C1001  C     0.14023   0.69150   0.72348   0.00000  Uiso   1.00
C1002  C     0.19311   0.97517   0.77652   0.00000  Uiso   1.00
C1003  C     0.19311   0.69146   0.77651   0.00000  Uiso   1.00
C1004  C     0.14022   0.97521   0.72349   0.00000  Uiso   1.00
C1005  C     0.16593   0.83339   0.66434   0.00000  Uiso   1.00
C1006  C     0.16741   0.83327   0.83566   0.00000  Uiso   1.00
C1007  C     0.18729   0.79589   0.90744   0.00000  Uiso   1.00
C1008  C     0.14603   0.87077   0.59257   0.00000  Uiso   1.00
C1009  C     0.16881   0.83322   0.88402   0.00000  Uiso   1.00
C1010  C     0.16452   0.83344   0.61598   0.00000  Uiso   1.00
C1011  C     0.15145   0.87102   0.90686   0.00000  Uiso   1.00
C1012  C     0.18189   0.79566   0.59314   0.00000  Uiso   1.00
C1013  C     0.15070   0.87142   0.95296   0.00000  Uiso   1.00
C1014  C     0.18265   0.79526   0.54704   0.00000  Uiso   1.00
C1015  C     0.16741   0.83334   0.97671   0.00000  Uiso   1.00
C1016  C     0.16593   0.83334   0.52329   0.00000  Uiso   1.00
C1017  C     0.18558   0.79530   0.95398   0.00000  Uiso   1.00
C1018  C     0.14775   0.87137   0.54603   0.00000  Uiso   1.00
C1019  C     0.13300   0.90913   0.97563   0.00000  Uiso   1.00
C1020  C     0.20035   0.75755   0.52437   0.00000  Uiso   1.00
Cu1021 Cu    0.16667   0.88022   0.75000   0.00000  Uiso   1.00
Cu1022 Cu    0.16667   0.78645   0.75000   0.00000  Uiso   1.00
H1023  H     0.13775   0.89985   0.88863   0.00000  Uiso   1.00
H1024  H     0.19561   0.76684   0.61137   0.00000  Uiso   1.00
H1025  H     0.12014   0.93858   0.95765   0.00000  Uiso   1.00
H1026  H     0.21320   0.72809   0.54235   0.00000  Uiso   1.00
H1027  H     0.11769   0.93888   0.53831   0.00000  Uiso   1.00
H1028  H     0.21563   0.72778   0.96169   0.00000  Uiso   1.00
H1029  H     0.03722   0.75776   0.75665   0.00000  Uiso   1.00
H1030  H     0.29612   0.90891   0.74335   0.00000  Uiso   1.00
H1031  H     0.29591   0.75781   0.75697   0.00000  Uiso   1.00
H1032  H     0.03742   0.90886   0.74303   0.00000  Uiso   1.00
H1033  H     0.11906   0.71023   0.70222   0.00000  Uiso   1.00
H1034  H     0.21427   0.95644   0.79778   0.00000  Uiso   1.00
H1035  H     0.21431   0.71015   0.79768   0.00000  Uiso   1.00
H1036  H     0.11902   0.95652   0.70231   0.00000  Uiso   1.00
N1037  N     0.16667   0.95069   0.75000   0.00000  Uiso   1.00
N1038  N     0.16667   0.71598   0.75000   0.00000  Uiso   1.00
O1039  O     0.10655   0.87291   0.74999   0.00000  Uiso   1.00
O1040  O     0.22679   0.79375   0.75000   0.00000  Uiso   1.00
O1041  O     0.22679   0.87291   0.75000   0.00000  Uiso   1.00
O1042  O     0.10655   0.79375   0.74999   0.00000  Uiso   1.00
O1043  O     0.16666   0.87293   0.68513   0.00000  Uiso   1.00
O1044  O     0.16668   0.79373   0.81487   0.00000  Uiso   1.00
O1045  O     0.16668   0.87293   0.81487   0.00000  Uiso   1.00
O1046  O     0.16666   0.79373   0.68513   0.00000  Uiso   1.00
O1047  O     0.20585   0.75931   0.88490   0.00000  Uiso   1.00
C1048  C     0.24720   0.77162   0.87637   0.00000  Uiso   1.00
H1049  H     0.24936   0.80270   0.85413   0.00000  Uiso   1.00
H1050  H     0.26241   0.74195   0.85923   0.00000  Uiso   1.00
H1051  H     0.26438   0.77818   0.90767   0.00000  Uiso   1.00
O1052  O     0.12743   0.90733   0.61510   0.00000  Uiso   1.00
C1053  C     0.08610   0.89496   0.62365   0.00000  Uiso   1.00
H1054  H     0.07087   0.92459   0.64083   0.00000  Uiso   1.00
H1055  H     0.08397   0.86385   0.64586   0.00000  Uiso   1.00
H1056  H     0.06892   0.88841   0.59235   0.00000  Uiso   1.00
C1057  C     0.42068   0.83332   0.74992   0.00000  Uiso   1.00
C1058  C     0.57932   0.83335   0.75008   0.00000  Uiso   1.00
C1059  C     0.46489   0.90916   0.52177   0.00000  Uiso   1.00
C1060  C     0.53511   0.75750   0.97823   0.00000  Uiso   1.00
C1061  C     0.35457   0.79091   0.75366   0.00000  Uiso   1.00
C1062  C     0.64543   0.87576   0.74634   0.00000  Uiso   1.00
C1063  C     0.64532   0.79093   0.75383   0.00000  Uiso   1.00
C1064  C     0.35468   0.87573   0.74617   0.00000  Uiso   1.00
C1065  C     0.62393   0.83336   0.75013   0.00000  Uiso   1.00
C1066  C     0.37607   0.83331   0.74987   0.00000  Uiso   1.00
C1067  C     0.47356   0.69150   0.72348   0.00000  Uiso   1.00
C1068  C     0.52644   0.97517   0.77652   0.00000  Uiso   1.00
C1069  C     0.52645   0.69146   0.77651   0.00000  Uiso   1.00
C1070  C     0.47355   0.97521   0.72349   0.00000  Uiso   1.00
C1071  C     0.49926   0.83339   0.66434   0.00000  Uiso   1.00
C1072  C     0.50074   0.83327   0.83566   0.00000  Uiso   1.00
C1073  C     0.52063   0.79589   0.90744   0.00000  Uiso   1.00
C1074  C     0.47936   0.87077   0.59257   0.00000  Uiso   1.00
C1075  C     0.50214   0.83322   0.88402   0.00000  Uiso   1.00
C1076  C     0.49786   0.83344   0.61598   0.00000  Uiso   1.00
C1077  C     0.48479   0.87102   0.90686   0.00000  Uiso   1.00
C1078  C     0.51523   0.79566   0.59314   0.00000  Uiso   1.00
C1079  C     0.48403   0.87142   0.95296   0.00000  Uiso   1.00
C1080  C     0.51598   0.79526   0.54704   0.00000  Uiso   1.00
C1081  C     0.50075   0.83334   0.97671   0.00000  Uiso   1.00
C1082  C     0.49927   0.83334   0.52329   0.00000  Uiso   1.00
C1083  C     0.51892   0.79530   0.95398   0.00000  Uiso   1.00
C1084  C     0.48108   0.87137   0.54603   0.00000  Uiso   1.00
C1085  C     0.46633   0.90913   0.97563   0.00000  Uiso   1.00
C1086  C     0.53368   0.75755   0.52437   0.00000  Uiso   1.00
Cu1087 Cu    0.50000   0.88022   0.75000   0.00000  Uiso   1.00
Cu1088 Cu    0.50000   0.78645   0.75000   0.00000  Uiso   1.00
H1089  H     0.47108   0.89985   0.88863   0.00000  Uiso   1.00
H1090  H     0.52894   0.76684   0.61137   0.00000  Uiso   1.00
H1091  H     0.45347   0.93858   0.95765   0.00000  Uiso   1.00
H1092  H     0.54653   0.72809   0.54235   0.00000  Uiso   1.00
H1093  H     0.45102   0.93888   0.53831   0.00000  Uiso   1.00
H1094  H     0.54897   0.72778   0.96169   0.00000  Uiso   1.00
H1095  H     0.37055   0.75776   0.75665   0.00000  Uiso   1.00
H1096  H     0.62945   0.90891   0.74335   0.00000  Uiso   1.00
H1097  H     0.62925   0.75781   0.75697   0.00000  Uiso   1.00
H1098  H     0.37075   0.90886   0.74303   0.00000  Uiso   1.00
H1099  H     0.45239   0.71023   0.70222   0.00000  Uiso   1.00
H1100  H     0.54761   0.95644   0.79778   0.00000  Uiso   1.00
H1101  H     0.54764   0.71015   0.79768   0.00000  Uiso   1.00
H1102  H     0.45236   0.95652   0.70231   0.00000  Uiso   1.00
N1103  N     0.50000   0.95069   0.75000   0.00000  Uiso   1.00
N1104  N     0.50000   0.71598   0.75000   0.00000  Uiso   1.00
O1105  O     0.43988   0.87291   0.74999   0.00000  Uiso   1.00
O1106  O     0.56012   0.79375   0.75000   0.00000  Uiso   1.00
O1107  O     0.56012   0.87291   0.75000   0.00000  Uiso   1.00
O1108  O     0.43988   0.79375   0.74999   0.00000  Uiso   1.00
O1109  O     0.49999   0.87293   0.68513   0.00000  Uiso   1.00
O1110  O     0.50001   0.79373   0.81487   0.00000  Uiso   1.00
O1111  O     0.50001   0.87293   0.81487   0.00000  Uiso   1.00
O1112  O     0.49999   0.79373   0.68513   0.00000  Uiso   1.00
O1113  O     0.53919   0.75931   0.88490   0.00000  Uiso   1.00
C1114  C     0.58053   0.77162   0.87637   0.00000  Uiso   1.00
H1115  H     0.58269   0.80270   0.85413   0.00000  Uiso   1.00
H1116  H     0.59575   0.74195   0.85923   0.00000  Uiso   1.00
H1117  H     0.59772   0.77818   0.90767   0.00000  Uiso   1.00
O1118  O     0.46076   0.90733   0.61510   0.00000  Uiso   1.00
C1119  C     0.41943   0.89496   0.62365   0.00000  Uiso   1.00
H1120  H     0.40420   0.92459   0.64083   0.00000  Uiso   1.00
H1121  H     0.41730   0.86385   0.64586   0.00000  Uiso   1.00
H1122  H     0.40225   0.88841   0.59235   0.00000  Uiso   1.00
C1123  C     0.75402   0.83332   0.74992   0.00000  Uiso   1.00
C1124  C     0.91265   0.83335   0.75008   0.00000  Uiso   1.00
C1125  C     0.79822   0.90916   0.52177   0.00000  Uiso   1.00
C1126  C     0.86844   0.75750   0.97823   0.00000  Uiso   1.00
C1127  C     0.68790   0.79091   0.75366   0.00000  Uiso   1.00
C1128  C     0.97877   0.87576   0.74634   0.00000  Uiso   1.00
C1129  C     0.97865   0.79093   0.75383   0.00000  Uiso   1.00
C1130  C     0.68801   0.87573   0.74617   0.00000  Uiso   1.00
C1131  C     0.95726   0.83336   0.75013   0.00000  Uiso   1.00
C1132  C     0.70941   0.83331   0.74987   0.00000  Uiso   1.00
C1133  C     0.80689   0.69150   0.72348   0.00000  Uiso   1.00
C1134  C     0.85977   0.97517   0.77652   0.00000  Uiso   1.00
C1135  C     0.85978   0.69146   0.77651   0.00000  Uiso   1.00
C1136  C     0.80689   0.97521   0.72349   0.00000  Uiso   1.00
C1137  C     0.83260   0.83339   0.66434   0.00000  Uiso   1.00
C1138  C     0.83407   0.83327   0.83566   0.00000  Uiso   1.00
C1139  C     0.85396   0.79589   0.90744   0.00000  Uiso   1.00
C1140  C     0.81270   0.87077   0.59257   0.00000  Uiso   1.00
C1141  C     0.83548   0.83322   0.88402   0.00000  Uiso   1.00
C1142  C     0.83119   0.83344   0.61598   0.00000  Uiso   1.00
C1143  C     0.81812   0.87102   0.90686   0.00000  Uiso   1.00
C1144  C     0.84856   0.79566   0.59314   0.00000  Uiso   1.00
C1145  C     0.81737   0.87142   0.95296   0.00000  Uiso   1.00
C1146  C     0.84931   0.79526   0.54704   0.00000  Uiso   1.00
C1147  C     0.83408   0.83334   0.97671   0.00000  Uiso   1.00
C1148  C     0.83260   0.83334   0.52329   0.00000  Uiso   1.00
C1149  C     0.85225   0.79530   0.95398   0.00000  Uiso   1.00
C1150  C     0.81442   0.87137   0.54603   0.00000  Uiso   1.00
C1151  C     0.79966   0.90913   0.97563   0.00000  Uiso   1.00
C1152  C     0.86701   0.75755   0.52437   0.00000  Uiso   1.00
Cu1153 Cu    0.83333   0.88022   0.75000   0.00000  Uiso   1.00
Cu1154 Cu    0.83333   0.78645   0.75000   0.00000  Uiso   1.00
H1155  H     0.80441   0.89985   0.88863   0.00000  Uiso   1.00
H1156  H     0.86227   0.76684   0.61137   0.00000  Uiso   1.00
H1157  H     0.78681   0.93858   0.95765   0.00000  Uiso   1.00
H1158  H     0.87986   0.72809   0.54235   0.00000  Uiso   1.00
H1159  H     0.78436   0.93888   0.53831   0.00000  Uiso   1.00
H1160  H     0.88230   0.72778   0.96169   0.00000  Uiso   1.00
H1161  H     0.70388   0.75776   0.75665   0.00000  Uiso   1.00
H1162  H     0.96278   0.90891   0.74335   0.00000  Uiso   1.00
H1163  H     0.96258   0.75781   0.75697   0.00000  Uiso   1.00
H1164  H     0.70409   0.90886   0.74303   0.00000  Uiso   1.00
H1165  H     0.78573   0.71023   0.70222   0.00000  Uiso   1.00
H1166  H     0.88094   0.95644   0.79778   0.00000  Uiso   1.00
H1167  H     0.88098   0.71015   0.79768   0.00000  Uiso   1.00
H1168  H     0.78569   0.95652   0.70231   0.00000  Uiso   1.00
N1169  N     0.83333   0.95069   0.75000   0.00000  Uiso   1.00
N1170  N     0.83333   0.71598   0.75000   0.00000  Uiso   1.00
O1171  O     0.77321   0.87291   0.74999   0.00000  Uiso   1.00
O1172  O     0.89345   0.79375   0.75000   0.00000  Uiso   1.00
O1173  O     0.89345   0.87291   0.75000   0.00000  Uiso   1.00
O1174  O     0.77321   0.79375   0.74999   0.00000  Uiso   1.00
O1175  O     0.83332   0.87293   0.68513   0.00000  Uiso   1.00
O1176  O     0.83334   0.79373   0.81487   0.00000  Uiso   1.00
O1177  O     0.83334   0.87293   0.81487   0.00000  Uiso   1.00
O1178  O     0.83332   0.79373   0.68513   0.00000  Uiso   1.00
O1179  O     0.87252   0.75931   0.88490   0.00000  Uiso   1.00
C1180  C     0.91387   0.77162   0.87637   0.00000  Uiso   1.00
H1181  H     0.91603   0.80270   0.85413   0.00000  Uiso   1.00
H1182  H     0.92908   0.74195   0.85923   0.00000  Uiso   1.00
H1183  H     0.93105   0.77818   0.90767   0.00000  Uiso   1.00
O1184  O     0.79410   0.90733   0.61510   0.00000  Uiso   1.00
C1185  C     0.75277   0.89496   0.62365   0.00000  Uiso   1.00
H1186  H     0.73754   0.92459   0.64083   0.00000  Uiso   1.00
H1187  H     0.75064   0.86385   0.64586   0.00000  Uiso   1.00
H1188  H     0.73558   0.88841   0.59235   0.00000  Uiso   1.00
loop_
_geom_bond_atom_site_label_1
_geom_bond_atom_site_label_2
_geom_bond_distance
_geom_bond_site_symmetry_2
_ccdc_geom_bond_type
C1     O52     1.290   .     A
C1     O49     1.290   .     A
C1     C10     1.449   .     S
C2     O51     1.290   .     A
C2     O50     1.290   .     A
C2     C9      1.449   .     S
C3     C28     1.405   .     A
C3     H37     1.083   .     S
C3     C623    1.392   1_554 S
C4     C27     1.405   .     A
C4     H38     1.083   .     S
C4     C624    1.392   .     S
C5     H39     1.083   .     S
C5     C10     1.401   .     A
C5     C139    1.383   1_455 S
C6     H40     1.083   .     S
C6     C9      1.401   .     A
C6     C74     1.383   .     S
C7     C9      1.401   .     A
C7     H41     1.083   .     S
C7     C71     1.383   .     S
C8     H42     1.083   .     S
C8     C10     1.401   .     A
C8     C138    1.383   1_455 S
C11    H43     1.082   .     S
C11    N48     1.367   .     A
C11    C410    1.416   1_545 S
C12    H44     1.082   .     S
C12    N47     1.367   .     A
C12    C211    1.416   .     S
C13    N48     1.367   .     A
C13    H45     1.081   .     S
C13    C408    1.416   1_545 S
C14    H46     1.081   .     S
C14    N47     1.367   .     A
C14    C209    1.416   .     S
C15    O56     1.293   .     A
C15    C20     1.459   .     S
C15    O53     1.292   .     A
C16    C19     1.459   .     S
C16    O55     1.293   .     A
C16    O54     1.292   .     A
C17    C19     1.412   .     A
C17    C27     1.405   .     A
C17    O57     1.385   .     S
C18    C28     1.405   .     A
C18    C20     1.412   .     A
C18    O62     1.385   .     S
C19    C21     1.399   .     A
C20    C22     1.399   .     A
C21    C23     1.391   .     A
C21    H33     1.085   .     S
C22    C24     1.391   .     A
C22    H34     1.085   .     S
C23    C29     1.400   .     A
C23    C25     1.410   .     A
C24    C30     1.400   .     A
C24    C26     1.410   .     A
C25    C27     1.414   .     A
C25    C620    1.405   .     S
C26    C28     1.414   .     A
C26    C619    1.405   1_554 S
C29    H35     1.084   .     S
C29    C597    1.392   .     S
C30    H36     1.084   .     S
C30    C598    1.392   1_554 S
Cu31   Cu32    2.676   .     S
Cu31   N47     2.011   .     S
Cu31   O53     1.968   .     S
Cu31   O49     1.964   .     S
Cu31   O51     1.965   .     S
Cu31   O55     1.967   .     S
Cu32   O52     1.965   .     S
Cu32   N48     2.011   .     S
Cu32   O50     1.964   .     S
Cu32   O54     1.968   .     S
Cu32   O56     1.967   .     S
O57    C58     1.411   .     S
C58    H61     1.113   .     S
C58    H60     1.109   .     S
C58    H59     1.113   .     S
O62    C63     1.411   .     S
C63    H65     1.113   .     S
C63    H66     1.113   .     S
C63    H64     1.109   .     S
C67    O118    1.290   .     A
C67    O115    1.290   .     A
C67    C76     1.449   .     S
C68    O117    1.290   .     A
C68    O116    1.290   .     A
C68    C75     1.449   .     S
C69    C94     1.405   .     A
C69    H103    1.083   .     S
C69    C689    1.392   1_554 S
C70    C93     1.405   .     A
C70    H104    1.083   .     S
C70    C690    1.392   .     S
C71    H105    1.083   .     S
C71    C76     1.401   .     A
C72    H106    1.083   .     S
C72    C75     1.401   .     A
C72    C140    1.383   .     S
C73    C75     1.401   .     A
C73    H107    1.083   .     S
C73    C137    1.383   .     S
C74    H108    1.083   .     S
C74    C76     1.401   .     A
C77    H109    1.082   .     S
C77    N114    1.367   .     A
C77    C476    1.416   1_545 S
C78    H110    1.082   .     S
C78    N113    1.367   .     A
C78    C277    1.416   .     S
C79    N114    1.367   .     A
C79    H111    1.081   .     S
C79    C474    1.416   1_545 S
C80    H112    1.081   .     S
C80    N113    1.367   .     A
C80    C275    1.416   .     S
C81    O122    1.293   .     A
C81    C86     1.459   .     S
C81    O119    1.292   .     A
C82    C85     1.459   .     S
C82    O121    1.293   .     A
C82    O120    1.292   .     A
C83    C85     1.412   .     A
C83    C93     1.405   .     A
C83    O123    1.385   .     S
C84    C94     1.405   .     A
C84    C86     1.412   .     A
C84    O128    1.385   .     S
C85    C87     1.399   .     A
C86    C88     1.399   .     A
C87    C89     1.391   .     A
C87    H99     1.085   .     S
C88    C90     1.391   .     A
C88    H100    1.085   .     S
C89    C95     1.400   .     A
C89    C91     1.410   .     A
C90    C96     1.400   .     A
C90    C92     1.410   .     A
C91    C93     1.414   .     A
C91    C686    1.405   .     S
C92    C94     1.414   .     A
C92    C685    1.405   1_554 S
C95    H101    1.084   .     S
C95    C663    1.392   .     S
C96    H102    1.084   .     S
C96    C664    1.392   1_554 S
Cu97   Cu98    2.676   .     S
Cu97   N113    2.011   .     S
Cu97   O119    1.968   .     S
Cu97   O115    1.964   .     S
Cu97   O117    1.965   .     S
Cu97   O121    1.967   .     S
Cu98   O118    1.965   .     S
Cu98   N114    2.011   .     S
Cu98   O116    1.964   .     S
Cu98   O120    1.968   .     S
Cu98   O122    1.967   .     S
O123   C124    1.411   .     S
C124   H127    1.113   .     S
C124   H126    1.109   .     S
C124   H125    1.113   .     S
O128   C129    1.411   .     S
C129   H131    1.113   .     S
C129   H132    1.113   .     S
C129   H130    1.109   .     S
C133   O184    1.290   .     A
C133   O181    1.290   .     A
C133   C142    1.449   .     S
C134   O183    1.290   .     A
C134   O182    1.290   .     A
C134   C141    1.449   .     S
C135   C160    1.405   .     A
C135   H169    1.083   .     S
C135   C755    1.392   1_554 S
C136   C159    1.405   .     A
C136   H170    1.083   .     S
C136   C756    1.392   .     S
C137   H171    1.083   .     S
C137   C142    1.401   .     A
C138   H172    1.083   .     S
C138   C141    1.401   .     A
C138   C8      1.383   1_655 S
C139   C141    1.401   .     A
C139   H173    1.083   .     S
C139   C5      1.383   1_655 S
C140   H174    1.083   .     S
C140   C142    1.401   .     A
C143   H175    1.082   .     S
C143   N180    1.367   .     A
C143   C542    1.416   1_545 S
C144   H176    1.082   .     S
C144   N179    1.367   .     A
C144   C343    1.416   .     S
C145   N180    1.367   .     A
C145   H177    1.081   .     S
C145   C540    1.416   1_545 S
C146   H178    1.081   .     S
C146   N179    1.367   .     A
C146   C341    1.416   .     S
C147   O188    1.293   .     A
C147   C152    1.459   .     S
C147   O185    1.292   .     A
C148   C151    1.459   .     S
C148   O187    1.293   .     A
C148   O186    1.292   .     A
C149   C151    1.412   .     A
C149   C159    1.405   .     A
C149   O189    1.385   .     S
C150   C160    1.405   .     A
C150   C152    1.412   .     A
C150   O194    1.385   .     S
C151   C153    1.399   .     A
C152   C154    1.399   .     A
C153   C155    1.391   .     A
C153   H165    1.085   .     S
C154   C156    1.391   .     A
C154   H166    1.085   .     S
C155   C161    1.400   .     A
C155   C157    1.410   .     A
C156   C162    1.400   .     A
C156   C158    1.410   .     A
C157   C159    1.414   .     A
C157   C752    1.405   .     S
C158   C160    1.414   .     A
C158   C751    1.405   1_554 S
C161   H167    1.084   .     S
C161   C729    1.392   .     S
C162   H168    1.084   .     S
C162   C730    1.392   1_554 S
Cu163  Cu164   2.676   .     S
Cu163  N179    2.011   .     S
Cu163  O185    1.968   .     S
Cu163  O181    1.964   .     S
Cu163  O183    1.965   .     S
Cu163  O187    1.967   .     S
Cu164  O184    1.965   .     S
Cu164  N180    2.011   .     S
Cu164  O182    1.964   .     S
Cu164  O186    1.968   .     S
Cu164  O188    1.967   .     S
O189   C190    1.411   .     S
C190   H193    1.113   .     S
C190   H192    1.109   .     S
C190   H191    1.113   .     S
O194   C195    1.411   .     S
C195   H197    1.113   .     S
C195   H198    1.113   .     S
C195   H196    1.109   .     S
C199   O250    1.290   .     A
C199   O247    1.290   .     A
C199   C208    1.449   .     S
C200   O249    1.290   .     A
C200   O248    1.290   .     A
C200   C207    1.449   .     S
C201   C226    1.405   .     A
C201   H235    1.083   .     S
C201   C821    1.392   1_554 S
C202   C225    1.405   .     A
C202   H236    1.083   .     S
C202   C822    1.392   .     S
C203   H237    1.083   .     S
C203   C208    1.401   .     A
C203   C337    1.383   1_455 S
C204   H238    1.083   .     S
C204   C207    1.401   .     A
C204   C272    1.383   .     S
C205   C207    1.401   .     A
C205   H239    1.083   .     S
C205   C269    1.383   .     S
C206   H240    1.083   .     S
C206   C208    1.401   .     A
C206   C336    1.383   1_455 S
C209   H241    1.082   .     S
C209   N246    1.367   .     A
C210   H242    1.082   .     S
C210   N245    1.367   .     A
C210   C409    1.416   .     S
C211   N246    1.367   .     A
C211   H243    1.081   .     S
C212   H244    1.081   .     S
C212   N245    1.367   .     A
C212   C407    1.416   .     S
C213   O254    1.293   .     A
C213   C218    1.459   .     S
C213   O251    1.292   .     A
C214   C217    1.459   .     S
C214   O253    1.293   .     A
C214   O252    1.292   .     A
C215   C217    1.412   .     A
C215   C225    1.405   .     A
C215   O255    1.385   .     S
C216   C226    1.405   .     A
C216   C218    1.412   .     A
C216   O260    1.385   .     S
C217   C219    1.399   .     A
C218   C220    1.399   .     A
C219   C221    1.391   .     A
C219   H231    1.085   .     S
C220   C222    1.391   .     A
C220   H232    1.085   .     S
C221   C227    1.400   .     A
C221   C223    1.410   .     A
C222   C228    1.400   .     A
C222   C224    1.410   .     A
C223   C225    1.414   .     A
C223   C818    1.405   .     S
C224   C226    1.414   .     A
C224   C817    1.405   1_554 S
C227   H233    1.084   .     S
C227   C795    1.392   .     S
C228   H234    1.084   .     S
C228   C796    1.392   1_554 S
Cu229  Cu230   2.676   .     S
Cu229  N245    2.011   .     S
Cu229  O251    1.968   .     S
Cu229  O247    1.964   .     S
Cu229  O249    1.965   .     S
Cu229  O253    1.967   .     S
Cu230  O250    1.965   .     S
Cu230  N246    2.011   .     S
Cu230  O248    1.964   .     S
Cu230  O252    1.968   .     S
Cu230  O254    1.967   .     S
O255   C256    1.411   .     S
C256   H259    1.113   .     S
C256   H258    1.109   .     S
C256   H257    1.113   .     S
O260   C261    1.411   .     S
C261   H263    1.113   .     S
C261   H264    1.113   .     S
C261   H262    1.109   .     S
C265   O316    1.290   .     A
C265   O313    1.290   .     A
C265   C274    1.449   .     S
C266   O315    1.290   .     A
C266   O314    1.290   .     A
C266   C273    1.449   .     S
C267   C292    1.405   .     A
C267   H301    1.083   .     S
C267   C887    1.392   1_554 S
C268   C291    1.405   .     A
C268   H302    1.083   .     S
C268   C888    1.392   .     S
C269   H303    1.083   .     S
C269   C274    1.401   .     A
C270   H304    1.083   .     S
C270   C273    1.401   .     A
C270   C338    1.383   .     S
C271   C273    1.401   .     A
C271   H305    1.083   .     S
C271   C335    1.383   .     S
C272   H306    1.083   .     S
C272   C274    1.401   .     A
C275   H307    1.082   .     S
C275   N312    1.367   .     A
C276   H308    1.082   .     S
C276   N311    1.367   .     A
C276   C475    1.416   .     S
C277   N312    1.367   .     A
C277   H309    1.081   .     S
C278   H310    1.081   .     S
C278   N311    1.367   .     A
C278   C473    1.416   .     S
C279   O320    1.293   .     A
C279   C284    1.459   .     S
C279   O317    1.292   .     A
C280   C283    1.459   .     S
C280   O319    1.293   .     A
C280   O318    1.292   .     A
C281   C283    1.412   .     A
C281   C291    1.405   .     A
C281   O321    1.385   .     S
C282   C292    1.405   .     A
C282   C284    1.412   .     A
C282   O326    1.385   .     S
C283   C285    1.399   .     A
C284   C286    1.399   .     A
C285   C287    1.391   .     A
C285   H297    1.085   .     S
C286   C288    1.391   .     A
C286   H298    1.085   .     S
C287   C293    1.400   .     A
C287   C289    1.410   .     A
C288   C294    1.400   .     A
C288   C290    1.410   .     A
C289   C291    1.414   .     A
C289   C884    1.405   .     S
C290   C292    1.414   .     A
C290   C883    1.405   1_554 S
C293   H299    1.084   .     S
C293   C861    1.392   .     S
C294   H300    1.084   .     S
C294   C862    1.392   1_554 S
Cu295  Cu296   2.676   .     S
Cu295  N311    2.011   .     S
Cu295  O317    1.968   .     S
Cu295  O313    1.964   .     S
Cu295  O315    1.965   .     S
Cu295  O319    1.967   .     S
Cu296  O316    1.965   .     S
Cu296  N312    2.011   .     S
Cu296  O314    1.964   .     S
Cu296  O318    1.968   .     S
Cu296  O320    1.967   .     S
O321   C322    1.411   .     S
C322   H325    1.113   .     S
C322   H324    1.109   .     S
C322   H323    1.113   .     S
O326   C327    1.411   .     S
C327   H329    1.113   .     S
C327   H330    1.113   .     S
C327   H328    1.109   .     S
C331   O382    1.290   .     A
C331   O379    1.290   .     A
C331   C340    1.449   .     S
C332   O381    1.290   .     A
C332   O380    1.290   .     A
C332   C339    1.449   .     S
C333   C358    1.405   .     A
C333   H367    1.083   .     S
C333   C953    1.392   1_554 S
C334   C357    1.405   .     A
C334   H368    1.083   .     S
C334   C954    1.392   .     S
C335   H369    1.083   .     S
C335   C340    1.401   .     A
C336   H370    1.083   .     S
C336   C339    1.401   .     A
C336   C206    1.383   1_655 S
C337   C339    1.401   .     A
C337   H371    1.083   .     S
C337   C203    1.383   1_655 S
C338   H372    1.083   .     S
C338   C340    1.401   .     A
C341   H373    1.082   .     S
C341   N378    1.367   .     A
C342   H374    1.082   .     S
C342   N377    1.367   .     A
C342   C541    1.416   .     S
C343   N378    1.367   .     A
C343   H375    1.081   .     S
C344   H376    1.081   .     S
C344   N377    1.367   .     A
C344   C539    1.416   .     S
C345   O386    1.293   .     A
C345   C350    1.459   .     S
C345   O383    1.292   .     A
C346   C349    1.459   .     S
C346   O385    1.293   .     A
C346   O384    1.292   .     A
C347   C349    1.412   .     A
C347   C357    1.405   .     A
C347   O387    1.385   .     S
C348   C358    1.405   .     A
C348   C350    1.412   .     A
C348   O392    1.385   .     S
C349   C351    1.399   .     A
C350   C352    1.399   .     A
C351   C353    1.391   .     A
C351   H363    1.085   .     S
C352   C354    1.391   .     A
C352   H364    1.085   .     S
C353   C359    1.400   .     A
C353   C355    1.410   .     A
C354   C360    1.400   .     A
C354   C356    1.410   .     A
C355   C357    1.414   .     A
C355   C950    1.405   .     S
C356   C358    1.414   .     A
C356   C949    1.405   1_554 S
C359   H365    1.084   .     S
C359   C927    1.392   .     S
C360   H366    1.084   .     S
C360   C928    1.392   1_554 S
Cu361  Cu362   2.676   .     S
Cu361  N377    2.011   .     S
Cu361  O383    1.968   .     S
Cu361  O379    1.964   .     S
Cu361  O381    1.965   .     S
Cu361  O385    1.967   .     S
Cu362  O382    1.965   .     S
Cu362  N378    2.011   .     S
Cu362  O380    1.964   .     S
Cu362  O384    1.968   .     S
Cu362  O386    1.967   .     S
O387   C388    1.411   .     S
C388   H391    1.113   .     S
C388   H390    1.109   .     S
C388   H389    1.113   .     S
O392   C393    1.411   .     S
C393   H395    1.113   .     S
C393   H396    1.113   .     S
C393   H394    1.109   .     S
C397   O448    1.290   .     A
C397   O445    1.290   .     A
C397   C406    1.449   .     S
C398   O447    1.290   .     A
C398   O446    1.290   .     A
C398   C405    1.449   .     S
C399   C424    1.405   .     A
C399   H433    1.083   .     S
C399   C1019   1.392   1_554 S
C400   C423    1.405   .     A
C400   H434    1.083   .     S
C400   C1020   1.392   .     S
C401   H435    1.083   .     S
C401   C406    1.401   .     A
C401   C535    1.383   1_455 S
C402   H436    1.083   .     S
C402   C405    1.401   .     A
C402   C470    1.383   .     S
C403   C405    1.401   .     A
C403   H437    1.083   .     S
C403   C467    1.383   .     S
C404   H438    1.083   .     S
C404   C406    1.401   .     A
C404   C534    1.383   1_455 S
C407   H439    1.082   .     S
C407   N444    1.367   .     A
C408   H440    1.082   .     S
C408   N443    1.367   .     A
C408   C13     1.416   1_565 S
C409   N444    1.367   .     A
C409   H441    1.081   .     S
C410   H442    1.081   .     S
C410   N443    1.367   .     A
C410   C11     1.416   1_565 S
C411   O452    1.293   .     A
C411   C416    1.459   .     S
C411   O449    1.292   .     A
C412   C415    1.459   .     S
C412   O451    1.293   .     A
C412   O450    1.292   .     A
C413   C415    1.412   .     A
C413   C423    1.405   .     A
C413   O453    1.385   .     S
C414   C424    1.405   .     A
C414   C416    1.412   .     A
C414   O458    1.385   .     S
C415   C417    1.399   .     A
C416   C418    1.399   .     A
C417   C419    1.391   .     A
C417   H429    1.085   .     S
C418   C420    1.391   .     A
C418   H430    1.085   .     S
C419   C425    1.400   .     A
C419   C421    1.410   .     A
C420   C426    1.400   .     A
C420   C422    1.410   .     A
C421   C423    1.414   .     A
C421   C1016   1.405   .     S
C422   C424    1.414   .     A
C422   C1015   1.405   1_554 S
C425   H431    1.084   .     S
C425   C993    1.392   .     S
C426   H432    1.084   .     S
C426   C994    1.392   1_554 S
Cu427  Cu428   2.676   .     S
Cu427  N443    2.011   .     S
Cu427  O449    1.968   .     S
Cu427  O445    1.964   .     S
Cu427  O447    1.965   .     S
Cu427  O451    1.967   .     S
Cu428  O448    1.965   .     S
Cu428  N444    2.011   .     S
Cu428  O446    1.964   .     S
Cu428  O450    1.968   .     S
Cu428  O452    1.967   .     S
O453   C454    1.411   .     S
C454   H457    1.113   .     S
C454   H456    1.109   .     S
C454   H455    1.113   .     S
O458   C459    1.411   .     S
C459   H461    1.113   .     S
C459   H462    1.113   .     S
C459   H460    1.109   .     S
C463   O514    1.290   .     A
C463   O511    1.290   .     A
C463   C472    1.449   .     S
C464   O513    1.290   .     A
C464   O512    1.290   .     A
C464   C471    1.449   .     S
C465   C490    1.405   .     A
C465   H499    1.083   .     S
C465   C1085   1.392   1_554 S
C466   C489    1.405   .     A
C466   H500    1.083   .     S
C466   C1086   1.392   .     S
C467   H501    1.083   .     S
C467   C472    1.401   .     A
C468   H502    1.083   .     S
C468   C471    1.401   .     A
C468   C536    1.383   .     S
C469   C471    1.401   .     A
C469   H503    1.083   .     S
C469   C533    1.383   .     S
C470   H504    1.083   .     S
C470   C472    1.401   .     A
C473   H505    1.082   .     S
C473   N510    1.367   .     A
C474   H506    1.082   .     S
C474   N509    1.367   .     A
C474   C79     1.416   1_565 S
C475   N510    1.367   .     A
C475   H507    1.081   .     S
C476   H508    1.081   .     S
C476   N509    1.367   .     A
C476   C77     1.416   1_565 S
C477   O518    1.293   .     A
C477   C482    1.459   .     S
C477   O515    1.292   .     A
C478   C481    1.459   .     S
C478   O517    1.293   .     A
C478   O516    1.292   .     A
C479   C481    1.412   .     A
C479   C489    1.405   .     A
C479   O519    1.385   .     S
C480   C490    1.405   .     A
C480   C482    1.412   .     A
C480   O524    1.385   .     S
C481   C483    1.399   .     A
C482   C484    1.399   .     A
C483   C485    1.391   .     A
C483   H495    1.085   .     S
C484   C486    1.391   .     A
C484   H496    1.085   .     S
C485   C491    1.400   .     A
C485   C487    1.410   .     A
C486   C492    1.400   .     A
C486   C488    1.410   .     A
C487   C489    1.414   .     A
C487   C1082   1.405   .     S
C488   C490    1.414   .     A
C488   C1081   1.405   1_554 S
C491   H497    1.084   .     S
C491   C1059   1.392   .     S
C492   H498    1.084   .     S
C492   C1060   1.392   1_554 S
Cu493  Cu494   2.676   .     S
Cu493  N509    2.011   .     S
Cu493  O515    1.968   .     S
Cu493  O511    1.964   .     S
Cu493  O513    1.965   .     S
Cu493  O517    1.967   .     S
Cu494  O514    1.965   .     S
Cu494  N510    2.011   .     S
Cu494  O512    1.964   .     S
Cu494  O516    1.968   .     S
Cu494  O518    1.967   .     S
O519   C520    1.411   .     S
C520   H523    1.113   .     S
C520   H522    1.109   .     S
C520   H521    1.113   .     S
O524   C525    1.411   .     S
C525   H527    1.113   .     S
C525   H528    1.113   .     S
C525   H526    1.109   .     S
C529   O580    1.290   .     A
C529   O577    1.290   .     A
C529   C538    1.449   .     S
C530   O579    1.290   .     A
C530   O578    1.290   .     A
C530   C537    1.449   .     S
C531   C556    1.405   .     A
C531   H565    1.083   .     S
C531   C1151   1.392   1_554 S
C532   C555    1.405   .     A
C532   H566    1.083   .     S
C532   C1152   1.392   .     S
C533   H567    1.083   .     S
C533   C538    1.401   .     A
C534   H568    1.083   .     S
C534   C537    1.401   .     A
C534   C404    1.383   1_655 S
C535   C537    1.401   .     A
C535   H569    1.083   .     S
C535   C401    1.383   1_655 S
C536   H570    1.083   .     S
C536   C538    1.401   .     A
C539   H571    1.082   .     S
C539   N576    1.367   .     A
C540   H572    1.082   .     S
C540   N575    1.367   .     A
C540   C145    1.416   1_565 S
C541   N576    1.367   .     A
C541   H573    1.081   .     S
C542   H574    1.081   .     S
C542   N575    1.367   .     A
C542   C143    1.416   1_565 S
C543   O584    1.293   .     A
C543   C548    1.459   .     S
C543   O581    1.292   .     A
C544   C547    1.459   .     S
C544   O583    1.293   .     A
C544   O582    1.292   .     A
C545   C547    1.412   .     A
C545   C555    1.405   .     A
C545   O585    1.385   .     S
C546   C556    1.405   .     A
C546   C548    1.412   .     A
C546   O590    1.385   .     S
C547   C549    1.399   .     A
C548   C550    1.399   .     A
C549   C551    1.391   .     A
C549   H561    1.085   .     S
C550   C552    1.391   .     A
C550   H562    1.085   .     S
C551   C557    1.400   .     A
C551   C553    1.410   .     A
C552   C558    1.400   .     A
C552   C554    1.410   .     A
C553   C555    1.414   .     A
C553   C1148   1.405   .     S
C554   C556    1.414   .     A
C554   C1147   1.405   1_554 S
C557   H563    1.084   .     S
C557   C1125   1.392   .     S
C558   H564    1.084   .     S
C558   C1126   1.392   1_554 S
Cu559  Cu560   2.676   .     S
Cu559  N575    2.011   .     S
Cu559  O581    1.968   .     S
Cu559  O577    1.964   .     S
Cu559  O579    1.965   .     S
Cu559  O583    1.967   .     S
Cu560  O580    1.965   .     S
Cu560  N576    2.011   .     S
Cu560  O578    1.964   .     S
Cu560  O582    1.968   .     S
Cu560  O584    1.967   .     S
O585   C586    1.411   .     S
C586   H589    1.113   .     S
C586   H588    1.109   .     S
C586   H587    1.113   .     S
O590   C591    1.411   .     S
C591   H593    1.113   .     S
C591   H594    1.113   .     S
C591   H592    1.109   .     S
C595   O646    1.290   .     A
C595   O643    1.290   .     A
C595   C604    1.449   .     S
C596   O645    1.290   .     A
C596   O644    1.290   .     A
C596   C603    1.449   .     S
C597   C622    1.405   .     A
C597   H631    1.083   .     S
C598   C621    1.405   .     A
C598   H632    1.083   .     S
C598   C30     1.392   1_556 S
C599   H633    1.083   .     S
C599   C604    1.401   .     A
C599   C733    1.383   1_455 S
C600   H634    1.083   .     S
C600   C603    1.401   .     A
C600   C668    1.383   .     S
C601   C603    1.401   .     A
C601   H635    1.083   .     S
C601   C665    1.383   .     S
C602   H636    1.083   .     S
C602   C604    1.401   .     A
C602   C732    1.383   1_455 S
C605   H637    1.082   .     S
C605   N642    1.367   .     A
C605   C1004   1.416   1_545 S
C606   H638    1.082   .     S
C606   N641    1.367   .     A
C606   C805    1.416   .     S
C607   N642    1.367   .     A
C607   H639    1.081   .     S
C607   C1002   1.416   1_545 S
C608   H640    1.081   .     S
C608   N641    1.367   .     A
C608   C803    1.416   .     S
C609   O650    1.293   .     A
C609   C614    1.459   .     S
C609   O647    1.292   .     A
C610   C613    1.459   .     S
C610   O649    1.293   .     A
C610   O648    1.292   .     A
C611   C613    1.412   .     A
C611   C621    1.405   .     A
C611   O651    1.385   .     S
C612   C622    1.405   .     A
C612   C614    1.412   .     A
C612   O656    1.385   .     S
C613   C615    1.399   .     A
C614   C616    1.399   .     A
C615   C617    1.391   .     A
C615   H627    1.085   .     S
C616   C618    1.391   .     A
C616   H628    1.085   .     S
C617   C623    1.400   .     A
C617   C619    1.410   .     A
C618   C624    1.400   .     A
C618   C620    1.410   .     A
C619   C621    1.414   .     A
C619   C26     1.405   1_556 S
C620   C622    1.414   .     A
C623   H629    1.084   .     S
C623   C3      1.392   1_556 S
C624   H630    1.084   .     S
Cu625  Cu626   2.676   .     S
Cu625  N641    2.011   .     S
Cu625  O647    1.968   .     S
Cu625  O643    1.964   .     S
Cu625  O645    1.965   .     S
Cu625  O649    1.967   .     S
Cu626  O646    1.965   .     S
Cu626  N642    2.011   .     S
Cu626  O644    1.964   .     S
Cu626  O648    1.968   .     S
Cu626  O650    1.967   .     S
O651   C652    1.411   .     S
C652   H655    1.113   .     S
C652   H654    1.109   .     S
C652   H653    1.113   .     S
O656   C657    1.411   .     S
C657   H659    1.113   .     S
C657   H660    1.113   .     S
C657   H658    1.109   .     S
C661   O712    1.290   .     A
C661   O709    1.290   .     A
C661   C670    1.449   .     S
C662   O711    1.290   .     A
C662   O710    1.290   .     A
C662   C669    1.449   .     S
C663   C688    1.405   .     A
C663   H697    1.083   .     S
C664   C687    1.405   .     A
C664   H698    1.083   .     S
C664   C96     1.392   1_556 S
C665   H699    1.083   .     S
C665   C670    1.401   .     A
C666   H700    1.083   .     S
C666   C669    1.401   .     A
C666   C734    1.383   .     S
C667   C669    1.401   .     A
C667   H701    1.083   .     S
C667   C731    1.383   .     S
C668   H702    1.083   .     S
C668   C670    1.401   .     A
C671   H703    1.082   .     S
C671   N708    1.367   .     A
C671   C1070   1.416   1_545 S
C672   H704    1.082   .     S
C672   N707    1.367   .     A
C672   C871    1.416   .     S
C673   N708    1.367   .     A
C673   H705    1.081   .     S
C673   C1068   1.416   1_545 S
C674   H706    1.081   .     S
C674   N707    1.367   .     A
C674   C869    1.416   .     S
C675   O716    1.293   .     A
C675   C680    1.459   .     S
C675   O713    1.292   .     A
C676   C679    1.459   .     S
C676   O715    1.293   .     A
C676   O714    1.292   .     A
C677   C679    1.412   .     A
C677   C687    1.405   .     A
C677   O717    1.385   .     S
C678   C688    1.405   .     A
C678   C680    1.412   .     A
C678   O722    1.385   .     S
C679   C681    1.399   .     A
C680   C682    1.399   .     A
C681   C683    1.391   .     A
C681   H693    1.085   .     S
C682   C684    1.391   .     A
C682   H694    1.085   .     S
C683   C689    1.400   .     A
C683   C685    1.410   .     A
C684   C690    1.400   .     A
C684   C686    1.410   .     A
C685   C687    1.414   .     A
C685   C92     1.405   1_556 S
C686   C688    1.414   .     A
C689   H695    1.084   .     S
C689   C69     1.392   1_556 S
C690   H696    1.084   .     S
Cu691  Cu692   2.676   .     S
Cu691  N707    2.011   .     S
Cu691  O713    1.968   .     S
Cu691  O709    1.964   .     S
Cu691  O711    1.965   .     S
Cu691  O715    1.967   .     S
Cu692  O712    1.965   .     S
Cu692  N708    2.011   .     S
Cu692  O710    1.964   .     S
Cu692  O714    1.968   .     S
Cu692  O716    1.967   .     S
O717   C718    1.411   .     S
C718   H721    1.113   .     S
C718   H720    1.109   .     S
C718   H719    1.113   .     S
O722   C723    1.411   .     S
C723   H725    1.113   .     S
C723   H726    1.113   .     S
C723   H724    1.109   .     S
C727   O778    1.290   .     A
C727   O775    1.290   .     A
C727   C736    1.449   .     S
C728   O777    1.290   .     A
C728   O776    1.290   .     A
C728   C735    1.449   .     S
C729   C754    1.405   .     A
C729   H763    1.083   .     S
C730   C753    1.405   .     A
C730   H764    1.083   .     S
C730   C162    1.392   1_556 S
C731   H765    1.083   .     S
C731   C736    1.401   .     A
C732   H766    1.083   .     S
C732   C735    1.401   .     A
C732   C602    1.383   1_655 S
C733   C735    1.401   .     A
C733   H767    1.083   .     S
C733   C599    1.383   1_655 S
C734   H768    1.083   .     S
C734   C736    1.401   .     A
C737   H769    1.082   .     S
C737   N774    1.367   .     A
C737   C1136   1.416   1_545 S
C738   H770    1.082   .     S
C738   N773    1.367   .     A
C738   C937    1.416   .     S
C739   N774    1.367   .     A
C739   H771    1.081   .     S
C739   C1134   1.416   1_545 S
C740   H772    1.081   .     S
C740   N773    1.367   .     A
C740   C935    1.416   .     S
C741   O782    1.293   .     A
C741   C746    1.459   .     S
C741   O779    1.292   .     A
C742   C745    1.459   .     S
C742   O781    1.293   .     A
C742   O780    1.292   .     A
C743   C745    1.412   .     A
C743   C753    1.405   .     A
C743   O783    1.385   .     S
C744   C754    1.405   .     A
C744   C746    1.412   .     A
C744   O788    1.385   .     S
C745   C747    1.399   .     A
C746   C748    1.399   .     A
C747   C749    1.391   .     A
C747   H759    1.085   .     S
C748   C750    1.391   .     A
C748   H760    1.085   .     S
C749   C755    1.400   .     A
C749   C751    1.410   .     A
C750   C756    1.400   .     A
C750   C752    1.410   .     A
C751   C753    1.414   .     A
C751   C158    1.405   1_556 S
C752   C754    1.414   .     A
C755   H761    1.084   .     S
C755   C135    1.392   1_556 S
C756   H762    1.084   .     S
Cu757  Cu758   2.676   .     S
Cu757  N773    2.011   .     S
Cu757  O779    1.968   .     S
Cu757  O775    1.964   .     S
Cu757  O777    1.965   .     S
Cu757  O781    1.967   .     S
Cu758  O778    1.965   .     S
Cu758  N774    2.011   .     S
Cu758  O776    1.964   .     S
Cu758  O780    1.968   .     S
Cu758  O782    1.967   .     S
O783   C784    1.411   .     S
C784   H787    1.113   .     S
C784   H786    1.109   .     S
C784   H785    1.113   .     S
O788   C789    1.411   .     S
C789   H791    1.113   .     S
C789   H792    1.113   .     S
C789   H790    1.109   .     S
C793   O844    1.290   .     A
C793   O841    1.290   .     A
C793   C802    1.449   .     S
C794   O843    1.290   .     A
C794   O842    1.290   .     A
C794   C801    1.449   .     S
C795   C820    1.405   .     A
C795   H829    1.083   .     S
C796   C819    1.405   .     A
C796   H830    1.083   .     S
C796   C228    1.392   1_556 S
C797   H831    1.083   .     S
C797   C802    1.401   .     A
C797   C931    1.383   1_455 S
C798   H832    1.083   .     S
C798   C801    1.401   .     A
C798   C866    1.383   .     S
C799   C801    1.401   .     A
C799   H833    1.083   .     S
C799   C863    1.383   .     S
C800   H834    1.083   .     S
C800   C802    1.401   .     A
C800   C930    1.383   1_455 S
C803   H835    1.082   .     S
C803   N840    1.367   .     A
C804   H836    1.082   .     S
C804   N839    1.367   .     A
C804   C1003   1.416   .     S
C805   N840    1.367   .     A
C805   H837    1.081   .     S
C806   H838    1.081   .     S
C806   N839    1.367   .     A
C806   C1001   1.416   .     S
C807   O848    1.293   .     A
C807   C812    1.459   .     S
C807   O845    1.292   .     A
C808   C811    1.459   .     S
C808   O847    1.293   .     A
C808   O846    1.292   .     A
C809   C811    1.412   .     A
C809   C819    1.405   .     A
C809   O849    1.385   .     S
C810   C820    1.405   .     A
C810   C812    1.412   .     A
C810   O854    1.385   .     S
C811   C813    1.399   .     A
C812   C814    1.399   .     A
C813   C815    1.391   .     A
C813   H825    1.085   .     S
C814   C816    1.391   .     A
C814   H826    1.085   .     S
C815   C821    1.400   .     A
C815   C817    1.410   .     A
C816   C822    1.400   .     A
C816   C818    1.410   .     A
C817   C819    1.414   .     A
C817   C224    1.405   1_556 S
C818   C820    1.414   .     A
C821   H827    1.084   .     S
C821   C201    1.392   1_556 S
C822   H828    1.084   .     S
Cu823  Cu824   2.676   .     S
Cu823  N839    2.011   .     S
Cu823  O845    1.968   .     S
Cu823  O841    1.964   .     S
Cu823  O843    1.965   .     S
Cu823  O847    1.967   .     S
Cu824  O844    1.965   .     S
Cu824  N840    2.011   .     S
Cu824  O842    1.964   .     S
Cu824  O846    1.968   .     S
Cu824  O848    1.967   .     S
O849   C850    1.411   .     S
C850   H853    1.113   .     S
C850   H852    1.109   .     S
C850   H851    1.113   .     S
O854   C855    1.411   .     S
C855   H857    1.113   .     S
C855   H858    1.113   .     S
C855   H856    1.109   .     S
C859   O910    1.290   .     A
C859   O907    1.290   .     A
C859   C868    1.449   .     S
C860   O909    1.290   .     A
C860   O908    1.290   .     A
C860   C867    1.449   .     S
C861   C886    1.405   .     A
C861   H895    1.083   .     S
C862   C885    1.405   .     A
C862   H896    1.083   .     S
C862   C294    1.392   1_556 S
C863   H897    1.083   .     S
C863   C868    1.401   .     A
C864   H898    1.083   .     S
C864   C867    1.401   .     A
C864   C932    1.383   .     S
C865   C867    1.401   .     A
C865   H899    1.083   .     S
C865   C929    1.383   .     S
C866   H900    1.083   .     S
C866   C868    1.401   .     A
C869   H901    1.082   .     S
C869   N906    1.367   .     A
C870   H902    1.082   .     S
C870   N905    1.367   .     A
C870   C1069   1.416   .     S
C871   N906    1.367   .     A
C871   H903    1.081   .     S
C872   H904    1.081   .     S
C872   N905    1.367   .     A
C872   C1067   1.416   .     S
C873   O914    1.293   .     A
C873   C878    1.459   .     S
C873   O911    1.292   .     A
C874   C877    1.459   .     S
C874   O913    1.293   .     A
C874   O912    1.292   .     A
C875   C877    1.412   .     A
C875   C885    1.405   .     A
C875   O915    1.385   .     S
C876   C886    1.405   .     A
C876   C878    1.412   .     A
C876   O920    1.385   .     S
C877   C879    1.399   .     A
C878   C880    1.399   .     A
C879   C881    1.391   .     A
C879   H891    1.085   .     S
C880   C882    1.391   .     A
C880   H892    1.085   .     S
C881   C887    1.400   .     A
C881   C883    1.410   .     A
C882   C888    1.400   .     A
C882   C884    1.410   .     A
C883   C885    1.414   .     A
C883   C290    1.405   1_556 S
C884   C886    1.414   .     A
C887   H893    1.084   .     S
C887   C267    1.392   1_556 S
C888   H894    1.084   .     S
Cu889  Cu890   2.676   .     S
Cu889  N905    2.011   .     S
Cu889  O911    1.968   .     S
Cu889  O907    1.964   .     S
Cu889  O909    1.965   .     S
Cu889  O913    1.967   .     S
Cu890  O910    1.965   .     S
Cu890  N906    2.011   .     S
Cu890  O908    1.964   .     S
Cu890  O912    1.968   .     S
Cu890  O914    1.967   .     S
O915   C916    1.411   .     S
C916   H919    1.113   .     S
C916   H918    1.109   .     S
C916   H917    1.113   .     S
O920   C921    1.411   .     S
C921   H923    1.113   .     S
C921   H924    1.113   .     S
C921   H922    1.109   .     S
C925   O976    1.290   .     A
C925   O973    1.290   .     A
C925   C934    1.449   .     S
C926   O975    1.290   .     A
C926   O974    1.290   .     A
C926   C933    1.449   .     S
C927   C952    1.405   .     A
C927   H961    1.083   .     S
C928   C951    1.405   .     A
C928   H962    1.083   .     S
C928   C360    1.392   1_556 S
C929   H963    1.083   .     S
C929   C934    1.401   .     A
C930   H964    1.083   .     S
C930   C933    1.401   .     A
C930   C800    1.383   1_655 S
C931   C933    1.401   .     A
C931   H965    1.083   .     S
C931   C797    1.383   1_655 S
C932   H966    1.083   .     S
C932   C934    1.401   .     A
C935   H967    1.082   .     S
C935   N972    1.367   .     A
C936   H968    1.082   .     S
C936   N971    1.367   .     A
C936   C1135   1.416   .     S
C937   N972    1.367   .     A
C937   H969    1.081   .     S
C938   H970    1.081   .     S
C938   N971    1.367   .     A
C938   C1133   1.416   .     S
C939   O980    1.293   .     A
C939   C944    1.459   .     S
C939   O977    1.292   .     A
C940   C943    1.459   .     S
C940   O979    1.293   .     A
C940   O978    1.292   .     A
C941   C943    1.412   .     A
C941   C951    1.405   .     A
C941   O981    1.385   .     S
C942   C952    1.405   .     A
C942   C944    1.412   .     A
C942   O986    1.385   .     S
C943   C945    1.399   .     A
C944   C946    1.399   .     A
C945   C947    1.391   .     A
C945   H957    1.085   .     S
C946   C948    1.391   .     A
C946   H958    1.085   .     S
C947   C953    1.400   .     A
C947   C949    1.410   .     A
C948   C954    1.400   .     A
C948   C950    1.410   .     A
C949   C951    1.414   .     A
C949   C356    1.405   1_556 S
C950   C952    1.414   .     A
C953   H959    1.084   .     S
C953   C333    1.392   1_556 S
C954   H960    1.084   .     S
Cu955  Cu956   2.676   .     S
Cu955  N971    2.011   .     S
Cu955  O977    1.968   .     S
Cu955  O973    1.964   .     S
Cu955  O975    1.965   .     S
Cu955  O979    1.967   .     S
Cu956  O976    1.965   .     S
Cu956  N972    2.011   .     S
Cu956  O974    1.964   .     S
Cu956  O978    1.968   .     S
Cu956  O980    1.967   .     S
O981   C982    1.411   .     S
C982   H985    1.113   .     S
C982   H984    1.109   .     S
C982   H983    1.113   .     S
O986   C987    1.411   .     S
C987   H989    1.113   .     S
C987   H990    1.113   .     S
C987   H988    1.109   .     S
C991   O1042   1.290   .     A
C991   O1039   1.290   .     A
C991   C1000   1.449   .     S
C992   O1041   1.290   .     A
C992   O1040   1.290   .     A
C992   C999    1.449   .     S
C993   C1018   1.405   .     A
C993   H1027   1.083   .     S
C994   C1017   1.405   .     A
C994   H1028   1.083   .     S
C994   C426    1.392   1_556 S
C995   H1029   1.083   .     S
C995   C1000   1.401   .     A
C995   C1129   1.383   1_455 S
C996   H1030   1.083   .     S
C996   C999    1.401   .     A
C996   C1064   1.383   .     S
C997   C999    1.401   .     A
C997   H1031   1.083   .     S
C997   C1061   1.383   .     S
C998   H1032   1.083   .     S
C998   C1000   1.401   .     A
C998   C1128   1.383   1_455 S
C1001  H1033   1.082   .     S
C1001  N1038   1.367   .     A
C1002  H1034   1.082   .     S
C1002  N1037   1.367   .     A
C1002  C607    1.416   1_565 S
C1003  N1038   1.367   .     A
C1003  H1035   1.081   .     S
C1004  H1036   1.081   .     S
C1004  N1037   1.367   .     A
C1004  C605    1.416   1_565 S
C1005  O1046   1.293   .     A
C1005  C1010   1.459   .     S
C1005  O1043   1.292   .     A
C1006  C1009   1.459   .     S
C1006  O1045   1.293   .     A
C1006  O1044   1.292   .     A
C1007  C1009   1.412   .     A
C1007  C1017   1.405   .     A
C1007  O1047   1.385   .     S
C1008  C1018   1.405   .     A
C1008  C1010   1.412   .     A
C1008  O1052   1.385   .     S
C1009  C1011   1.399   .     A
C1010  C1012   1.399   .     A
C1011  C1013   1.391   .     A
C1011  H1023   1.085   .     S
C1012  C1014   1.391   .     A
C1012  H1024   1.085   .     S
C1013  C1019   1.400   .     A
C1013  C1015   1.410   .     A
C1014  C1020   1.400   .     A
C1014  C1016   1.410   .     A
C1015  C1017   1.414   .     A
C1015  C422    1.405   1_556 S
C1016  C1018   1.414   .     A
C1019  H1025   1.084   .     S
C1019  C399    1.392   1_556 S
C1020  H1026   1.084   .     S
Cu1021 Cu1022  2.676   .     S
Cu1021 N1037   2.011   .     S
Cu1021 O1043   1.968   .     S
Cu1021 O1039   1.964   .     S
Cu1021 O1041   1.965   .     S
Cu1021 O1045   1.967   .     S
Cu1022 O1042   1.965   .     S
Cu1022 N1038   2.011   .     S
Cu1022 O1040   1.964   .     S
Cu1022 O1044   1.968   .     S
Cu1022 O1046   1.967   .     S
O1047  C1048   1.411   .     S
C1048  H1051   1.113   .     S
C1048  H1050   1.109   .     S
C1048  H1049   1.113   .     S
O1052  C1053   1.411   .     S
C1053  H1055   1.113   .     S
C1053  H1056   1.113   .     S
C1053  H1054   1.109   .     S
C1057  O1108   1.290   .     A
C1057  O1105   1.290   .     A
C1057  C1066   1.449   .     S
C1058  O1107   1.290   .     A
C1058  O1106   1.290   .     A
C1058  C1065   1.449   .     S
C1059  C1084   1.405   .     A
C1059  H1093   1.083   .     S
C1060  C1083   1.405   .     A
C1060  H1094   1.083   .     S
C1060  C492    1.392   1_556 S
C1061  H1095   1.083   .     S
C1061  C1066   1.401   .     A
C1062  H1096   1.083   .     S
C1062  C1065   1.401   .     A
C1062  C1130   1.383   .     S
C1063  C1065   1.401   .     A
C1063  H1097   1.083   .     S
C1063  C1127   1.383   .     S
C1064  H1098   1.083   .     S
C1064  C1066   1.401   .     A
C1067  H1099   1.082   .     S
C1067  N1104   1.367   .     A
C1068  H1100   1.082   .     S
C1068  N1103   1.367   .     A
C1068  C673    1.416   1_565 S
C1069  N1104   1.367   .     A
C1069  H1101   1.081   .     S
C1070  H1102   1.081   .     S
C1070  N1103   1.367   .     A
C1070  C671    1.416   1_565 S
C1071  O1112   1.293   .     A
C1071  C1076   1.459   .     S
C1071  O1109   1.292   .     A
C1072  C1075   1.459   .     S
C1072  O1111   1.293   .     A
C1072  O1110   1.292   .     A
C1073  C1075   1.412   .     A
C1073  C1083   1.405   .     A
C1073  O1113   1.385   .     S
C1074  C1084   1.405   .     A
C1074  C1076   1.412   .     A
C1074  O1118   1.385   .     S
C1075  C1077   1.399   .     A
C1076  C1078   1.399   .     A
C1077  C1079   1.391   .     A
C1077  H1089   1.085   .     S
C1078  C1080   1.391   .     A
C1078  H1090   1.085   .     S
C1079  C1085   1.400   .     A
C1079  C1081   1.410   .     A
C1080  C1086   1.400   .     A
C1080  C1082   1.410   .     A
C1081  C1083   1.414   .     A
C1081  C488    1.405   1_556 S
C1082  C1084   1.414   .     A
C1085  H1091   1.084   .     S
C1085  C465    1.392   1_556 S
C1086  H1092   1.084   .     S
Cu1087 Cu1088  2.676   .     S
Cu1087 N1103   2.011   .     S
Cu1087 O1109   1.968   .     S
Cu1087 O1105   1.964   .     S
Cu1087 O1107   1.965   .     S
Cu1087 O1111   1.967   .     S
Cu1088 O1108   1.965   .     S
Cu1088 N1104   2.011   .     S
Cu1088 O1106   1.964   .     S
Cu1088 O1110   1.968   .     S
Cu1088 O1112   1.967   .     S
O1113  C1114   1.411   .     S
C1114  H1117   1.113   .     S
C1114  H1116   1.109   .     S
C1114  H1115   1.113   .     S
O1118  C1119   1.411   .     S
C1119  H1121   1.113   .     S
C1119  H1122   1.113   .     S
C1119  H1120   1.109   .     S
C1123  O1174   1.290   .     A
C1123  O1171   1.290   .     A
C1123  C1132   1.449   .     S
C1124  O1173   1.290   .     A
C1124  O1172   1.290   .     A
C1124  C1131   1.449   .     S
C1125  C1150   1.405   .     A
C1125  H1159   1.083   .     S
C1126  C1149   1.405   .     A
C1126  H1160   1.083   .     S
C1126  C558    1.392   1_556 S
C1127  H1161   1.083   .     S
C1127  C1132   1.401   .     A
C1128  H1162   1.083   .     S
C1128  C1131   1.401   .     A
C1128  C998    1.383   1_655 S
C1129  C1131   1.401   .     A
C1129  H1163   1.083   .     S
C1129  C995    1.383   1_655 S
C1130  H1164   1.083   .     S
C1130  C1132   1.401   .     A
C1133  H1165   1.082   .     S
C1133  N1170   1.367   .     A
C1134  H1166   1.082   .     S
C1134  N1169   1.367   .     A
C1134  C739    1.416   1_565 S
C1135  N1170   1.367   .     A
C1135  H1167   1.081   .     S
C1136  H1168   1.081   .     S
C1136  N1169   1.367   .     A
C1136  C737    1.416   1_565 S
C1137  O1178   1.293   .     A
C1137  C1142   1.459   .     S
C1137  O1175   1.292   .     A
C1138  C1141   1.459   .     S
C1138  O1177   1.293   .     A
C1138  O1176   1.292   .     A
C1139  C1141   1.412   .     A
C1139  C1149   1.405   .     A
C1139  O1179   1.385   .     S
C1140  C1150   1.405   .     A
C1140  C1142   1.412   .     A
C1140  O1184   1.385   .     S
C1141  C1143   1.399   .     A
C1142  C1144   1.399   .     A
C1143  C1145   1.391   .     A
C1143  H1155   1.085   .     S
C1144  C1146   1.391   .     A
C1144  H1156   1.085   .     S
C1145  C1151   1.400   .     A
C1145  C1147   1.410   .     A
C1146  C1152   1.400   .     A
C1146  C1148   1.410   .     A
C1147  C1149   1.414   .     A
C1147  C554    1.405   1_556 S
C1148  C1150   1.414   .     A
C1151  H1157   1.084   .     S
C1151  C531    1.392   1_556 S
C1152  H1158   1.084   .     S
Cu1153 Cu1154  2.676   .     S
Cu1153 N1169   2.011   .     S
Cu1153 O1175   1.968   .     S
Cu1153 O1171   1.964   .     S
Cu1153 O1173   1.965   .     S
Cu1153 O1177   1.967   .     S
Cu1154 O1174   1.965   .     S
Cu1154 N1170   2.011   .     S
Cu1154 O1172   1.964   .     S
Cu1154 O1176   1.968   .     S
Cu1154 O1178   1.967   .     S
O1179  C1180   1.411   .     S
C1180  H1183   1.113   .     S
C1180  H1182   1.109   .     S
C1180  H1181   1.113   .     S
O1184  C1185   1.411   .     S
C1185  H1187   1.113   .     S
C1185  H1188   1.113   .     S
C1185  H1186   1.109   .     S
