data_str_m3_o10_o18_pcu_sym.23
_audit_creation_date              2020-01-03
_audit_creation_method            'Materials Studio'
_symmetry_space_group_name_H-M    'P1'
_symmetry_Int_Tables_number       1
_symmetry_cell_setting            triclinic
loop_
_symmetry_equiv_pos_as_xyz
  x,y,z
_cell_length_a                    23.6254
_cell_length_b                    25.6797
_cell_length_c                    27.1530
_cell_angle_alpha                 93.7018
_cell_angle_beta                  92.1756
_cell_angle_gamma                 94.1827
loop_
_atom_site_label
_atom_site_type_symbol
_atom_site_fract_x
_atom_site_fract_y
_atom_site_fract_z
_atom_site_U_iso_or_equiv
_atom_site_adp_type
_atom_site_occupancy
O1     O     0.29719   0.24631   0.25310   0.00000  Uiso   1.00
O2     O     0.03614   0.08702   0.24691   0.00000  Uiso   1.00
O3     O     0.05822   0.23702   0.24502   0.00000  Uiso   1.00
O4     O     0.27512   0.09632   0.25499   0.00000  Uiso   1.00
C5     C     0.01498   0.26484   0.24866   0.00000  Uiso   1.00
C6     C     0.31832   0.06848   0.25116   0.00000  Uiso   1.00
O7     O     0.30328   0.17397   0.32247   0.00000  Uiso   1.00
O8     O     0.03005   0.15937   0.17753   0.00000  Uiso   1.00
O9     O     0.06431   0.16467   0.31439   0.00000  Uiso   1.00
O10    O     0.26902   0.16866   0.18561   0.00000  Uiso   1.00
C11    C     0.02048   0.17078   0.34158   0.00000  Uiso   1.00
C12    C     0.31261   0.16134   0.15856   0.00000  Uiso   1.00
Zn13   Zn    0.27033   0.17287   0.25540   0.00000  Uiso   1.00
Zn14   Zn    0.06300   0.16046   0.24461   0.00000  Uiso   1.00
C15    C     0.02925   0.17449   0.39544   0.00000  Uiso   1.00
C16    C     0.30208   0.15046   0.10543   0.00000  Uiso   1.00
C17    C     0.01538   0.21494   0.47677   0.00000  Uiso   1.00
C18    C     0.30343   0.09207   0.03190   0.00000  Uiso   1.00
C19    C     0.32919   0.20357   0.42774   0.00000  Uiso   1.00
C20    C     0.32742   0.11016   0.07821   0.00000  Uiso   1.00
C21    C     0.07731   0.15281   0.41396   0.00000  Uiso   1.00
C22    C     0.25585   0.17320   0.08500   0.00000  Uiso   1.00
C23    C     0.09685   0.16329   0.46299   0.00000  Uiso   1.00
C24    C     0.22729   0.15096   0.04186   0.00000  Uiso   1.00
C25    C     0.06664   0.19700   0.49383   0.00000  Uiso   1.00
C26    C     0.25288   0.11091   0.01434   0.00000  Uiso   1.00
C27    C     0.14814   0.14443   0.48071   0.00000  Uiso   1.00
C28    C     0.17312   0.16602   0.02651   0.00000  Uiso   1.00
C29    C     0.14180   0.19986   0.05645   0.00000  Uiso   1.00
C30    C     0.17488   0.10440   0.45426   0.00000  Uiso   1.00
C31    C     0.08875   0.21373   0.04080   0.00000  Uiso   1.00
C32    C     0.22648   0.08824   0.47078   0.00000  Uiso   1.00
H33    H     0.06575   0.23906   0.06506   0.00000  Uiso   1.00
H34    H     0.24525   0.05703   0.44979   0.00000  Uiso   1.00
H35    H     0.24089   0.20637   0.10563   0.00000  Uiso   1.00
H36    H     0.10167   0.13117   0.38810   0.00000  Uiso   1.00
H37    H     0.32458   0.23909   0.00118   0.00000  Uiso   1.00
H38    H     0.32264   0.06116   0.01085   0.00000  Uiso   1.00
H39    H     0.15574   0.21457   0.09328   0.00000  Uiso   1.00
H40    H     0.15582   0.08314   0.42152   0.00000  Uiso   1.00
C41    C     0.02261   0.31935   0.24723   0.00000  Uiso   1.00
C42    C     0.31061   0.01394   0.25227   0.00000  Uiso   1.00
H43    H     0.06520   0.00291   0.24177   0.00000  Uiso   1.00
H44    H     0.26799   0.33036   0.25765   0.00000  Uiso   1.00
N45    N     0.14695   0.15216   0.23740   0.00000  Uiso   1.00
N46    N     0.18638   0.18117   0.26261   0.00000  Uiso   1.00
N47    N     0.04100   0.08460   0.09806   0.00000  Uiso   1.00
O48    O     0.08878   0.11147   0.11023   0.00000  Uiso   1.00
O49    O     0.03995   0.03376   0.09437   0.00000  Uiso   1.00
N50    N     0.27749   0.22413   0.41122   0.00000  Uiso   1.00
O51    O     0.26888   0.27281   0.42274   0.00000  Uiso   1.00
O52    O     0.23462   0.19214   0.39507   0.00000  Uiso   1.00
N53    N     0.16226   0.10200   0.22544   0.00000  Uiso   1.00
O54    O     0.15650   0.06650   0.25731   0.00000  Uiso   1.00
O55    O     0.17537   0.08864   0.18054   0.00000  Uiso   1.00
N56    N     0.17101   0.23113   0.27533   0.00000  Uiso   1.00
O57    O     0.17499   0.26660   0.24327   0.00000  Uiso   1.00
O58    O     0.16402   0.24522   0.32143   0.00000  Uiso   1.00
O59    O     0.63052   0.24631   0.25310   0.00000  Uiso   1.00
O60    O     0.36948   0.08702   0.24691   0.00000  Uiso   1.00
O61    O     0.39155   0.23702   0.24502   0.00000  Uiso   1.00
O62    O     0.60845   0.09632   0.25499   0.00000  Uiso   1.00
C63    C     0.34831   0.26484   0.24866   0.00000  Uiso   1.00
C64    C     0.65165   0.06848   0.25116   0.00000  Uiso   1.00
O65    O     0.63662   0.17397   0.32247   0.00000  Uiso   1.00
O66    O     0.36338   0.15937   0.17753   0.00000  Uiso   1.00
O67    O     0.39764   0.16467   0.31439   0.00000  Uiso   1.00
O68    O     0.60236   0.16866   0.18561   0.00000  Uiso   1.00
C69    C     0.35381   0.17078   0.34158   0.00000  Uiso   1.00
C70    C     0.64594   0.16134   0.15856   0.00000  Uiso   1.00
Zn71   Zn    0.60366   0.17287   0.25540   0.00000  Uiso   1.00
Zn72   Zn    0.39634   0.16046   0.24461   0.00000  Uiso   1.00
C73    C     0.36259   0.17449   0.39544   0.00000  Uiso   1.00
C74    C     0.63541   0.15046   0.10543   0.00000  Uiso   1.00
C75    C     0.34872   0.21494   0.47677   0.00000  Uiso   1.00
C76    C     0.63677   0.09207   0.03190   0.00000  Uiso   1.00
C77    C     0.66252   0.20357   0.42774   0.00000  Uiso   1.00
C78    C     0.66076   0.11016   0.07821   0.00000  Uiso   1.00
C79    C     0.41064   0.15281   0.41396   0.00000  Uiso   1.00
C80    C     0.58918   0.17320   0.08500   0.00000  Uiso   1.00
C81    C     0.43018   0.16329   0.46299   0.00000  Uiso   1.00
C82    C     0.56062   0.15096   0.04186   0.00000  Uiso   1.00
C83    C     0.39997   0.19700   0.49383   0.00000  Uiso   1.00
C84    C     0.58621   0.11091   0.01434   0.00000  Uiso   1.00
C85    C     0.48148   0.14443   0.48071   0.00000  Uiso   1.00
C86    C     0.50645   0.16602   0.02651   0.00000  Uiso   1.00
C87    C     0.47513   0.19986   0.05645   0.00000  Uiso   1.00
C88    C     0.50822   0.10440   0.45426   0.00000  Uiso   1.00
C89    C     0.42209   0.21373   0.04080   0.00000  Uiso   1.00
C90    C     0.55981   0.08824   0.47078   0.00000  Uiso   1.00
H91    H     0.39908   0.23906   0.06506   0.00000  Uiso   1.00
H92    H     0.57858   0.05703   0.44979   0.00000  Uiso   1.00
H93    H     0.57423   0.20637   0.10563   0.00000  Uiso   1.00
H94    H     0.43501   0.13117   0.38810   0.00000  Uiso   1.00
H95    H     0.65792   0.23909   0.00118   0.00000  Uiso   1.00
H96    H     0.65597   0.06116   0.01085   0.00000  Uiso   1.00
H97    H     0.48907   0.21457   0.09328   0.00000  Uiso   1.00
H98    H     0.48915   0.08314   0.42152   0.00000  Uiso   1.00
C99    C     0.35594   0.31935   0.24723   0.00000  Uiso   1.00
C100   C     0.64394   0.01394   0.25227   0.00000  Uiso   1.00
H101   H     0.39853   0.00291   0.24177   0.00000  Uiso   1.00
H102   H     0.60132   0.33036   0.25765   0.00000  Uiso   1.00
N103   N     0.48029   0.15216   0.23740   0.00000  Uiso   1.00
N104   N     0.51971   0.18117   0.26261   0.00000  Uiso   1.00
N105   N     0.37434   0.08460   0.09806   0.00000  Uiso   1.00
O106   O     0.42212   0.11147   0.11023   0.00000  Uiso   1.00
O107   O     0.37328   0.03376   0.09437   0.00000  Uiso   1.00
N108   N     0.61082   0.22413   0.41122   0.00000  Uiso   1.00
O109   O     0.60221   0.27281   0.42274   0.00000  Uiso   1.00
O110   O     0.56795   0.19214   0.39507   0.00000  Uiso   1.00
N111   N     0.49560   0.10200   0.22544   0.00000  Uiso   1.00
O112   O     0.48983   0.06650   0.25731   0.00000  Uiso   1.00
O113   O     0.50870   0.08864   0.18054   0.00000  Uiso   1.00
N114   N     0.50435   0.23113   0.27533   0.00000  Uiso   1.00
O115   O     0.50833   0.26660   0.24327   0.00000  Uiso   1.00
O116   O     0.49735   0.24522   0.32143   0.00000  Uiso   1.00
O117   O     0.96386   0.24631   0.25310   0.00000  Uiso   1.00
O118   O     0.70281   0.08702   0.24691   0.00000  Uiso   1.00
O119   O     0.72488   0.23702   0.24502   0.00000  Uiso   1.00
O120   O     0.94178   0.09632   0.25499   0.00000  Uiso   1.00
C121   C     0.68165   0.26484   0.24866   0.00000  Uiso   1.00
C122   C     0.98499   0.06848   0.25116   0.00000  Uiso   1.00
O123   O     0.96995   0.17397   0.32247   0.00000  Uiso   1.00
O124   O     0.69672   0.15937   0.17753   0.00000  Uiso   1.00
O125   O     0.73098   0.16467   0.31439   0.00000  Uiso   1.00
O126   O     0.93569   0.16866   0.18561   0.00000  Uiso   1.00
C127   C     0.68715   0.17078   0.34158   0.00000  Uiso   1.00
C128   C     0.97927   0.16134   0.15856   0.00000  Uiso   1.00
Zn129  Zn    0.93700   0.17287   0.25540   0.00000  Uiso   1.00
Zn130  Zn    0.72967   0.16046   0.24461   0.00000  Uiso   1.00
C131   C     0.69592   0.17449   0.39544   0.00000  Uiso   1.00
C132   C     0.96874   0.15046   0.10543   0.00000  Uiso   1.00
C133   C     0.68205   0.21494   0.47677   0.00000  Uiso   1.00
C134   C     0.97010   0.09207   0.03190   0.00000  Uiso   1.00
C135   C     0.99585   0.20357   0.42774   0.00000  Uiso   1.00
C136   C     0.99409   0.11016   0.07821   0.00000  Uiso   1.00
C137   C     0.74397   0.15281   0.41396   0.00000  Uiso   1.00
C138   C     0.92252   0.17320   0.08500   0.00000  Uiso   1.00
C139   C     0.76352   0.16329   0.46299   0.00000  Uiso   1.00
C140   C     0.89396   0.15096   0.04186   0.00000  Uiso   1.00
C141   C     0.73331   0.19700   0.49383   0.00000  Uiso   1.00
C142   C     0.91955   0.11091   0.01434   0.00000  Uiso   1.00
C143   C     0.81481   0.14443   0.48071   0.00000  Uiso   1.00
C144   C     0.83978   0.16602   0.02651   0.00000  Uiso   1.00
C145   C     0.80847   0.19986   0.05645   0.00000  Uiso   1.00
C146   C     0.84155   0.10440   0.45426   0.00000  Uiso   1.00
C147   C     0.75542   0.21373   0.04080   0.00000  Uiso   1.00
C148   C     0.89315   0.08824   0.47078   0.00000  Uiso   1.00
H149   H     0.73241   0.23906   0.06506   0.00000  Uiso   1.00
H150   H     0.91191   0.05703   0.44979   0.00000  Uiso   1.00
H151   H     0.90756   0.20637   0.10563   0.00000  Uiso   1.00
H152   H     0.76834   0.13117   0.38810   0.00000  Uiso   1.00
H153   H     0.99125   0.23909   0.00118   0.00000  Uiso   1.00
H154   H     0.98930   0.06116   0.01085   0.00000  Uiso   1.00
H155   H     0.82241   0.21457   0.09328   0.00000  Uiso   1.00
H156   H     0.82248   0.08314   0.42152   0.00000  Uiso   1.00
C157   C     0.68928   0.31935   0.24723   0.00000  Uiso   1.00
C158   C     0.97727   0.01394   0.25227   0.00000  Uiso   1.00
H159   H     0.73186   0.00291   0.24177   0.00000  Uiso   1.00
H160   H     0.93466   0.33036   0.25765   0.00000  Uiso   1.00
N161   N     0.81362   0.15216   0.23740   0.00000  Uiso   1.00
N162   N     0.85305   0.18117   0.26261   0.00000  Uiso   1.00
N163   N     0.70767   0.08460   0.09806   0.00000  Uiso   1.00
O164   O     0.75545   0.11147   0.11023   0.00000  Uiso   1.00
O165   O     0.70661   0.03376   0.09437   0.00000  Uiso   1.00
N166   N     0.94415   0.22413   0.41122   0.00000  Uiso   1.00
O167   O     0.93555   0.27281   0.42274   0.00000  Uiso   1.00
O168   O     0.90128   0.19214   0.39507   0.00000  Uiso   1.00
N169   N     0.82893   0.10200   0.22544   0.00000  Uiso   1.00
O170   O     0.82317   0.06650   0.25731   0.00000  Uiso   1.00
O171   O     0.84204   0.08864   0.18054   0.00000  Uiso   1.00
N172   N     0.83768   0.23113   0.27533   0.00000  Uiso   1.00
O173   O     0.84166   0.26660   0.24327   0.00000  Uiso   1.00
O174   O     0.83068   0.24522   0.32143   0.00000  Uiso   1.00
O175   O     0.29719   0.57964   0.25310   0.00000  Uiso   1.00
O176   O     0.03614   0.42036   0.24691   0.00000  Uiso   1.00
O177   O     0.05822   0.57035   0.24502   0.00000  Uiso   1.00
O178   O     0.27512   0.42965   0.25499   0.00000  Uiso   1.00
C179   C     0.01498   0.59817   0.24866   0.00000  Uiso   1.00
C180   C     0.31832   0.40181   0.25116   0.00000  Uiso   1.00
O181   O     0.30328   0.50730   0.32247   0.00000  Uiso   1.00
O182   O     0.03005   0.49270   0.17753   0.00000  Uiso   1.00
O183   O     0.06431   0.49801   0.31439   0.00000  Uiso   1.00
O184   O     0.26902   0.50199   0.18561   0.00000  Uiso   1.00
C185   C     0.02048   0.50411   0.34158   0.00000  Uiso   1.00
C186   C     0.31261   0.49467   0.15856   0.00000  Uiso   1.00
Zn187  Zn    0.27033   0.50621   0.25540   0.00000  Uiso   1.00
Zn188  Zn    0.06300   0.49379   0.24461   0.00000  Uiso   1.00
C189   C     0.02925   0.50782   0.39544   0.00000  Uiso   1.00
C190   C     0.30208   0.48379   0.10543   0.00000  Uiso   1.00
C191   C     0.01538   0.54828   0.47677   0.00000  Uiso   1.00
C192   C     0.30343   0.42541   0.03190   0.00000  Uiso   1.00
C193   C     0.32919   0.53690   0.42774   0.00000  Uiso   1.00
C194   C     0.32742   0.44350   0.07821   0.00000  Uiso   1.00
C195   C     0.07731   0.48614   0.41396   0.00000  Uiso   1.00
C196   C     0.25585   0.50653   0.08500   0.00000  Uiso   1.00
C197   C     0.09685   0.49663   0.46299   0.00000  Uiso   1.00
C198   C     0.22729   0.48430   0.04186   0.00000  Uiso   1.00
C199   C     0.06664   0.53033   0.49383   0.00000  Uiso   1.00
C200   C     0.25288   0.44424   0.01434   0.00000  Uiso   1.00
C201   C     0.14814   0.47777   0.48071   0.00000  Uiso   1.00
C202   C     0.17312   0.49935   0.02651   0.00000  Uiso   1.00
C203   C     0.14180   0.53319   0.05645   0.00000  Uiso   1.00
C204   C     0.17488   0.43773   0.45426   0.00000  Uiso   1.00
C205   C     0.08875   0.54706   0.04080   0.00000  Uiso   1.00
C206   C     0.22648   0.42157   0.47078   0.00000  Uiso   1.00
H207   H     0.06575   0.57239   0.06506   0.00000  Uiso   1.00
H208   H     0.24525   0.39037   0.44979   0.00000  Uiso   1.00
H209   H     0.24089   0.53970   0.10563   0.00000  Uiso   1.00
H210   H     0.10167   0.46450   0.38810   0.00000  Uiso   1.00
H211   H     0.32458   0.57242   0.00118   0.00000  Uiso   1.00
H212   H     0.32264   0.39449   0.01085   0.00000  Uiso   1.00
H213   H     0.15574   0.54791   0.09328   0.00000  Uiso   1.00
H214   H     0.15582   0.41648   0.42152   0.00000  Uiso   1.00
C215   C     0.02261   0.65268   0.24723   0.00000  Uiso   1.00
C216   C     0.31061   0.34727   0.25227   0.00000  Uiso   1.00
H217   H     0.06520   0.33624   0.24177   0.00000  Uiso   1.00
H218   H     0.26799   0.66369   0.25765   0.00000  Uiso   1.00
N219   N     0.14695   0.48550   0.23740   0.00000  Uiso   1.00
N220   N     0.18638   0.51450   0.26261   0.00000  Uiso   1.00
N221   N     0.04100   0.41793   0.09806   0.00000  Uiso   1.00
O222   O     0.08878   0.44480   0.11023   0.00000  Uiso   1.00
O223   O     0.03995   0.36709   0.09437   0.00000  Uiso   1.00
N224   N     0.27749   0.55747   0.41122   0.00000  Uiso   1.00
O225   O     0.26888   0.60614   0.42274   0.00000  Uiso   1.00
O226   O     0.23462   0.52548   0.39507   0.00000  Uiso   1.00
N227   N     0.16226   0.43534   0.22544   0.00000  Uiso   1.00
O228   O     0.15650   0.39983   0.25731   0.00000  Uiso   1.00
O229   O     0.17537   0.42198   0.18054   0.00000  Uiso   1.00
N230   N     0.17101   0.56446   0.27533   0.00000  Uiso   1.00
O231   O     0.17499   0.59993   0.24327   0.00000  Uiso   1.00
O232   O     0.16402   0.57855   0.32143   0.00000  Uiso   1.00
O233   O     0.63052   0.57964   0.25310   0.00000  Uiso   1.00
O234   O     0.36948   0.42036   0.24691   0.00000  Uiso   1.00
O235   O     0.39155   0.57035   0.24502   0.00000  Uiso   1.00
O236   O     0.60845   0.42965   0.25499   0.00000  Uiso   1.00
C237   C     0.34831   0.59817   0.24866   0.00000  Uiso   1.00
C238   C     0.65165   0.40181   0.25116   0.00000  Uiso   1.00
O239   O     0.63662   0.50730   0.32247   0.00000  Uiso   1.00
O240   O     0.36338   0.49270   0.17753   0.00000  Uiso   1.00
O241   O     0.39764   0.49801   0.31439   0.00000  Uiso   1.00
O242   O     0.60236   0.50199   0.18561   0.00000  Uiso   1.00
C243   C     0.35381   0.50411   0.34158   0.00000  Uiso   1.00
C244   C     0.64594   0.49467   0.15856   0.00000  Uiso   1.00
Zn245  Zn    0.60366   0.50621   0.25540   0.00000  Uiso   1.00
Zn246  Zn    0.39634   0.49379   0.24461   0.00000  Uiso   1.00
C247   C     0.36259   0.50782   0.39544   0.00000  Uiso   1.00
C248   C     0.63541   0.48379   0.10543   0.00000  Uiso   1.00
C249   C     0.34872   0.54828   0.47677   0.00000  Uiso   1.00
C250   C     0.63677   0.42541   0.03190   0.00000  Uiso   1.00
C251   C     0.66252   0.53690   0.42774   0.00000  Uiso   1.00
C252   C     0.66076   0.44350   0.07821   0.00000  Uiso   1.00
C253   C     0.41064   0.48614   0.41396   0.00000  Uiso   1.00
C254   C     0.58918   0.50653   0.08500   0.00000  Uiso   1.00
C255   C     0.43018   0.49663   0.46299   0.00000  Uiso   1.00
C256   C     0.56062   0.48430   0.04186   0.00000  Uiso   1.00
C257   C     0.39997   0.53033   0.49383   0.00000  Uiso   1.00
C258   C     0.58621   0.44424   0.01434   0.00000  Uiso   1.00
C259   C     0.48148   0.47777   0.48071   0.00000  Uiso   1.00
C260   C     0.50645   0.49935   0.02651   0.00000  Uiso   1.00
C261   C     0.47513   0.53319   0.05645   0.00000  Uiso   1.00
C262   C     0.50822   0.43773   0.45426   0.00000  Uiso   1.00
C263   C     0.42209   0.54706   0.04080   0.00000  Uiso   1.00
C264   C     0.55981   0.42157   0.47078   0.00000  Uiso   1.00
H265   H     0.39908   0.57239   0.06506   0.00000  Uiso   1.00
H266   H     0.57858   0.39037   0.44979   0.00000  Uiso   1.00
H267   H     0.57423   0.53970   0.10563   0.00000  Uiso   1.00
H268   H     0.43501   0.46450   0.38810   0.00000  Uiso   1.00
H269   H     0.65792   0.57242   0.00118   0.00000  Uiso   1.00
H270   H     0.65597   0.39449   0.01085   0.00000  Uiso   1.00
H271   H     0.48907   0.54791   0.09328   0.00000  Uiso   1.00
H272   H     0.48915   0.41648   0.42152   0.00000  Uiso   1.00
C273   C     0.35594   0.65268   0.24723   0.00000  Uiso   1.00
C274   C     0.64394   0.34727   0.25227   0.00000  Uiso   1.00
H275   H     0.39853   0.33624   0.24177   0.00000  Uiso   1.00
H276   H     0.60132   0.66369   0.25765   0.00000  Uiso   1.00
N277   N     0.48029   0.48550   0.23740   0.00000  Uiso   1.00
N278   N     0.51971   0.51450   0.26261   0.00000  Uiso   1.00
N279   N     0.37434   0.41793   0.09806   0.00000  Uiso   1.00
O280   O     0.42212   0.44480   0.11023   0.00000  Uiso   1.00
O281   O     0.37328   0.36709   0.09437   0.00000  Uiso   1.00
N282   N     0.61082   0.55747   0.41122   0.00000  Uiso   1.00
O283   O     0.60221   0.60614   0.42274   0.00000  Uiso   1.00
O284   O     0.56795   0.52548   0.39507   0.00000  Uiso   1.00
N285   N     0.49560   0.43534   0.22544   0.00000  Uiso   1.00
O286   O     0.48983   0.39983   0.25731   0.00000  Uiso   1.00
O287   O     0.50870   0.42198   0.18054   0.00000  Uiso   1.00
N288   N     0.50435   0.56446   0.27533   0.00000  Uiso   1.00
O289   O     0.50833   0.59993   0.24327   0.00000  Uiso   1.00
O290   O     0.49735   0.57855   0.32143   0.00000  Uiso   1.00
O291   O     0.96386   0.57964   0.25310   0.00000  Uiso   1.00
O292   O     0.70281   0.42036   0.24691   0.00000  Uiso   1.00
O293   O     0.72488   0.57035   0.24502   0.00000  Uiso   1.00
O294   O     0.94178   0.42965   0.25499   0.00000  Uiso   1.00
C295   C     0.68165   0.59817   0.24866   0.00000  Uiso   1.00
C296   C     0.98499   0.40181   0.25116   0.00000  Uiso   1.00
O297   O     0.96995   0.50730   0.32247   0.00000  Uiso   1.00
O298   O     0.69672   0.49270   0.17753   0.00000  Uiso   1.00
O299   O     0.73098   0.49801   0.31439   0.00000  Uiso   1.00
O300   O     0.93569   0.50199   0.18561   0.00000  Uiso   1.00
C301   C     0.68715   0.50411   0.34158   0.00000  Uiso   1.00
C302   C     0.97927   0.49467   0.15856   0.00000  Uiso   1.00
Zn303  Zn    0.93700   0.50621   0.25540   0.00000  Uiso   1.00
Zn304  Zn    0.72967   0.49379   0.24461   0.00000  Uiso   1.00
C305   C     0.69592   0.50782   0.39544   0.00000  Uiso   1.00
C306   C     0.96874   0.48379   0.10543   0.00000  Uiso   1.00
C307   C     0.68205   0.54828   0.47677   0.00000  Uiso   1.00
C308   C     0.97010   0.42541   0.03190   0.00000  Uiso   1.00
C309   C     0.99585   0.53690   0.42774   0.00000  Uiso   1.00
C310   C     0.99409   0.44350   0.07821   0.00000  Uiso   1.00
C311   C     0.74397   0.48614   0.41396   0.00000  Uiso   1.00
C312   C     0.92252   0.50653   0.08500   0.00000  Uiso   1.00
C313   C     0.76352   0.49663   0.46299   0.00000  Uiso   1.00
C314   C     0.89396   0.48430   0.04186   0.00000  Uiso   1.00
C315   C     0.73331   0.53033   0.49383   0.00000  Uiso   1.00
C316   C     0.91955   0.44424   0.01434   0.00000  Uiso   1.00
C317   C     0.81481   0.47777   0.48071   0.00000  Uiso   1.00
C318   C     0.83978   0.49935   0.02651   0.00000  Uiso   1.00
C319   C     0.80847   0.53319   0.05645   0.00000  Uiso   1.00
C320   C     0.84155   0.43773   0.45426   0.00000  Uiso   1.00
C321   C     0.75542   0.54706   0.04080   0.00000  Uiso   1.00
C322   C     0.89315   0.42157   0.47078   0.00000  Uiso   1.00
H323   H     0.73241   0.57239   0.06506   0.00000  Uiso   1.00
H324   H     0.91191   0.39037   0.44979   0.00000  Uiso   1.00
H325   H     0.90756   0.53970   0.10563   0.00000  Uiso   1.00
H326   H     0.76834   0.46450   0.38810   0.00000  Uiso   1.00
H327   H     0.99125   0.57242   0.00118   0.00000  Uiso   1.00
H328   H     0.98930   0.39449   0.01085   0.00000  Uiso   1.00
H329   H     0.82241   0.54791   0.09328   0.00000  Uiso   1.00
H330   H     0.82248   0.41648   0.42152   0.00000  Uiso   1.00
C331   C     0.68928   0.65268   0.24723   0.00000  Uiso   1.00
C332   C     0.97727   0.34727   0.25227   0.00000  Uiso   1.00
H333   H     0.73186   0.33624   0.24177   0.00000  Uiso   1.00
H334   H     0.93466   0.66369   0.25765   0.00000  Uiso   1.00
N335   N     0.81362   0.48550   0.23740   0.00000  Uiso   1.00
N336   N     0.85305   0.51450   0.26261   0.00000  Uiso   1.00
N337   N     0.70767   0.41793   0.09806   0.00000  Uiso   1.00
O338   O     0.75545   0.44480   0.11023   0.00000  Uiso   1.00
O339   O     0.70661   0.36709   0.09437   0.00000  Uiso   1.00
N340   N     0.94415   0.55747   0.41122   0.00000  Uiso   1.00
O341   O     0.93555   0.60614   0.42274   0.00000  Uiso   1.00
O342   O     0.90128   0.52548   0.39507   0.00000  Uiso   1.00
N343   N     0.82893   0.43534   0.22544   0.00000  Uiso   1.00
O344   O     0.82317   0.39983   0.25731   0.00000  Uiso   1.00
O345   O     0.84204   0.42198   0.18054   0.00000  Uiso   1.00
N346   N     0.83768   0.56446   0.27533   0.00000  Uiso   1.00
O347   O     0.84166   0.59993   0.24327   0.00000  Uiso   1.00
O348   O     0.83068   0.57855   0.32143   0.00000  Uiso   1.00
O349   O     0.29719   0.91298   0.25310   0.00000  Uiso   1.00
O350   O     0.03614   0.75369   0.24691   0.00000  Uiso   1.00
O351   O     0.05822   0.90368   0.24502   0.00000  Uiso   1.00
O352   O     0.27512   0.76298   0.25499   0.00000  Uiso   1.00
C353   C     0.01498   0.93150   0.24866   0.00000  Uiso   1.00
C354   C     0.31832   0.73515   0.25116   0.00000  Uiso   1.00
O355   O     0.30328   0.84063   0.32247   0.00000  Uiso   1.00
O356   O     0.03005   0.82603   0.17753   0.00000  Uiso   1.00
O357   O     0.06431   0.83134   0.31439   0.00000  Uiso   1.00
O358   O     0.26902   0.83533   0.18561   0.00000  Uiso   1.00
C359   C     0.02048   0.83744   0.34158   0.00000  Uiso   1.00
C360   C     0.31261   0.82800   0.15856   0.00000  Uiso   1.00
Zn361  Zn    0.27033   0.83954   0.25540   0.00000  Uiso   1.00
Zn362  Zn    0.06300   0.82713   0.24461   0.00000  Uiso   1.00
C363   C     0.02925   0.84115   0.39544   0.00000  Uiso   1.00
C364   C     0.30208   0.81713   0.10543   0.00000  Uiso   1.00
C365   C     0.01538   0.88161   0.47677   0.00000  Uiso   1.00
C366   C     0.30343   0.75874   0.03190   0.00000  Uiso   1.00
C367   C     0.32919   0.87024   0.42774   0.00000  Uiso   1.00
C368   C     0.32742   0.77683   0.07821   0.00000  Uiso   1.00
C369   C     0.07731   0.81948   0.41396   0.00000  Uiso   1.00
C370   C     0.25585   0.83987   0.08500   0.00000  Uiso   1.00
C371   C     0.09685   0.82996   0.46299   0.00000  Uiso   1.00
C372   C     0.22729   0.81763   0.04186   0.00000  Uiso   1.00
C373   C     0.06664   0.86366   0.49383   0.00000  Uiso   1.00
C374   C     0.25288   0.77757   0.01434   0.00000  Uiso   1.00
C375   C     0.14814   0.81110   0.48071   0.00000  Uiso   1.00
C376   C     0.17312   0.83269   0.02651   0.00000  Uiso   1.00
C377   C     0.14180   0.86653   0.05645   0.00000  Uiso   1.00
C378   C     0.17488   0.77107   0.45426   0.00000  Uiso   1.00
C379   C     0.08875   0.88040   0.04080   0.00000  Uiso   1.00
C380   C     0.22648   0.75491   0.47078   0.00000  Uiso   1.00
H381   H     0.06575   0.90573   0.06506   0.00000  Uiso   1.00
H382   H     0.24525   0.72370   0.44979   0.00000  Uiso   1.00
H383   H     0.24089   0.87303   0.10563   0.00000  Uiso   1.00
H384   H     0.10167   0.79783   0.38810   0.00000  Uiso   1.00
H385   H     0.32458   0.90575   0.00118   0.00000  Uiso   1.00
H386   H     0.32264   0.72783   0.01085   0.00000  Uiso   1.00
H387   H     0.15574   0.88124   0.09328   0.00000  Uiso   1.00
H388   H     0.15582   0.74981   0.42152   0.00000  Uiso   1.00
C389   C     0.02261   0.98602   0.24723   0.00000  Uiso   1.00
C390   C     0.31061   0.68060   0.25227   0.00000  Uiso   1.00
H391   H     0.06520   0.66958   0.24177   0.00000  Uiso   1.00
H392   H     0.26799   0.99703   0.25765   0.00000  Uiso   1.00
N393   N     0.14695   0.81883   0.23740   0.00000  Uiso   1.00
N394   N     0.18638   0.84784   0.26261   0.00000  Uiso   1.00
N395   N     0.04100   0.75127   0.09806   0.00000  Uiso   1.00
O396   O     0.08878   0.77813   0.11023   0.00000  Uiso   1.00
O397   O     0.03995   0.70043   0.09437   0.00000  Uiso   1.00
N398   N     0.27749   0.89080   0.41122   0.00000  Uiso   1.00
O399   O     0.26888   0.93947   0.42274   0.00000  Uiso   1.00
O400   O     0.23462   0.85881   0.39507   0.00000  Uiso   1.00
N401   N     0.16226   0.76867   0.22544   0.00000  Uiso   1.00
O402   O     0.15650   0.73317   0.25731   0.00000  Uiso   1.00
O403   O     0.17537   0.75531   0.18054   0.00000  Uiso   1.00
N404   N     0.17101   0.89780   0.27533   0.00000  Uiso   1.00
O405   O     0.17499   0.93326   0.24327   0.00000  Uiso   1.00
O406   O     0.16402   0.91188   0.32143   0.00000  Uiso   1.00
O407   O     0.63052   0.91298   0.25310   0.00000  Uiso   1.00
O408   O     0.36948   0.75369   0.24691   0.00000  Uiso   1.00
O409   O     0.39155   0.90368   0.24502   0.00000  Uiso   1.00
O410   O     0.60845   0.76298   0.25499   0.00000  Uiso   1.00
C411   C     0.34831   0.93150   0.24866   0.00000  Uiso   1.00
C412   C     0.65165   0.73515   0.25116   0.00000  Uiso   1.00
O413   O     0.63662   0.84063   0.32247   0.00000  Uiso   1.00
O414   O     0.36338   0.82603   0.17753   0.00000  Uiso   1.00
O415   O     0.39764   0.83134   0.31439   0.00000  Uiso   1.00
O416   O     0.60236   0.83533   0.18561   0.00000  Uiso   1.00
C417   C     0.35381   0.83744   0.34158   0.00000  Uiso   1.00
C418   C     0.64594   0.82800   0.15856   0.00000  Uiso   1.00
Zn419  Zn    0.60366   0.83954   0.25540   0.00000  Uiso   1.00
Zn420  Zn    0.39634   0.82713   0.24461   0.00000  Uiso   1.00
C421   C     0.36259   0.84115   0.39544   0.00000  Uiso   1.00
C422   C     0.63541   0.81713   0.10543   0.00000  Uiso   1.00
C423   C     0.34872   0.88161   0.47677   0.00000  Uiso   1.00
C424   C     0.63677   0.75874   0.03190   0.00000  Uiso   1.00
C425   C     0.66252   0.87024   0.42774   0.00000  Uiso   1.00
C426   C     0.66076   0.77683   0.07821   0.00000  Uiso   1.00
C427   C     0.41064   0.81948   0.41396   0.00000  Uiso   1.00
C428   C     0.58918   0.83987   0.08500   0.00000  Uiso   1.00
C429   C     0.43018   0.82996   0.46299   0.00000  Uiso   1.00
C430   C     0.56062   0.81763   0.04186   0.00000  Uiso   1.00
C431   C     0.39997   0.86366   0.49383   0.00000  Uiso   1.00
C432   C     0.58621   0.77757   0.01434   0.00000  Uiso   1.00
C433   C     0.48148   0.81110   0.48071   0.00000  Uiso   1.00
C434   C     0.50645   0.83269   0.02651   0.00000  Uiso   1.00
C435   C     0.47513   0.86653   0.05645   0.00000  Uiso   1.00
C436   C     0.50822   0.77107   0.45426   0.00000  Uiso   1.00
C437   C     0.42209   0.88040   0.04080   0.00000  Uiso   1.00
C438   C     0.55981   0.75491   0.47078   0.00000  Uiso   1.00
H439   H     0.39908   0.90573   0.06506   0.00000  Uiso   1.00
H440   H     0.57858   0.72370   0.44979   0.00000  Uiso   1.00
H441   H     0.57423   0.87303   0.10563   0.00000  Uiso   1.00
H442   H     0.43501   0.79783   0.38810   0.00000  Uiso   1.00
H443   H     0.65792   0.90575   0.00118   0.00000  Uiso   1.00
H444   H     0.65597   0.72783   0.01085   0.00000  Uiso   1.00
H445   H     0.48907   0.88124   0.09328   0.00000  Uiso   1.00
H446   H     0.48915   0.74981   0.42152   0.00000  Uiso   1.00
C447   C     0.35594   0.98602   0.24723   0.00000  Uiso   1.00
C448   C     0.64394   0.68060   0.25227   0.00000  Uiso   1.00
H449   H     0.39853   0.66958   0.24177   0.00000  Uiso   1.00
H450   H     0.60132   0.99703   0.25765   0.00000  Uiso   1.00
N451   N     0.48029   0.81883   0.23740   0.00000  Uiso   1.00
N452   N     0.51971   0.84784   0.26261   0.00000  Uiso   1.00
N453   N     0.37434   0.75127   0.09806   0.00000  Uiso   1.00
O454   O     0.42212   0.77813   0.11023   0.00000  Uiso   1.00
O455   O     0.37328   0.70043   0.09437   0.00000  Uiso   1.00
N456   N     0.61082   0.89080   0.41122   0.00000  Uiso   1.00
O457   O     0.60221   0.93947   0.42274   0.00000  Uiso   1.00
O458   O     0.56795   0.85881   0.39507   0.00000  Uiso   1.00
N459   N     0.49560   0.76867   0.22544   0.00000  Uiso   1.00
O460   O     0.48983   0.73317   0.25731   0.00000  Uiso   1.00
O461   O     0.50870   0.75531   0.18054   0.00000  Uiso   1.00
N462   N     0.50435   0.89780   0.27533   0.00000  Uiso   1.00
O463   O     0.50833   0.93326   0.24327   0.00000  Uiso   1.00
O464   O     0.49735   0.91188   0.32143   0.00000  Uiso   1.00
O465   O     0.96386   0.91298   0.25310   0.00000  Uiso   1.00
O466   O     0.70281   0.75369   0.24691   0.00000  Uiso   1.00
O467   O     0.72488   0.90368   0.24502   0.00000  Uiso   1.00
O468   O     0.94178   0.76298   0.25499   0.00000  Uiso   1.00
C469   C     0.68165   0.93150   0.24866   0.00000  Uiso   1.00
C470   C     0.98499   0.73515   0.25116   0.00000  Uiso   1.00
O471   O     0.96995   0.84063   0.32247   0.00000  Uiso   1.00
O472   O     0.69672   0.82603   0.17753   0.00000  Uiso   1.00
O473   O     0.73098   0.83134   0.31439   0.00000  Uiso   1.00
O474   O     0.93569   0.83533   0.18561   0.00000  Uiso   1.00
C475   C     0.68715   0.83744   0.34158   0.00000  Uiso   1.00
C476   C     0.97927   0.82800   0.15856   0.00000  Uiso   1.00
Zn477  Zn    0.93700   0.83954   0.25540   0.00000  Uiso   1.00
Zn478  Zn    0.72967   0.82713   0.24461   0.00000  Uiso   1.00
C479   C     0.69592   0.84115   0.39544   0.00000  Uiso   1.00
C480   C     0.96874   0.81713   0.10543   0.00000  Uiso   1.00
C481   C     0.68205   0.88161   0.47677   0.00000  Uiso   1.00
C482   C     0.97010   0.75874   0.03190   0.00000  Uiso   1.00
C483   C     0.99585   0.87024   0.42774   0.00000  Uiso   1.00
C484   C     0.99409   0.77683   0.07821   0.00000  Uiso   1.00
C485   C     0.74397   0.81948   0.41396   0.00000  Uiso   1.00
C486   C     0.92252   0.83987   0.08500   0.00000  Uiso   1.00
C487   C     0.76352   0.82996   0.46299   0.00000  Uiso   1.00
C488   C     0.89396   0.81763   0.04186   0.00000  Uiso   1.00
C489   C     0.73331   0.86366   0.49383   0.00000  Uiso   1.00
C490   C     0.91955   0.77757   0.01434   0.00000  Uiso   1.00
C491   C     0.81481   0.81110   0.48071   0.00000  Uiso   1.00
C492   C     0.83978   0.83269   0.02651   0.00000  Uiso   1.00
C493   C     0.80847   0.86653   0.05645   0.00000  Uiso   1.00
C494   C     0.84155   0.77107   0.45426   0.00000  Uiso   1.00
C495   C     0.75542   0.88040   0.04080   0.00000  Uiso   1.00
C496   C     0.89315   0.75491   0.47078   0.00000  Uiso   1.00
H497   H     0.73241   0.90573   0.06506   0.00000  Uiso   1.00
H498   H     0.91191   0.72370   0.44979   0.00000  Uiso   1.00
H499   H     0.90756   0.87303   0.10563   0.00000  Uiso   1.00
H500   H     0.76834   0.79783   0.38810   0.00000  Uiso   1.00
H501   H     0.99125   0.90575   0.00118   0.00000  Uiso   1.00
H502   H     0.98930   0.72783   0.01085   0.00000  Uiso   1.00
H503   H     0.82241   0.88124   0.09328   0.00000  Uiso   1.00
H504   H     0.82248   0.74981   0.42152   0.00000  Uiso   1.00
C505   C     0.68928   0.98602   0.24723   0.00000  Uiso   1.00
C506   C     0.97727   0.68060   0.25227   0.00000  Uiso   1.00
H507   H     0.73186   0.66958   0.24177   0.00000  Uiso   1.00
H508   H     0.93466   0.99703   0.25765   0.00000  Uiso   1.00
N509   N     0.81362   0.81883   0.23740   0.00000  Uiso   1.00
N510   N     0.85305   0.84784   0.26261   0.00000  Uiso   1.00
N511   N     0.70767   0.75127   0.09806   0.00000  Uiso   1.00
O512   O     0.75545   0.77813   0.11023   0.00000  Uiso   1.00
O513   O     0.70661   0.70043   0.09437   0.00000  Uiso   1.00
N514   N     0.94415   0.89080   0.41122   0.00000  Uiso   1.00
O515   O     0.93555   0.93947   0.42274   0.00000  Uiso   1.00
O516   O     0.90128   0.85881   0.39507   0.00000  Uiso   1.00
N517   N     0.82893   0.76867   0.22544   0.00000  Uiso   1.00
O518   O     0.82317   0.73317   0.25731   0.00000  Uiso   1.00
O519   O     0.84204   0.75531   0.18054   0.00000  Uiso   1.00
N520   N     0.83768   0.89780   0.27533   0.00000  Uiso   1.00
O521   O     0.84166   0.93326   0.24327   0.00000  Uiso   1.00
O522   O     0.83068   0.91188   0.32143   0.00000  Uiso   1.00
O523   O     0.29719   0.24631   0.75310   0.00000  Uiso   1.00
O524   O     0.03614   0.08702   0.74691   0.00000  Uiso   1.00
O525   O     0.05822   0.23702   0.74502   0.00000  Uiso   1.00
O526   O     0.27512   0.09632   0.75499   0.00000  Uiso   1.00
C527   C     0.01498   0.26484   0.74866   0.00000  Uiso   1.00
C528   C     0.31832   0.06848   0.75116   0.00000  Uiso   1.00
O529   O     0.30328   0.17397   0.82247   0.00000  Uiso   1.00
O530   O     0.03005   0.15937   0.67753   0.00000  Uiso   1.00
O531   O     0.06431   0.16467   0.81439   0.00000  Uiso   1.00
O532   O     0.26902   0.16866   0.68561   0.00000  Uiso   1.00
C533   C     0.02048   0.17078   0.84158   0.00000  Uiso   1.00
C534   C     0.31261   0.16134   0.65856   0.00000  Uiso   1.00
Zn535  Zn    0.27033   0.17287   0.75540   0.00000  Uiso   1.00
Zn536  Zn    0.06300   0.16046   0.74461   0.00000  Uiso   1.00
C537   C     0.02925   0.17449   0.89544   0.00000  Uiso   1.00
C538   C     0.30208   0.15046   0.60543   0.00000  Uiso   1.00
C539   C     0.01538   0.21494   0.97677   0.00000  Uiso   1.00
C540   C     0.30343   0.09207   0.53190   0.00000  Uiso   1.00
C541   C     0.32919   0.20357   0.92774   0.00000  Uiso   1.00
C542   C     0.32742   0.11016   0.57821   0.00000  Uiso   1.00
C543   C     0.07731   0.15281   0.91396   0.00000  Uiso   1.00
C544   C     0.25585   0.17320   0.58500   0.00000  Uiso   1.00
C545   C     0.09685   0.16329   0.96299   0.00000  Uiso   1.00
C546   C     0.22729   0.15096   0.54186   0.00000  Uiso   1.00
C547   C     0.06664   0.19700   0.99383   0.00000  Uiso   1.00
C548   C     0.25288   0.11091   0.51434   0.00000  Uiso   1.00
C549   C     0.14814   0.14443   0.98071   0.00000  Uiso   1.00
C550   C     0.17312   0.16602   0.52651   0.00000  Uiso   1.00
C551   C     0.14180   0.19986   0.55645   0.00000  Uiso   1.00
C552   C     0.17488   0.10440   0.95426   0.00000  Uiso   1.00
C553   C     0.08875   0.21373   0.54080   0.00000  Uiso   1.00
C554   C     0.22648   0.08824   0.97078   0.00000  Uiso   1.00
H555   H     0.06575   0.23906   0.56506   0.00000  Uiso   1.00
H556   H     0.24525   0.05703   0.94979   0.00000  Uiso   1.00
H557   H     0.24089   0.20637   0.60563   0.00000  Uiso   1.00
H558   H     0.10167   0.13117   0.88810   0.00000  Uiso   1.00
H559   H     0.32458   0.23909   0.50118   0.00000  Uiso   1.00
H560   H     0.32264   0.06116   0.51085   0.00000  Uiso   1.00
H561   H     0.15574   0.21457   0.59328   0.00000  Uiso   1.00
H562   H     0.15582   0.08314   0.92152   0.00000  Uiso   1.00
C563   C     0.02261   0.31935   0.74723   0.00000  Uiso   1.00
C564   C     0.31061   0.01394   0.75227   0.00000  Uiso   1.00
H565   H     0.06520   0.00291   0.74177   0.00000  Uiso   1.00
H566   H     0.26799   0.33036   0.75765   0.00000  Uiso   1.00
N567   N     0.14695   0.15216   0.73740   0.00000  Uiso   1.00
N568   N     0.18638   0.18117   0.76261   0.00000  Uiso   1.00
N569   N     0.04100   0.08460   0.59806   0.00000  Uiso   1.00
O570   O     0.08878   0.11147   0.61023   0.00000  Uiso   1.00
O571   O     0.03995   0.03376   0.59437   0.00000  Uiso   1.00
N572   N     0.27749   0.22413   0.91122   0.00000  Uiso   1.00
O573   O     0.26888   0.27281   0.92274   0.00000  Uiso   1.00
O574   O     0.23462   0.19214   0.89507   0.00000  Uiso   1.00
N575   N     0.16226   0.10200   0.72544   0.00000  Uiso   1.00
O576   O     0.15650   0.06650   0.75731   0.00000  Uiso   1.00
O577   O     0.17537   0.08864   0.68054   0.00000  Uiso   1.00
N578   N     0.17101   0.23113   0.77533   0.00000  Uiso   1.00
O579   O     0.17499   0.26660   0.74327   0.00000  Uiso   1.00
O580   O     0.16402   0.24522   0.82143   0.00000  Uiso   1.00
O581   O     0.63052   0.24631   0.75310   0.00000  Uiso   1.00
O582   O     0.36948   0.08702   0.74691   0.00000  Uiso   1.00
O583   O     0.39155   0.23702   0.74502   0.00000  Uiso   1.00
O584   O     0.60845   0.09632   0.75499   0.00000  Uiso   1.00
C585   C     0.34831   0.26484   0.74866   0.00000  Uiso   1.00
C586   C     0.65165   0.06848   0.75116   0.00000  Uiso   1.00
O587   O     0.63662   0.17397   0.82247   0.00000  Uiso   1.00
O588   O     0.36338   0.15937   0.67753   0.00000  Uiso   1.00
O589   O     0.39764   0.16467   0.81439   0.00000  Uiso   1.00
O590   O     0.60236   0.16866   0.68561   0.00000  Uiso   1.00
C591   C     0.35381   0.17078   0.84158   0.00000  Uiso   1.00
C592   C     0.64594   0.16134   0.65856   0.00000  Uiso   1.00
Zn593  Zn    0.60366   0.17287   0.75540   0.00000  Uiso   1.00
Zn594  Zn    0.39634   0.16046   0.74461   0.00000  Uiso   1.00
C595   C     0.36259   0.17449   0.89544   0.00000  Uiso   1.00
C596   C     0.63541   0.15046   0.60543   0.00000  Uiso   1.00
C597   C     0.34872   0.21494   0.97677   0.00000  Uiso   1.00
C598   C     0.63677   0.09207   0.53190   0.00000  Uiso   1.00
C599   C     0.66252   0.20357   0.92774   0.00000  Uiso   1.00
C600   C     0.66076   0.11016   0.57821   0.00000  Uiso   1.00
C601   C     0.41064   0.15281   0.91396   0.00000  Uiso   1.00
C602   C     0.58918   0.17320   0.58500   0.00000  Uiso   1.00
C603   C     0.43018   0.16329   0.96299   0.00000  Uiso   1.00
C604   C     0.56062   0.15096   0.54186   0.00000  Uiso   1.00
C605   C     0.39997   0.19700   0.99383   0.00000  Uiso   1.00
C606   C     0.58621   0.11091   0.51434   0.00000  Uiso   1.00
C607   C     0.48148   0.14443   0.98071   0.00000  Uiso   1.00
C608   C     0.50645   0.16602   0.52651   0.00000  Uiso   1.00
C609   C     0.47513   0.19986   0.55645   0.00000  Uiso   1.00
C610   C     0.50822   0.10440   0.95426   0.00000  Uiso   1.00
C611   C     0.42209   0.21373   0.54080   0.00000  Uiso   1.00
C612   C     0.55981   0.08824   0.97078   0.00000  Uiso   1.00
H613   H     0.39908   0.23906   0.56506   0.00000  Uiso   1.00
H614   H     0.57858   0.05703   0.94979   0.00000  Uiso   1.00
H615   H     0.57423   0.20637   0.60563   0.00000  Uiso   1.00
H616   H     0.43501   0.13117   0.88810   0.00000  Uiso   1.00
H617   H     0.65792   0.23909   0.50118   0.00000  Uiso   1.00
H618   H     0.65597   0.06116   0.51085   0.00000  Uiso   1.00
H619   H     0.48907   0.21457   0.59328   0.00000  Uiso   1.00
H620   H     0.48915   0.08314   0.92152   0.00000  Uiso   1.00
C621   C     0.35594   0.31935   0.74723   0.00000  Uiso   1.00
C622   C     0.64394   0.01394   0.75227   0.00000  Uiso   1.00
H623   H     0.39853   0.00291   0.74177   0.00000  Uiso   1.00
H624   H     0.60132   0.33036   0.75765   0.00000  Uiso   1.00
N625   N     0.48029   0.15216   0.73740   0.00000  Uiso   1.00
N626   N     0.51971   0.18117   0.76261   0.00000  Uiso   1.00
N627   N     0.37434   0.08460   0.59806   0.00000  Uiso   1.00
O628   O     0.42212   0.11147   0.61023   0.00000  Uiso   1.00
O629   O     0.37328   0.03376   0.59437   0.00000  Uiso   1.00
N630   N     0.61082   0.22413   0.91122   0.00000  Uiso   1.00
O631   O     0.60221   0.27281   0.92274   0.00000  Uiso   1.00
O632   O     0.56795   0.19214   0.89507   0.00000  Uiso   1.00
N633   N     0.49560   0.10200   0.72544   0.00000  Uiso   1.00
O634   O     0.48983   0.06650   0.75731   0.00000  Uiso   1.00
O635   O     0.50870   0.08864   0.68054   0.00000  Uiso   1.00
N636   N     0.50435   0.23113   0.77533   0.00000  Uiso   1.00
O637   O     0.50833   0.26660   0.74327   0.00000  Uiso   1.00
O638   O     0.49735   0.24522   0.82143   0.00000  Uiso   1.00
O639   O     0.96386   0.24631   0.75310   0.00000  Uiso   1.00
O640   O     0.70281   0.08702   0.74691   0.00000  Uiso   1.00
O641   O     0.72488   0.23702   0.74502   0.00000  Uiso   1.00
O642   O     0.94178   0.09632   0.75499   0.00000  Uiso   1.00
C643   C     0.68165   0.26484   0.74866   0.00000  Uiso   1.00
C644   C     0.98499   0.06848   0.75116   0.00000  Uiso   1.00
O645   O     0.96995   0.17397   0.82247   0.00000  Uiso   1.00
O646   O     0.69672   0.15937   0.67753   0.00000  Uiso   1.00
O647   O     0.73098   0.16467   0.81439   0.00000  Uiso   1.00
O648   O     0.93569   0.16866   0.68561   0.00000  Uiso   1.00
C649   C     0.68715   0.17078   0.84158   0.00000  Uiso   1.00
C650   C     0.97927   0.16134   0.65856   0.00000  Uiso   1.00
Zn651  Zn    0.93700   0.17287   0.75540   0.00000  Uiso   1.00
Zn652  Zn    0.72967   0.16046   0.74461   0.00000  Uiso   1.00
C653   C     0.69592   0.17449   0.89544   0.00000  Uiso   1.00
C654   C     0.96874   0.15046   0.60543   0.00000  Uiso   1.00
C655   C     0.68205   0.21494   0.97677   0.00000  Uiso   1.00
C656   C     0.97010   0.09207   0.53190   0.00000  Uiso   1.00
C657   C     0.99585   0.20357   0.92774   0.00000  Uiso   1.00
C658   C     0.99409   0.11016   0.57821   0.00000  Uiso   1.00
C659   C     0.74397   0.15281   0.91396   0.00000  Uiso   1.00
C660   C     0.92252   0.17320   0.58500   0.00000  Uiso   1.00
C661   C     0.76352   0.16329   0.96299   0.00000  Uiso   1.00
C662   C     0.89396   0.15096   0.54186   0.00000  Uiso   1.00
C663   C     0.73331   0.19700   0.99383   0.00000  Uiso   1.00
C664   C     0.91955   0.11091   0.51434   0.00000  Uiso   1.00
C665   C     0.81481   0.14443   0.98071   0.00000  Uiso   1.00
C666   C     0.83978   0.16602   0.52651   0.00000  Uiso   1.00
C667   C     0.80847   0.19986   0.55645   0.00000  Uiso   1.00
C668   C     0.84155   0.10440   0.95426   0.00000  Uiso   1.00
C669   C     0.75542   0.21373   0.54080   0.00000  Uiso   1.00
C670   C     0.89315   0.08824   0.97078   0.00000  Uiso   1.00
H671   H     0.73241   0.23906   0.56506   0.00000  Uiso   1.00
H672   H     0.91191   0.05703   0.94979   0.00000  Uiso   1.00
H673   H     0.90756   0.20637   0.60563   0.00000  Uiso   1.00
H674   H     0.76834   0.13117   0.88810   0.00000  Uiso   1.00
H675   H     0.99125   0.23909   0.50118   0.00000  Uiso   1.00
H676   H     0.98930   0.06116   0.51085   0.00000  Uiso   1.00
H677   H     0.82241   0.21457   0.59328   0.00000  Uiso   1.00
H678   H     0.82248   0.08314   0.92152   0.00000  Uiso   1.00
C679   C     0.68928   0.31935   0.74723   0.00000  Uiso   1.00
C680   C     0.97727   0.01394   0.75227   0.00000  Uiso   1.00
H681   H     0.73186   0.00291   0.74177   0.00000  Uiso   1.00
H682   H     0.93466   0.33036   0.75765   0.00000  Uiso   1.00
N683   N     0.81362   0.15216   0.73740   0.00000  Uiso   1.00
N684   N     0.85305   0.18117   0.76261   0.00000  Uiso   1.00
N685   N     0.70767   0.08460   0.59806   0.00000  Uiso   1.00
O686   O     0.75545   0.11147   0.61023   0.00000  Uiso   1.00
O687   O     0.70661   0.03376   0.59437   0.00000  Uiso   1.00
N688   N     0.94415   0.22413   0.91122   0.00000  Uiso   1.00
O689   O     0.93555   0.27281   0.92274   0.00000  Uiso   1.00
O690   O     0.90128   0.19214   0.89507   0.00000  Uiso   1.00
N691   N     0.82893   0.10200   0.72544   0.00000  Uiso   1.00
O692   O     0.82317   0.06650   0.75731   0.00000  Uiso   1.00
O693   O     0.84204   0.08864   0.68054   0.00000  Uiso   1.00
N694   N     0.83768   0.23113   0.77533   0.00000  Uiso   1.00
O695   O     0.84166   0.26660   0.74327   0.00000  Uiso   1.00
O696   O     0.83068   0.24522   0.82143   0.00000  Uiso   1.00
O697   O     0.29719   0.57964   0.75310   0.00000  Uiso   1.00
O698   O     0.03614   0.42036   0.74691   0.00000  Uiso   1.00
O699   O     0.05822   0.57035   0.74502   0.00000  Uiso   1.00
O700   O     0.27512   0.42965   0.75499   0.00000  Uiso   1.00
C701   C     0.01498   0.59817   0.74866   0.00000  Uiso   1.00
C702   C     0.31832   0.40181   0.75116   0.00000  Uiso   1.00
O703   O     0.30328   0.50730   0.82247   0.00000  Uiso   1.00
O704   O     0.03005   0.49270   0.67753   0.00000  Uiso   1.00
O705   O     0.06431   0.49801   0.81439   0.00000  Uiso   1.00
O706   O     0.26902   0.50199   0.68561   0.00000  Uiso   1.00
C707   C     0.02048   0.50411   0.84158   0.00000  Uiso   1.00
C708   C     0.31261   0.49467   0.65856   0.00000  Uiso   1.00
Zn709  Zn    0.27033   0.50621   0.75540   0.00000  Uiso   1.00
Zn710  Zn    0.06300   0.49379   0.74461   0.00000  Uiso   1.00
C711   C     0.02925   0.50782   0.89544   0.00000  Uiso   1.00
C712   C     0.30208   0.48379   0.60543   0.00000  Uiso   1.00
C713   C     0.01538   0.54828   0.97677   0.00000  Uiso   1.00
C714   C     0.30343   0.42541   0.53190   0.00000  Uiso   1.00
C715   C     0.32919   0.53690   0.92774   0.00000  Uiso   1.00
C716   C     0.32742   0.44350   0.57821   0.00000  Uiso   1.00
C717   C     0.07731   0.48614   0.91396   0.00000  Uiso   1.00
C718   C     0.25585   0.50653   0.58500   0.00000  Uiso   1.00
C719   C     0.09685   0.49663   0.96299   0.00000  Uiso   1.00
C720   C     0.22729   0.48430   0.54186   0.00000  Uiso   1.00
C721   C     0.06664   0.53033   0.99383   0.00000  Uiso   1.00
C722   C     0.25288   0.44424   0.51434   0.00000  Uiso   1.00
C723   C     0.14814   0.47777   0.98071   0.00000  Uiso   1.00
C724   C     0.17312   0.49935   0.52651   0.00000  Uiso   1.00
C725   C     0.14180   0.53319   0.55645   0.00000  Uiso   1.00
C726   C     0.17488   0.43773   0.95426   0.00000  Uiso   1.00
C727   C     0.08875   0.54706   0.54080   0.00000  Uiso   1.00
C728   C     0.22648   0.42157   0.97078   0.00000  Uiso   1.00
H729   H     0.06575   0.57239   0.56506   0.00000  Uiso   1.00
H730   H     0.24525   0.39037   0.94979   0.00000  Uiso   1.00
H731   H     0.24089   0.53970   0.60563   0.00000  Uiso   1.00
H732   H     0.10167   0.46450   0.88810   0.00000  Uiso   1.00
H733   H     0.32458   0.57242   0.50118   0.00000  Uiso   1.00
H734   H     0.32264   0.39449   0.51085   0.00000  Uiso   1.00
H735   H     0.15574   0.54791   0.59328   0.00000  Uiso   1.00
H736   H     0.15582   0.41648   0.92152   0.00000  Uiso   1.00
C737   C     0.02261   0.65268   0.74723   0.00000  Uiso   1.00
C738   C     0.31061   0.34727   0.75227   0.00000  Uiso   1.00
H739   H     0.06520   0.33624   0.74177   0.00000  Uiso   1.00
H740   H     0.26799   0.66369   0.75765   0.00000  Uiso   1.00
N741   N     0.14695   0.48550   0.73740   0.00000  Uiso   1.00
N742   N     0.18638   0.51450   0.76261   0.00000  Uiso   1.00
N743   N     0.04100   0.41793   0.59806   0.00000  Uiso   1.00
O744   O     0.08878   0.44480   0.61023   0.00000  Uiso   1.00
O745   O     0.03995   0.36709   0.59437   0.00000  Uiso   1.00
N746   N     0.27749   0.55747   0.91122   0.00000  Uiso   1.00
O747   O     0.26888   0.60614   0.92274   0.00000  Uiso   1.00
O748   O     0.23462   0.52548   0.89507   0.00000  Uiso   1.00
N749   N     0.16226   0.43534   0.72544   0.00000  Uiso   1.00
O750   O     0.15650   0.39983   0.75731   0.00000  Uiso   1.00
O751   O     0.17537   0.42198   0.68054   0.00000  Uiso   1.00
N752   N     0.17101   0.56446   0.77533   0.00000  Uiso   1.00
O753   O     0.17499   0.59993   0.74327   0.00000  Uiso   1.00
O754   O     0.16402   0.57855   0.82143   0.00000  Uiso   1.00
O755   O     0.63052   0.57964   0.75310   0.00000  Uiso   1.00
O756   O     0.36948   0.42036   0.74691   0.00000  Uiso   1.00
O757   O     0.39155   0.57035   0.74502   0.00000  Uiso   1.00
O758   O     0.60845   0.42965   0.75499   0.00000  Uiso   1.00
C759   C     0.34831   0.59817   0.74866   0.00000  Uiso   1.00
C760   C     0.65165   0.40181   0.75116   0.00000  Uiso   1.00
O761   O     0.63662   0.50730   0.82247   0.00000  Uiso   1.00
O762   O     0.36338   0.49270   0.67753   0.00000  Uiso   1.00
O763   O     0.39764   0.49801   0.81439   0.00000  Uiso   1.00
O764   O     0.60236   0.50199   0.68561   0.00000  Uiso   1.00
C765   C     0.35381   0.50411   0.84158   0.00000  Uiso   1.00
C766   C     0.64594   0.49467   0.65856   0.00000  Uiso   1.00
Zn767  Zn    0.60366   0.50621   0.75540   0.00000  Uiso   1.00
Zn768  Zn    0.39634   0.49379   0.74461   0.00000  Uiso   1.00
C769   C     0.36259   0.50782   0.89544   0.00000  Uiso   1.00
C770   C     0.63541   0.48379   0.60543   0.00000  Uiso   1.00
C771   C     0.34872   0.54828   0.97677   0.00000  Uiso   1.00
C772   C     0.63677   0.42541   0.53190   0.00000  Uiso   1.00
C773   C     0.66252   0.53690   0.92774   0.00000  Uiso   1.00
C774   C     0.66076   0.44350   0.57821   0.00000  Uiso   1.00
C775   C     0.41064   0.48614   0.91396   0.00000  Uiso   1.00
C776   C     0.58918   0.50653   0.58500   0.00000  Uiso   1.00
C777   C     0.43018   0.49663   0.96299   0.00000  Uiso   1.00
C778   C     0.56062   0.48430   0.54186   0.00000  Uiso   1.00
C779   C     0.39997   0.53033   0.99383   0.00000  Uiso   1.00
C780   C     0.58621   0.44424   0.51434   0.00000  Uiso   1.00
C781   C     0.48148   0.47777   0.98071   0.00000  Uiso   1.00
C782   C     0.50645   0.49935   0.52651   0.00000  Uiso   1.00
C783   C     0.47513   0.53319   0.55645   0.00000  Uiso   1.00
C784   C     0.50822   0.43773   0.95426   0.00000  Uiso   1.00
C785   C     0.42209   0.54706   0.54080   0.00000  Uiso   1.00
C786   C     0.55981   0.42157   0.97078   0.00000  Uiso   1.00
H787   H     0.39908   0.57239   0.56506   0.00000  Uiso   1.00
H788   H     0.57858   0.39037   0.94979   0.00000  Uiso   1.00
H789   H     0.57423   0.53970   0.60563   0.00000  Uiso   1.00
H790   H     0.43501   0.46450   0.88810   0.00000  Uiso   1.00
H791   H     0.65792   0.57242   0.50118   0.00000  Uiso   1.00
H792   H     0.65597   0.39449   0.51085   0.00000  Uiso   1.00
H793   H     0.48907   0.54791   0.59328   0.00000  Uiso   1.00
H794   H     0.48915   0.41648   0.92152   0.00000  Uiso   1.00
C795   C     0.35594   0.65268   0.74723   0.00000  Uiso   1.00
C796   C     0.64394   0.34727   0.75227   0.00000  Uiso   1.00
H797   H     0.39853   0.33624   0.74177   0.00000  Uiso   1.00
H798   H     0.60132   0.66369   0.75765   0.00000  Uiso   1.00
N799   N     0.48029   0.48550   0.73740   0.00000  Uiso   1.00
N800   N     0.51971   0.51450   0.76261   0.00000  Uiso   1.00
N801   N     0.37434   0.41793   0.59806   0.00000  Uiso   1.00
O802   O     0.42212   0.44480   0.61023   0.00000  Uiso   1.00
O803   O     0.37328   0.36709   0.59437   0.00000  Uiso   1.00
N804   N     0.61082   0.55747   0.91122   0.00000  Uiso   1.00
O805   O     0.60221   0.60614   0.92274   0.00000  Uiso   1.00
O806   O     0.56795   0.52548   0.89507   0.00000  Uiso   1.00
N807   N     0.49560   0.43534   0.72544   0.00000  Uiso   1.00
O808   O     0.48983   0.39983   0.75731   0.00000  Uiso   1.00
O809   O     0.50870   0.42198   0.68054   0.00000  Uiso   1.00
N810   N     0.50435   0.56446   0.77533   0.00000  Uiso   1.00
O811   O     0.50833   0.59993   0.74327   0.00000  Uiso   1.00
O812   O     0.49735   0.57855   0.82143   0.00000  Uiso   1.00
O813   O     0.96386   0.57964   0.75310   0.00000  Uiso   1.00
O814   O     0.70281   0.42036   0.74691   0.00000  Uiso   1.00
O815   O     0.72488   0.57035   0.74502   0.00000  Uiso   1.00
O816   O     0.94178   0.42965   0.75499   0.00000  Uiso   1.00
C817   C     0.68165   0.59817   0.74866   0.00000  Uiso   1.00
C818   C     0.98499   0.40181   0.75116   0.00000  Uiso   1.00
O819   O     0.96995   0.50730   0.82247   0.00000  Uiso   1.00
O820   O     0.69672   0.49270   0.67753   0.00000  Uiso   1.00
O821   O     0.73098   0.49801   0.81439   0.00000  Uiso   1.00
O822   O     0.93569   0.50199   0.68561   0.00000  Uiso   1.00
C823   C     0.68715   0.50411   0.84158   0.00000  Uiso   1.00
C824   C     0.97927   0.49467   0.65856   0.00000  Uiso   1.00
Zn825  Zn    0.93700   0.50621   0.75540   0.00000  Uiso   1.00
Zn826  Zn    0.72967   0.49379   0.74461   0.00000  Uiso   1.00
C827   C     0.69592   0.50782   0.89544   0.00000  Uiso   1.00
C828   C     0.96874   0.48379   0.60543   0.00000  Uiso   1.00
C829   C     0.68205   0.54828   0.97677   0.00000  Uiso   1.00
C830   C     0.97010   0.42541   0.53190   0.00000  Uiso   1.00
C831   C     0.99585   0.53690   0.92774   0.00000  Uiso   1.00
C832   C     0.99409   0.44350   0.57821   0.00000  Uiso   1.00
C833   C     0.74397   0.48614   0.91396   0.00000  Uiso   1.00
C834   C     0.92252   0.50653   0.58500   0.00000  Uiso   1.00
C835   C     0.76352   0.49663   0.96299   0.00000  Uiso   1.00
C836   C     0.89396   0.48430   0.54186   0.00000  Uiso   1.00
C837   C     0.73331   0.53033   0.99383   0.00000  Uiso   1.00
C838   C     0.91955   0.44424   0.51434   0.00000  Uiso   1.00
C839   C     0.81481   0.47777   0.98071   0.00000  Uiso   1.00
C840   C     0.83978   0.49935   0.52651   0.00000  Uiso   1.00
C841   C     0.80847   0.53319   0.55645   0.00000  Uiso   1.00
C842   C     0.84155   0.43773   0.95426   0.00000  Uiso   1.00
C843   C     0.75542   0.54706   0.54080   0.00000  Uiso   1.00
C844   C     0.89315   0.42157   0.97078   0.00000  Uiso   1.00
H845   H     0.73241   0.57239   0.56506   0.00000  Uiso   1.00
H846   H     0.91191   0.39037   0.94979   0.00000  Uiso   1.00
H847   H     0.90756   0.53970   0.60563   0.00000  Uiso   1.00
H848   H     0.76834   0.46450   0.88810   0.00000  Uiso   1.00
H849   H     0.99125   0.57242   0.50118   0.00000  Uiso   1.00
H850   H     0.98930   0.39449   0.51085   0.00000  Uiso   1.00
H851   H     0.82241   0.54791   0.59328   0.00000  Uiso   1.00
H852   H     0.82248   0.41648   0.92152   0.00000  Uiso   1.00
C853   C     0.68928   0.65268   0.74723   0.00000  Uiso   1.00
C854   C     0.97727   0.34727   0.75227   0.00000  Uiso   1.00
H855   H     0.73186   0.33624   0.74177   0.00000  Uiso   1.00
H856   H     0.93466   0.66369   0.75765   0.00000  Uiso   1.00
N857   N     0.81362   0.48550   0.73740   0.00000  Uiso   1.00
N858   N     0.85305   0.51450   0.76261   0.00000  Uiso   1.00
N859   N     0.70767   0.41793   0.59806   0.00000  Uiso   1.00
O860   O     0.75545   0.44480   0.61023   0.00000  Uiso   1.00
O861   O     0.70661   0.36709   0.59437   0.00000  Uiso   1.00
N862   N     0.94415   0.55747   0.91122   0.00000  Uiso   1.00
O863   O     0.93555   0.60614   0.92274   0.00000  Uiso   1.00
O864   O     0.90128   0.52548   0.89507   0.00000  Uiso   1.00
N865   N     0.82893   0.43534   0.72544   0.00000  Uiso   1.00
O866   O     0.82317   0.39983   0.75731   0.00000  Uiso   1.00
O867   O     0.84204   0.42198   0.68054   0.00000  Uiso   1.00
N868   N     0.83768   0.56446   0.77533   0.00000  Uiso   1.00
O869   O     0.84166   0.59993   0.74327   0.00000  Uiso   1.00
O870   O     0.83068   0.57855   0.82143   0.00000  Uiso   1.00
O871   O     0.29719   0.91298   0.75310   0.00000  Uiso   1.00
O872   O     0.03614   0.75369   0.74691   0.00000  Uiso   1.00
O873   O     0.05822   0.90368   0.74502   0.00000  Uiso   1.00
O874   O     0.27512   0.76298   0.75499   0.00000  Uiso   1.00
C875   C     0.01498   0.93150   0.74866   0.00000  Uiso   1.00
C876   C     0.31832   0.73515   0.75116   0.00000  Uiso   1.00
O877   O     0.30328   0.84063   0.82247   0.00000  Uiso   1.00
O878   O     0.03005   0.82603   0.67753   0.00000  Uiso   1.00
O879   O     0.06431   0.83134   0.81439   0.00000  Uiso   1.00
O880   O     0.26902   0.83533   0.68561   0.00000  Uiso   1.00
C881   C     0.02048   0.83744   0.84158   0.00000  Uiso   1.00
C882   C     0.31261   0.82800   0.65856   0.00000  Uiso   1.00
Zn883  Zn    0.27033   0.83954   0.75540   0.00000  Uiso   1.00
Zn884  Zn    0.06300   0.82713   0.74461   0.00000  Uiso   1.00
C885   C     0.02925   0.84115   0.89544   0.00000  Uiso   1.00
C886   C     0.30208   0.81713   0.60543   0.00000  Uiso   1.00
C887   C     0.01538   0.88161   0.97677   0.00000  Uiso   1.00
C888   C     0.30343   0.75874   0.53190   0.00000  Uiso   1.00
C889   C     0.32919   0.87024   0.92774   0.00000  Uiso   1.00
C890   C     0.32742   0.77683   0.57821   0.00000  Uiso   1.00
C891   C     0.07731   0.81948   0.91396   0.00000  Uiso   1.00
C892   C     0.25585   0.83987   0.58500   0.00000  Uiso   1.00
C893   C     0.09685   0.82996   0.96299   0.00000  Uiso   1.00
C894   C     0.22729   0.81763   0.54186   0.00000  Uiso   1.00
C895   C     0.06664   0.86366   0.99383   0.00000  Uiso   1.00
C896   C     0.25288   0.77757   0.51434   0.00000  Uiso   1.00
C897   C     0.14814   0.81110   0.98071   0.00000  Uiso   1.00
C898   C     0.17312   0.83269   0.52651   0.00000  Uiso   1.00
C899   C     0.14180   0.86653   0.55645   0.00000  Uiso   1.00
C900   C     0.17488   0.77107   0.95426   0.00000  Uiso   1.00
C901   C     0.08875   0.88040   0.54080   0.00000  Uiso   1.00
C902   C     0.22648   0.75491   0.97078   0.00000  Uiso   1.00
H903   H     0.06575   0.90573   0.56506   0.00000  Uiso   1.00
H904   H     0.24525   0.72370   0.94979   0.00000  Uiso   1.00
H905   H     0.24089   0.87303   0.60563   0.00000  Uiso   1.00
H906   H     0.10167   0.79783   0.88810   0.00000  Uiso   1.00
H907   H     0.32458   0.90575   0.50118   0.00000  Uiso   1.00
H908   H     0.32264   0.72783   0.51085   0.00000  Uiso   1.00
H909   H     0.15574   0.88124   0.59328   0.00000  Uiso   1.00
H910   H     0.15582   0.74981   0.92152   0.00000  Uiso   1.00
C911   C     0.02261   0.98602   0.74723   0.00000  Uiso   1.00
C912   C     0.31061   0.68060   0.75227   0.00000  Uiso   1.00
H913   H     0.06520   0.66958   0.74177   0.00000  Uiso   1.00
H914   H     0.26799   0.99703   0.75765   0.00000  Uiso   1.00
N915   N     0.14695   0.81883   0.73740   0.00000  Uiso   1.00
N916   N     0.18638   0.84784   0.76261   0.00000  Uiso   1.00
N917   N     0.04100   0.75127   0.59806   0.00000  Uiso   1.00
O918   O     0.08878   0.77813   0.61023   0.00000  Uiso   1.00
O919   O     0.03995   0.70043   0.59437   0.00000  Uiso   1.00
N920   N     0.27749   0.89080   0.91122   0.00000  Uiso   1.00
O921   O     0.26888   0.93947   0.92274   0.00000  Uiso   1.00
O922   O     0.23462   0.85881   0.89507   0.00000  Uiso   1.00
N923   N     0.16226   0.76867   0.72544   0.00000  Uiso   1.00
O924   O     0.15650   0.73317   0.75731   0.00000  Uiso   1.00
O925   O     0.17537   0.75531   0.68054   0.00000  Uiso   1.00
N926   N     0.17101   0.89780   0.77533   0.00000  Uiso   1.00
O927   O     0.17499   0.93326   0.74327   0.00000  Uiso   1.00
O928   O     0.16402   0.91188   0.82143   0.00000  Uiso   1.00
O929   O     0.63052   0.91298   0.75310   0.00000  Uiso   1.00
O930   O     0.36948   0.75369   0.74691   0.00000  Uiso   1.00
O931   O     0.39155   0.90368   0.74502   0.00000  Uiso   1.00
O932   O     0.60845   0.76298   0.75499   0.00000  Uiso   1.00
C933   C     0.34831   0.93150   0.74866   0.00000  Uiso   1.00
C934   C     0.65165   0.73515   0.75116   0.00000  Uiso   1.00
O935   O     0.63662   0.84063   0.82247   0.00000  Uiso   1.00
O936   O     0.36338   0.82603   0.67753   0.00000  Uiso   1.00
O937   O     0.39764   0.83134   0.81439   0.00000  Uiso   1.00
O938   O     0.60236   0.83533   0.68561   0.00000  Uiso   1.00
C939   C     0.35381   0.83744   0.84158   0.00000  Uiso   1.00
C940   C     0.64594   0.82800   0.65856   0.00000  Uiso   1.00
Zn941  Zn    0.60366   0.83954   0.75540   0.00000  Uiso   1.00
Zn942  Zn    0.39634   0.82713   0.74461   0.00000  Uiso   1.00
C943   C     0.36259   0.84115   0.89544   0.00000  Uiso   1.00
C944   C     0.63541   0.81713   0.60543   0.00000  Uiso   1.00
C945   C     0.34872   0.88161   0.97677   0.00000  Uiso   1.00
C946   C     0.63677   0.75874   0.53190   0.00000  Uiso   1.00
C947   C     0.66252   0.87024   0.92774   0.00000  Uiso   1.00
C948   C     0.66076   0.77683   0.57821   0.00000  Uiso   1.00
C949   C     0.41064   0.81948   0.91396   0.00000  Uiso   1.00
C950   C     0.58918   0.83987   0.58500   0.00000  Uiso   1.00
C951   C     0.43018   0.82996   0.96299   0.00000  Uiso   1.00
C952   C     0.56062   0.81763   0.54186   0.00000  Uiso   1.00
C953   C     0.39997   0.86366   0.99383   0.00000  Uiso   1.00
C954   C     0.58621   0.77757   0.51434   0.00000  Uiso   1.00
C955   C     0.48148   0.81110   0.98071   0.00000  Uiso   1.00
C956   C     0.50645   0.83269   0.52651   0.00000  Uiso   1.00
C957   C     0.47513   0.86653   0.55645   0.00000  Uiso   1.00
C958   C     0.50822   0.77107   0.95426   0.00000  Uiso   1.00
C959   C     0.42209   0.88040   0.54080   0.00000  Uiso   1.00
C960   C     0.55981   0.75491   0.97078   0.00000  Uiso   1.00
H961   H     0.39908   0.90573   0.56506   0.00000  Uiso   1.00
H962   H     0.57858   0.72370   0.94979   0.00000  Uiso   1.00
H963   H     0.57423   0.87303   0.60563   0.00000  Uiso   1.00
H964   H     0.43501   0.79783   0.88810   0.00000  Uiso   1.00
H965   H     0.65792   0.90575   0.50118   0.00000  Uiso   1.00
H966   H     0.65597   0.72783   0.51085   0.00000  Uiso   1.00
H967   H     0.48907   0.88124   0.59328   0.00000  Uiso   1.00
H968   H     0.48915   0.74981   0.92152   0.00000  Uiso   1.00
C969   C     0.35594   0.98602   0.74723   0.00000  Uiso   1.00
C970   C     0.64394   0.68060   0.75227   0.00000  Uiso   1.00
H971   H     0.39853   0.66958   0.74177   0.00000  Uiso   1.00
H972   H     0.60132   0.99703   0.75765   0.00000  Uiso   1.00
N973   N     0.48029   0.81883   0.73740   0.00000  Uiso   1.00
N974   N     0.51971   0.84784   0.76261   0.00000  Uiso   1.00
N975   N     0.37434   0.75127   0.59806   0.00000  Uiso   1.00
O976   O     0.42212   0.77813   0.61023   0.00000  Uiso   1.00
O977   O     0.37328   0.70043   0.59437   0.00000  Uiso   1.00
N978   N     0.61082   0.89080   0.91122   0.00000  Uiso   1.00
O979   O     0.60221   0.93947   0.92274   0.00000  Uiso   1.00
O980   O     0.56795   0.85881   0.89507   0.00000  Uiso   1.00
N981   N     0.49560   0.76867   0.72544   0.00000  Uiso   1.00
O982   O     0.48983   0.73317   0.75731   0.00000  Uiso   1.00
O983   O     0.50870   0.75531   0.68054   0.00000  Uiso   1.00
N984   N     0.50435   0.89780   0.77533   0.00000  Uiso   1.00
O985   O     0.50833   0.93326   0.74327   0.00000  Uiso   1.00
O986   O     0.49735   0.91188   0.82143   0.00000  Uiso   1.00
O987   O     0.96386   0.91298   0.75310   0.00000  Uiso   1.00
O988   O     0.70281   0.75369   0.74691   0.00000  Uiso   1.00
O989   O     0.72488   0.90368   0.74502   0.00000  Uiso   1.00
O990   O     0.94178   0.76298   0.75499   0.00000  Uiso   1.00
C991   C     0.68165   0.93150   0.74866   0.00000  Uiso   1.00
C992   C     0.98499   0.73515   0.75116   0.00000  Uiso   1.00
O993   O     0.96995   0.84063   0.82247   0.00000  Uiso   1.00
O994   O     0.69672   0.82603   0.67753   0.00000  Uiso   1.00
O995   O     0.73098   0.83134   0.81439   0.00000  Uiso   1.00
O996   O     0.93569   0.83533   0.68561   0.00000  Uiso   1.00
C997   C     0.68715   0.83744   0.84158   0.00000  Uiso   1.00
C998   C     0.97927   0.82800   0.65856   0.00000  Uiso   1.00
Zn999  Zn    0.93700   0.83954   0.75540   0.00000  Uiso   1.00
Zn1000 Zn    0.72967   0.82713   0.74461   0.00000  Uiso   1.00
C1001  C     0.69592   0.84115   0.89544   0.00000  Uiso   1.00
C1002  C     0.96874   0.81713   0.60543   0.00000  Uiso   1.00
C1003  C     0.68205   0.88161   0.97677   0.00000  Uiso   1.00
C1004  C     0.97010   0.75874   0.53190   0.00000  Uiso   1.00
C1005  C     0.99585   0.87024   0.92774   0.00000  Uiso   1.00
C1006  C     0.99409   0.77683   0.57821   0.00000  Uiso   1.00
C1007  C     0.74397   0.81948   0.91396   0.00000  Uiso   1.00
C1008  C     0.92252   0.83987   0.58500   0.00000  Uiso   1.00
C1009  C     0.76352   0.82996   0.96299   0.00000  Uiso   1.00
C1010  C     0.89396   0.81763   0.54186   0.00000  Uiso   1.00
C1011  C     0.73331   0.86366   0.99383   0.00000  Uiso   1.00
C1012  C     0.91955   0.77757   0.51434   0.00000  Uiso   1.00
C1013  C     0.81481   0.81110   0.98071   0.00000  Uiso   1.00
C1014  C     0.83978   0.83269   0.52651   0.00000  Uiso   1.00
C1015  C     0.80847   0.86653   0.55645   0.00000  Uiso   1.00
C1016  C     0.84155   0.77107   0.95426   0.00000  Uiso   1.00
C1017  C     0.75542   0.88040   0.54080   0.00000  Uiso   1.00
C1018  C     0.89315   0.75491   0.97078   0.00000  Uiso   1.00
H1019  H     0.73241   0.90573   0.56506   0.00000  Uiso   1.00
H1020  H     0.91191   0.72370   0.94979   0.00000  Uiso   1.00
H1021  H     0.90756   0.87303   0.60563   0.00000  Uiso   1.00
H1022  H     0.76834   0.79783   0.88810   0.00000  Uiso   1.00
H1023  H     0.99125   0.90575   0.50118   0.00000  Uiso   1.00
H1024  H     0.98930   0.72783   0.51085   0.00000  Uiso   1.00
H1025  H     0.82241   0.88124   0.59328   0.00000  Uiso   1.00
H1026  H     0.82248   0.74981   0.92152   0.00000  Uiso   1.00
C1027  C     0.68928   0.98602   0.74723   0.00000  Uiso   1.00
C1028  C     0.97727   0.68060   0.75227   0.00000  Uiso   1.00
H1029  H     0.73186   0.66958   0.74177   0.00000  Uiso   1.00
H1030  H     0.93466   0.99703   0.75765   0.00000  Uiso   1.00
N1031  N     0.81362   0.81883   0.73740   0.00000  Uiso   1.00
N1032  N     0.85305   0.84784   0.76261   0.00000  Uiso   1.00
N1033  N     0.70767   0.75127   0.59806   0.00000  Uiso   1.00
O1034  O     0.75545   0.77813   0.61023   0.00000  Uiso   1.00
O1035  O     0.70661   0.70043   0.59437   0.00000  Uiso   1.00
N1036  N     0.94415   0.89080   0.91122   0.00000  Uiso   1.00
O1037  O     0.93555   0.93947   0.92274   0.00000  Uiso   1.00
O1038  O     0.90128   0.85881   0.89507   0.00000  Uiso   1.00
N1039  N     0.82893   0.76867   0.72544   0.00000  Uiso   1.00
O1040  O     0.82317   0.73317   0.75731   0.00000  Uiso   1.00
O1041  O     0.84204   0.75531   0.68054   0.00000  Uiso   1.00
N1042  N     0.83768   0.89780   0.77533   0.00000  Uiso   1.00
O1043  O     0.84166   0.93326   0.74327   0.00000  Uiso   1.00
O1044  O     0.83068   0.91188   0.82143   0.00000  Uiso   1.00
loop_
_geom_bond_atom_site_label_1
_geom_bond_atom_site_label_2
_geom_bond_distance
_geom_bond_site_symmetry_2
_ccdc_geom_bond_type
O1     Zn13    1.951   .     S
O1     C63     1.278   .     S
O2     Zn14    1.951   .     S
O2     C122    1.279   1_455 S
O3     Zn14    1.977   .     S
O3     C5      1.292   .     A
O4     C6      1.292   .     A
O4     Zn13    1.977   .     S
C5     C41     1.402   .     S
C5     O117    1.278   1_455 S
C6     C42     1.402   .     S
C6     O60     1.279   .     S
O7     Zn13    1.951   .     S
O7     C69     1.294   .     S
O8     Zn14    1.951   .     S
O8     C128    1.293   1_455 S
O9     Zn14    1.890   .     S
O9     C11     1.307   .     A
O10    C12     1.305   .     A
O10    Zn13    1.890   .     S
C11    C15     1.465   .     S
C11    O123    1.294   1_455 S
C12    C16     1.460   .     S
C12    O66     1.293   .     S
Zn13   N46     2.026   .     S
Zn14   N45     2.026   .     S
C15    C21     1.392   .     A
C15    C135    1.415   1_455 S
C16    C20     1.415   .     A
C16    C22     1.389   .     A
C17    C25     1.400   .     A
C17    C135    1.398   1_455 S
C17    H675    1.085   1_455 S
C18    C26     1.399   .     A
C18    H38     1.085   .     S
C18    C20     1.397   .     A
C19    N50     1.434   .     S
C19    C73     1.415   .     S
C19    C75     1.398   .     S
C20    N105    1.434   .     S
C21    H36     1.077   .     S
C21    C23     1.395   .     A
C22    H35     1.078   .     S
C22    C24     1.397   .     A
C23    C27     1.416   .     A
C23    C25     1.415   .     A
C24    C26     1.417   .     A
C24    C28     1.419   .     A
C25    C553    1.389   .     S
C26    C554    1.389   1_554 S
C27    C30     1.416   .     A
C27    C550    1.418   .     S
C28    C29     1.418   .     A
C28    C549    1.418   1_554 S
C29    H39     1.077   .     S
C29    C31     1.386   .     A
C30    C32     1.384   .     A
C30    H40     1.078   .     S
C31    H33     1.084   .     S
C31    C547    1.389   1_554 S
C32    H34     1.084   .     S
C32    C548    1.389   .     S
H37    C597    1.085   1_554 S
C41    C332    1.338   1_455 S
C41    H217    1.086   .     S
C42    C447    1.338   1_545 S
C42    H392    1.086   1_545 S
H43    C389    1.086   1_545 S
H44    C216    1.086   .     S
N45    N46     1.294   .     D
N45    N53     1.385   .     S
N46    N56     1.385   .     S
N47    O48     1.299   .     A
N47    O49     1.301   .     A
N47    C136    1.434   1_455 S
N50    O52     1.300   .     A
N50    O51     1.301   .     A
N53    O55     1.300   .     A
N53    O54     1.301   .     A
N56    O57     1.301   .     A
N56    O58     1.300   .     A
O59    Zn71    1.951   .     S
O59    C121    1.278   .     S
O60    Zn72    1.951   .     S
O61    Zn72    1.977   .     S
O61    C63     1.292   .     A
O62    C64     1.292   .     A
O62    Zn71    1.977   .     S
C63    C99     1.402   .     S
C64    C100    1.402   .     S
C64    O118    1.279   .     S
O65    Zn71    1.951   .     S
O65    C127    1.294   .     S
O66    Zn72    1.951   .     S
O67    Zn72    1.890   .     S
O67    C69     1.307   .     A
O68    C70     1.305   .     A
O68    Zn71    1.890   .     S
C69    C73     1.465   .     S
C70    C74     1.460   .     S
C70    O124    1.293   .     S
Zn71   N104    2.026   .     S
Zn72   N103    2.026   .     S
C73    C79     1.392   .     A
C74    C78     1.415   .     A
C74    C80     1.389   .     A
C75    C83     1.400   .     A
C75    H559    1.085   .     S
C76    C84     1.399   .     A
C76    H96     1.085   .     S
C76    C78     1.397   .     A
C77    N108    1.434   .     S
C77    C131    1.415   .     S
C77    C133    1.398   .     S
C78    N163    1.434   .     S
C79    H94     1.077   .     S
C79    C81     1.395   .     A
C80    H93     1.078   .     S
C80    C82     1.397   .     A
C81    C85     1.416   .     A
C81    C83     1.415   .     A
C82    C84     1.417   .     A
C82    C86     1.419   .     A
C83    C611    1.389   .     S
C84    C612    1.389   1_554 S
C85    C88     1.416   .     A
C85    C608    1.418   .     S
C86    C87     1.418   .     A
C86    C607    1.418   1_554 S
C87    H97     1.077   .     S
C87    C89     1.386   .     A
C88    C90     1.384   .     A
C88    H98     1.078   .     S
C89    H91     1.084   .     S
C89    C605    1.389   1_554 S
C90    H92     1.084   .     S
C90    C606    1.389   .     S
H95    C655    1.085   1_554 S
C99    C216    1.338   .     S
C99    H275    1.086   .     S
C100   C505    1.338   1_545 S
C100   H450    1.086   1_545 S
H101   C447    1.086   1_545 S
H102   C274    1.086   .     S
N103   N104    1.294   .     D
N103   N111    1.385   .     S
N104   N114    1.385   .     S
N105   O106    1.299   .     A
N105   O107    1.301   .     A
N108   O110    1.300   .     A
N108   O109    1.301   .     A
N111   O113    1.300   .     A
N111   O112    1.301   .     A
N114   O115    1.301   .     A
N114   O116    1.300   .     A
O117   Zn129   1.951   .     S
O117   C5      1.278   1_655 S
O118   Zn130   1.951   .     S
O119   Zn130   1.977   .     S
O119   C121    1.292   .     A
O120   C122    1.292   .     A
O120   Zn129   1.977   .     S
C121   C157    1.402   .     S
C122   C158    1.402   .     S
C122   O2      1.279   1_655 S
O123   Zn129   1.951   .     S
O123   C11     1.294   1_655 S
O124   Zn130   1.951   .     S
O125   Zn130   1.890   .     S
O125   C127    1.307   .     A
O126   C128    1.305   .     A
O126   Zn129   1.890   .     S
C127   C131    1.465   .     S
C128   C132    1.460   .     S
C128   O8      1.293   1_655 S
Zn129  N162    2.026   .     S
Zn130  N161    2.026   .     S
C131   C137    1.392   .     A
C132   C136    1.415   .     A
C132   C138    1.389   .     A
C133   C141    1.400   .     A
C133   H617    1.085   .     S
C134   C142    1.399   .     A
C134   H154    1.085   .     S
C134   C136    1.397   .     A
C135   N166    1.434   .     S
C135   C15     1.415   1_655 S
C135   C17     1.398   1_655 S
C136   N47     1.434   1_655 S
C137   H152    1.077   .     S
C137   C139    1.395   .     A
C138   H151    1.078   .     S
C138   C140    1.397   .     A
C139   C143    1.416   .     A
C139   C141    1.415   .     A
C140   C142    1.417   .     A
C140   C144    1.419   .     A
C141   C669    1.389   .     S
C142   C670    1.389   1_554 S
C143   C146    1.416   .     A
C143   C666    1.418   .     S
C144   C145    1.418   .     A
C144   C665    1.418   1_554 S
C145   H155    1.077   .     S
C145   C147    1.386   .     A
C146   C148    1.384   .     A
C146   H156    1.078   .     S
C147   H149    1.084   .     S
C147   C663    1.389   1_554 S
C148   H150    1.084   .     S
C148   C664    1.389   .     S
H153   C539    1.085   1_654 S
C157   C274    1.338   .     S
C157   H333    1.086   .     S
C158   C389    1.338   1_645 S
C158   H508    1.086   1_545 S
H159   C505    1.086   1_545 S
H160   C332    1.086   .     S
N161   N162    1.294   .     D
N161   N169    1.385   .     S
N162   N172    1.385   .     S
N163   O164    1.299   .     A
N163   O165    1.301   .     A
N166   O168    1.300   .     A
N166   O167    1.301   .     A
N169   O171    1.300   .     A
N169   O170    1.301   .     A
N172   O173    1.301   .     A
N172   O174    1.300   .     A
O175   Zn187   1.951   .     S
O175   C237    1.278   .     S
O176   Zn188   1.951   .     S
O176   C296    1.279   1_455 S
O177   Zn188   1.977   .     S
O177   C179    1.292   .     A
O178   C180    1.292   .     A
O178   Zn187   1.977   .     S
C179   C215    1.402   .     S
C179   O291    1.278   1_455 S
C180   C216    1.402   .     S
C180   O234    1.279   .     S
O181   Zn187   1.951   .     S
O181   C243    1.294   .     S
O182   Zn188   1.951   .     S
O182   C302    1.293   1_455 S
O183   Zn188   1.890   .     S
O183   C185    1.307   .     A
O184   C186    1.305   .     A
O184   Zn187   1.890   .     S
C185   C189    1.465   .     S
C185   O297    1.294   1_455 S
C186   C190    1.460   .     S
C186   O240    1.293   .     S
Zn187  N220    2.026   .     S
Zn188  N219    2.026   .     S
C189   C195    1.392   .     A
C189   C309    1.415   1_455 S
C190   C194    1.415   .     A
C190   C196    1.389   .     A
C191   C199    1.400   .     A
C191   C309    1.398   1_455 S
C191   H849    1.085   1_455 S
C192   C200    1.399   .     A
C192   H212    1.085   .     S
C192   C194    1.397   .     A
C193   N224    1.434   .     S
C193   C247    1.415   .     S
C193   C249    1.398   .     S
C194   N279    1.434   .     S
C195   H210    1.077   .     S
C195   C197    1.395   .     A
C196   H209    1.078   .     S
C196   C198    1.397   .     A
C197   C201    1.416   .     A
C197   C199    1.415   .     A
C198   C200    1.417   .     A
C198   C202    1.419   .     A
C199   C727    1.389   .     S
C200   C728    1.389   1_554 S
C201   C204    1.416   .     A
C201   C724    1.418   .     S
C202   C203    1.418   .     A
C202   C723    1.418   1_554 S
C203   H213    1.077   .     S
C203   C205    1.386   .     A
C204   C206    1.384   .     A
C204   H214    1.078   .     S
C205   H207    1.084   .     S
C205   C721    1.389   1_554 S
C206   H208    1.084   .     S
C206   C722    1.389   .     S
H211   C771    1.085   1_554 S
C215   C506    1.338   1_455 S
C215   H391    1.086   .     S
H218   C390    1.086   .     S
N219   N220    1.294   .     D
N219   N227    1.385   .     S
N220   N230    1.385   .     S
N221   O222    1.299   .     A
N221   O223    1.301   .     A
N221   C310    1.434   1_455 S
N224   O226    1.300   .     A
N224   O225    1.301   .     A
N227   O229    1.300   .     A
N227   O228    1.301   .     A
N230   O231    1.301   .     A
N230   O232    1.300   .     A
O233   Zn245   1.951   .     S
O233   C295    1.278   .     S
O234   Zn246   1.951   .     S
O235   Zn246   1.977   .     S
O235   C237    1.292   .     A
O236   C238    1.292   .     A
O236   Zn245   1.977   .     S
C237   C273    1.402   .     S
C238   C274    1.402   .     S
C238   O292    1.279   .     S
O239   Zn245   1.951   .     S
O239   C301    1.294   .     S
O240   Zn246   1.951   .     S
O241   Zn246   1.890   .     S
O241   C243    1.307   .     A
O242   C244    1.305   .     A
O242   Zn245   1.890   .     S
C243   C247    1.465   .     S
C244   C248    1.460   .     S
C244   O298    1.293   .     S
Zn245  N278    2.026   .     S
Zn246  N277    2.026   .     S
C247   C253    1.392   .     A
C248   C252    1.415   .     A
C248   C254    1.389   .     A
C249   C257    1.400   .     A
C249   H733    1.085   .     S
C250   C258    1.399   .     A
C250   H270    1.085   .     S
C250   C252    1.397   .     A
C251   N282    1.434   .     S
C251   C305    1.415   .     S
C251   C307    1.398   .     S
C252   N337    1.434   .     S
C253   H268    1.077   .     S
C253   C255    1.395   .     A
C254   H267    1.078   .     S
C254   C256    1.397   .     A
C255   C259    1.416   .     A
C255   C257    1.415   .     A
C256   C258    1.417   .     A
C256   C260    1.419   .     A
C257   C785    1.389   .     S
C258   C786    1.389   1_554 S
C259   C262    1.416   .     A
C259   C782    1.418   .     S
C260   C261    1.418   .     A
C260   C781    1.418   1_554 S
C261   H271    1.077   .     S
C261   C263    1.386   .     A
C262   C264    1.384   .     A
C262   H272    1.078   .     S
C263   H265    1.084   .     S
C263   C779    1.389   1_554 S
C264   H266    1.084   .     S
C264   C780    1.389   .     S
H269   C829    1.085   1_554 S
C273   C390    1.338   .     S
C273   H449    1.086   .     S
H276   C448    1.086   .     S
N277   N278    1.294   .     D
N277   N285    1.385   .     S
N278   N288    1.385   .     S
N279   O280    1.299   .     A
N279   O281    1.301   .     A
N282   O284    1.300   .     A
N282   O283    1.301   .     A
N285   O287    1.300   .     A
N285   O286    1.301   .     A
N288   O289    1.301   .     A
N288   O290    1.300   .     A
O291   Zn303   1.951   .     S
O291   C179    1.278   1_655 S
O292   Zn304   1.951   .     S
O293   Zn304   1.977   .     S
O293   C295    1.292   .     A
O294   C296    1.292   .     A
O294   Zn303   1.977   .     S
C295   C331    1.402   .     S
C296   C332    1.402   .     S
C296   O176    1.279   1_655 S
O297   Zn303   1.951   .     S
O297   C185    1.294   1_655 S
O298   Zn304   1.951   .     S
O299   Zn304   1.890   .     S
O299   C301    1.307   .     A
O300   C302    1.305   .     A
O300   Zn303   1.890   .     S
C301   C305    1.465   .     S
C302   C306    1.460   .     S
C302   O182    1.293   1_655 S
Zn303  N336    2.026   .     S
Zn304  N335    2.026   .     S
C305   C311    1.392   .     A
C306   C310    1.415   .     A
C306   C312    1.389   .     A
C307   C315    1.400   .     A
C307   H791    1.085   .     S
C308   C316    1.399   .     A
C308   H328    1.085   .     S
C308   C310    1.397   .     A
C309   N340    1.434   .     S
C309   C189    1.415   1_655 S
C309   C191    1.398   1_655 S
C310   N221    1.434   1_655 S
C311   H326    1.077   .     S
C311   C313    1.395   .     A
C312   H325    1.078   .     S
C312   C314    1.397   .     A
C313   C317    1.416   .     A
C313   C315    1.415   .     A
C314   C316    1.417   .     A
C314   C318    1.419   .     A
C315   C843    1.389   .     S
C316   C844    1.389   1_554 S
C317   C320    1.416   .     A
C317   C840    1.418   .     S
C318   C319    1.418   .     A
C318   C839    1.418   1_554 S
C319   H329    1.077   .     S
C319   C321    1.386   .     A
C320   C322    1.384   .     A
C320   H330    1.078   .     S
C321   H323    1.084   .     S
C321   C837    1.389   1_554 S
C322   H324    1.084   .     S
C322   C838    1.389   .     S
H327   C713    1.085   1_654 S
C331   C448    1.338   .     S
C331   H507    1.086   .     S
C332   C41     1.338   1_655 S
H334   C506    1.086   .     S
N335   N336    1.294   .     D
N335   N343    1.385   .     S
N336   N346    1.385   .     S
N337   O338    1.299   .     A
N337   O339    1.301   .     A
N340   O342    1.300   .     A
N340   O341    1.301   .     A
N343   O345    1.300   .     A
N343   O344    1.301   .     A
N346   O347    1.301   .     A
N346   O348    1.300   .     A
O349   Zn361   1.951   .     S
O349   C411    1.278   .     S
O350   Zn362   1.951   .     S
O350   C470    1.279   1_455 S
O351   Zn362   1.977   .     S
O351   C353    1.292   .     A
O352   C354    1.292   .     A
O352   Zn361   1.977   .     S
C353   C389    1.402   .     S
C353   O465    1.278   1_455 S
C354   C390    1.402   .     S
C354   O408    1.279   .     S
O355   Zn361   1.951   .     S
O355   C417    1.294   .     S
O356   Zn362   1.951   .     S
O356   C476    1.293   1_455 S
O357   Zn362   1.890   .     S
O357   C359    1.307   .     A
O358   C360    1.305   .     A
O358   Zn361   1.890   .     S
C359   C363    1.465   .     S
C359   O471    1.294   1_455 S
C360   C364    1.460   .     S
C360   O414    1.293   .     S
Zn361  N394    2.026   .     S
Zn362  N393    2.026   .     S
C363   C369    1.392   .     A
C363   C483    1.415   1_455 S
C364   C368    1.415   .     A
C364   C370    1.389   .     A
C365   C373    1.400   .     A
C365   C483    1.398   1_455 S
C365   H1023   1.085   1_455 S
C366   C374    1.399   .     A
C366   H386    1.085   .     S
C366   C368    1.397   .     A
C367   N398    1.434   .     S
C367   C421    1.415   .     S
C367   C423    1.398   .     S
C368   N453    1.434   .     S
C369   H384    1.077   .     S
C369   C371    1.395   .     A
C370   H383    1.078   .     S
C370   C372    1.397   .     A
C371   C375    1.416   .     A
C371   C373    1.415   .     A
C372   C374    1.417   .     A
C372   C376    1.419   .     A
C373   C901    1.389   .     S
C374   C902    1.389   1_554 S
C375   C378    1.416   .     A
C375   C898    1.418   .     S
C376   C377    1.418   .     A
C376   C897    1.418   1_554 S
C377   H387    1.077   .     S
C377   C379    1.386   .     A
C378   C380    1.384   .     A
C378   H388    1.078   .     S
C379   H381    1.084   .     S
C379   C895    1.389   1_554 S
C380   H382    1.084   .     S
C380   C896    1.389   .     S
H385   C945    1.085   1_554 S
C389   C158    1.338   1_465 S
C389   H43     1.086   1_565 S
H392   C42     1.086   1_565 S
N393   N394    1.294   .     D
N393   N401    1.385   .     S
N394   N404    1.385   .     S
N395   O396    1.299   .     A
N395   O397    1.301   .     A
N395   C484    1.434   1_455 S
N398   O400    1.300   .     A
N398   O399    1.301   .     A
N401   O403    1.300   .     A
N401   O402    1.301   .     A
N404   O405    1.301   .     A
N404   O406    1.300   .     A
O407   Zn419   1.951   .     S
O407   C469    1.278   .     S
O408   Zn420   1.951   .     S
O409   Zn420   1.977   .     S
O409   C411    1.292   .     A
O410   C412    1.292   .     A
O410   Zn419   1.977   .     S
C411   C447    1.402   .     S
C412   C448    1.402   .     S
C412   O466    1.279   .     S
O413   Zn419   1.951   .     S
O413   C475    1.294   .     S
O414   Zn420   1.951   .     S
O415   Zn420   1.890   .     S
O415   C417    1.307   .     A
O416   C418    1.305   .     A
O416   Zn419   1.890   .     S
C417   C421    1.465   .     S
C418   C422    1.460   .     S
C418   O472    1.293   .     S
Zn419  N452    2.026   .     S
Zn420  N451    2.026   .     S
C421   C427    1.392   .     A
C422   C426    1.415   .     A
C422   C428    1.389   .     A
C423   C431    1.400   .     A
C423   H907    1.085   .     S
C424   C432    1.399   .     A
C424   H444    1.085   .     S
C424   C426    1.397   .     A
C425   N456    1.434   .     S
C425   C479    1.415   .     S
C425   C481    1.398   .     S
C426   N511    1.434   .     S
C427   H442    1.077   .     S
C427   C429    1.395   .     A
C428   H441    1.078   .     S
C428   C430    1.397   .     A
C429   C433    1.416   .     A
C429   C431    1.415   .     A
C430   C432    1.417   .     A
C430   C434    1.419   .     A
C431   C959    1.389   .     S
C432   C960    1.389   1_554 S
C433   C436    1.416   .     A
C433   C956    1.418   .     S
C434   C435    1.418   .     A
C434   C955    1.418   1_554 S
C435   H445    1.077   .     S
C435   C437    1.386   .     A
C436   C438    1.384   .     A
C436   H446    1.078   .     S
C437   H439    1.084   .     S
C437   C953    1.389   1_554 S
C438   H440    1.084   .     S
C438   C954    1.389   .     S
H443   C1003   1.085   1_554 S
C447   C42     1.338   1_565 S
C447   H101    1.086   1_565 S
H450   C100    1.086   1_565 S
N451   N452    1.294   .     D
N451   N459    1.385   .     S
N452   N462    1.385   .     S
N453   O454    1.299   .     A
N453   O455    1.301   .     A
N456   O458    1.300   .     A
N456   O457    1.301   .     A
N459   O461    1.300   .     A
N459   O460    1.301   .     A
N462   O463    1.301   .     A
N462   O464    1.300   .     A
O465   Zn477   1.951   .     S
O465   C353    1.278   1_655 S
O466   Zn478   1.951   .     S
O467   Zn478   1.977   .     S
O467   C469    1.292   .     A
O468   C470    1.292   .     A
O468   Zn477   1.977   .     S
C469   C505    1.402   .     S
C470   C506    1.402   .     S
C470   O350    1.279   1_655 S
O471   Zn477   1.951   .     S
O471   C359    1.294   1_655 S
O472   Zn478   1.951   .     S
O473   Zn478   1.890   .     S
O473   C475    1.307   .     A
O474   C476    1.305   .     A
O474   Zn477   1.890   .     S
C475   C479    1.465   .     S
C476   C480    1.460   .     S
C476   O356    1.293   1_655 S
Zn477  N510    2.026   .     S
Zn478  N509    2.026   .     S
C479   C485    1.392   .     A
C480   C484    1.415   .     A
C480   C486    1.389   .     A
C481   C489    1.400   .     A
C481   H965    1.085   .     S
C482   C490    1.399   .     A
C482   H502    1.085   .     S
C482   C484    1.397   .     A
C483   N514    1.434   .     S
C483   C363    1.415   1_655 S
C483   C365    1.398   1_655 S
C484   N395    1.434   1_655 S
C485   H500    1.077   .     S
C485   C487    1.395   .     A
C486   H499    1.078   .     S
C486   C488    1.397   .     A
C487   C491    1.416   .     A
C487   C489    1.415   .     A
C488   C490    1.417   .     A
C488   C492    1.419   .     A
C489   C1017   1.389   .     S
C490   C1018   1.389   1_554 S
C491   C494    1.416   .     A
C491   C1014   1.418   .     S
C492   C493    1.418   .     A
C492   C1013   1.418   1_554 S
C493   H503    1.077   .     S
C493   C495    1.386   .     A
C494   C496    1.384   .     A
C494   H504    1.078   .     S
C495   H497    1.084   .     S
C495   C1011   1.389   1_554 S
C496   H498    1.084   .     S
C496   C1012   1.389   .     S
H501   C887    1.085   1_654 S
C505   C100    1.338   1_565 S
C505   H159    1.086   1_565 S
C506   C215    1.338   1_655 S
H508   C158    1.086   1_565 S
N509   N510    1.294   .     D
N509   N517    1.385   .     S
N510   N520    1.385   .     S
N511   O512    1.299   .     A
N511   O513    1.301   .     A
N514   O516    1.300   .     A
N514   O515    1.301   .     A
N517   O519    1.300   .     A
N517   O518    1.301   .     A
N520   O521    1.301   .     A
N520   O522    1.300   .     A
O523   Zn535   1.951   .     S
O523   C585    1.278   .     S
O524   Zn536   1.951   .     S
O524   C644    1.279   1_455 S
O525   Zn536   1.977   .     S
O525   C527    1.292   .     A
O526   C528    1.292   .     A
O526   Zn535   1.977   .     S
C527   C563    1.402   .     S
C527   O639    1.278   1_455 S
C528   C564    1.402   .     S
C528   O582    1.279   .     S
O529   Zn535   1.951   .     S
O529   C591    1.294   .     S
O530   Zn536   1.951   .     S
O530   C650    1.293   1_455 S
O531   Zn536   1.890   .     S
O531   C533    1.307   .     A
O532   C534    1.305   .     A
O532   Zn535   1.890   .     S
C533   C537    1.465   .     S
C533   O645    1.294   1_455 S
C534   C538    1.460   .     S
C534   O588    1.293   .     S
Zn535  N568    2.026   .     S
Zn536  N567    2.026   .     S
C537   C543    1.392   .     A
C537   C657    1.415   1_455 S
C538   C542    1.415   .     A
C538   C544    1.389   .     A
C539   C547    1.400   .     A
C539   C657    1.398   1_455 S
C539   H153    1.085   1_456 S
C540   C548    1.399   .     A
C540   H560    1.085   .     S
C540   C542    1.397   .     A
C541   N572    1.434   .     S
C541   C595    1.415   .     S
C541   C597    1.398   .     S
C542   N627    1.434   .     S
C543   H558    1.077   .     S
C543   C545    1.395   .     A
C544   H557    1.078   .     S
C544   C546    1.397   .     A
C545   C549    1.416   .     A
C545   C547    1.415   .     A
C546   C548    1.417   .     A
C546   C550    1.419   .     A
C547   C31     1.389   1_556 S
C549   C552    1.416   .     A
C549   C28     1.418   1_556 S
C550   C551    1.418   .     A
C551   H561    1.077   .     S
C551   C553    1.386   .     A
C552   C554    1.384   .     A
C552   H562    1.078   .     S
C553   H555    1.084   .     S
C554   H556    1.084   .     S
C554   C26     1.389   1_556 S
C563   C854    1.338   1_455 S
C563   H739    1.086   .     S
C564   C969    1.338   1_545 S
C564   H914    1.086   1_545 S
H565   C911    1.086   1_545 S
H566   C738    1.086   .     S
N567   N568    1.294   .     D
N567   N575    1.385   .     S
N568   N578    1.385   .     S
N569   O570    1.299   .     A
N569   O571    1.301   .     A
N569   C658    1.434   1_455 S
N572   O574    1.300   .     A
N572   O573    1.301   .     A
N575   O577    1.300   .     A
N575   O576    1.301   .     A
N578   O579    1.301   .     A
N578   O580    1.300   .     A
O581   Zn593   1.951   .     S
O581   C643    1.278   .     S
O582   Zn594   1.951   .     S
O583   Zn594   1.977   .     S
O583   C585    1.292   .     A
O584   C586    1.292   .     A
O584   Zn593   1.977   .     S
C585   C621    1.402   .     S
C586   C622    1.402   .     S
C586   O640    1.279   .     S
O587   Zn593   1.951   .     S
O587   C649    1.294   .     S
O588   Zn594   1.951   .     S
O589   Zn594   1.890   .     S
O589   C591    1.307   .     A
O590   C592    1.305   .     A
O590   Zn593   1.890   .     S
C591   C595    1.465   .     S
C592   C596    1.460   .     S
C592   O646    1.293   .     S
Zn593  N626    2.026   .     S
Zn594  N625    2.026   .     S
C595   C601    1.392   .     A
C596   C600    1.415   .     A
C596   C602    1.389   .     A
C597   C605    1.400   .     A
C597   H37     1.085   1_556 S
C598   C606    1.399   .     A
C598   H618    1.085   .     S
C598   C600    1.397   .     A
C599   N630    1.434   .     S
C599   C653    1.415   .     S
C599   C655    1.398   .     S
C600   N685    1.434   .     S
C601   H616    1.077   .     S
C601   C603    1.395   .     A
C602   H615    1.078   .     S
C602   C604    1.397   .     A
C603   C607    1.416   .     A
C603   C605    1.415   .     A
C604   C606    1.417   .     A
C604   C608    1.419   .     A
C605   C89     1.389   1_556 S
C607   C610    1.416   .     A
C607   C86     1.418   1_556 S
C608   C609    1.418   .     A
C609   H619    1.077   .     S
C609   C611    1.386   .     A
C610   C612    1.384   .     A
C610   H620    1.078   .     S
C611   H613    1.084   .     S
C612   H614    1.084   .     S
C612   C84     1.389   1_556 S
C621   C738    1.338   .     S
C621   H797    1.086   .     S
C622   C1027   1.338   1_545 S
C622   H972    1.086   1_545 S
H623   C969    1.086   1_545 S
H624   C796    1.086   .     S
N625   N626    1.294   .     D
N625   N633    1.385   .     S
N626   N636    1.385   .     S
N627   O628    1.299   .     A
N627   O629    1.301   .     A
N630   O632    1.300   .     A
N630   O631    1.301   .     A
N633   O635    1.300   .     A
N633   O634    1.301   .     A
N636   O637    1.301   .     A
N636   O638    1.300   .     A
O639   Zn651   1.951   .     S
O639   C527    1.278   1_655 S
O640   Zn652   1.951   .     S
O641   Zn652   1.977   .     S
O641   C643    1.292   .     A
O642   C644    1.292   .     A
O642   Zn651   1.977   .     S
C643   C679    1.402   .     S
C644   C680    1.402   .     S
C644   O524    1.279   1_655 S
O645   Zn651   1.951   .     S
O645   C533    1.294   1_655 S
O646   Zn652   1.951   .     S
O647   Zn652   1.890   .     S
O647   C649    1.307   .     A
O648   C650    1.305   .     A
O648   Zn651   1.890   .     S
C649   C653    1.465   .     S
C650   C654    1.460   .     S
C650   O530    1.293   1_655 S
Zn651  N684    2.026   .     S
Zn652  N683    2.026   .     S
C653   C659    1.392   .     A
C654   C658    1.415   .     A
C654   C660    1.389   .     A
C655   C663    1.400   .     A
C655   H95     1.085   1_556 S
C656   C664    1.399   .     A
C656   H676    1.085   .     S
C656   C658    1.397   .     A
C657   N688    1.434   .     S
C657   C537    1.415   1_655 S
C657   C539    1.398   1_655 S
C658   N569    1.434   1_655 S
C659   H674    1.077   .     S
C659   C661    1.395   .     A
C660   H673    1.078   .     S
C660   C662    1.397   .     A
C661   C665    1.416   .     A
C661   C663    1.415   .     A
C662   C664    1.417   .     A
C662   C666    1.419   .     A
C663   C147    1.389   1_556 S
C665   C668    1.416   .     A
C665   C144    1.418   1_556 S
C666   C667    1.418   .     A
C667   H677    1.077   .     S
C667   C669    1.386   .     A
C668   C670    1.384   .     A
C668   H678    1.078   .     S
C669   H671    1.084   .     S
C670   H672    1.084   .     S
C670   C142    1.389   1_556 S
H675   C17     1.085   1_655 S
C679   C796    1.338   .     S
C679   H855    1.086   .     S
C680   C911    1.338   1_645 S
C680   H1030   1.086   1_545 S
H681   C1027   1.086   1_545 S
H682   C854    1.086   .     S
N683   N684    1.294   .     D
N683   N691    1.385   .     S
N684   N694    1.385   .     S
N685   O686    1.299   .     A
N685   O687    1.301   .     A
N688   O690    1.300   .     A
N688   O689    1.301   .     A
N691   O693    1.300   .     A
N691   O692    1.301   .     A
N694   O695    1.301   .     A
N694   O696    1.300   .     A
O697   Zn709   1.951   .     S
O697   C759    1.278   .     S
O698   Zn710   1.951   .     S
O698   C818    1.279   1_455 S
O699   Zn710   1.977   .     S
O699   C701    1.292   .     A
O700   C702    1.292   .     A
O700   Zn709   1.977   .     S
C701   C737    1.402   .     S
C701   O813    1.278   1_455 S
C702   C738    1.402   .     S
C702   O756    1.279   .     S
O703   Zn709   1.951   .     S
O703   C765    1.294   .     S
O704   Zn710   1.951   .     S
O704   C824    1.293   1_455 S
O705   Zn710   1.890   .     S
O705   C707    1.307   .     A
O706   C708    1.305   .     A
O706   Zn709   1.890   .     S
C707   C711    1.465   .     S
C707   O819    1.294   1_455 S
C708   C712    1.460   .     S
C708   O762    1.293   .     S
Zn709  N742    2.026   .     S
Zn710  N741    2.026   .     S
C711   C717    1.392   .     A
C711   C831    1.415   1_455 S
C712   C716    1.415   .     A
C712   C718    1.389   .     A
C713   C721    1.400   .     A
C713   C831    1.398   1_455 S
C713   H327    1.085   1_456 S
C714   C722    1.399   .     A
C714   H734    1.085   .     S
C714   C716    1.397   .     A
C715   N746    1.434   .     S
C715   C769    1.415   .     S
C715   C771    1.398   .     S
C716   N801    1.434   .     S
C717   H732    1.077   .     S
C717   C719    1.395   .     A
C718   H731    1.078   .     S
C718   C720    1.397   .     A
C719   C723    1.416   .     A
C719   C721    1.415   .     A
C720   C722    1.417   .     A
C720   C724    1.419   .     A
C721   C205    1.389   1_556 S
C723   C726    1.416   .     A
C723   C202    1.418   1_556 S
C724   C725    1.418   .     A
C725   H735    1.077   .     S
C725   C727    1.386   .     A
C726   C728    1.384   .     A
C726   H736    1.078   .     S
C727   H729    1.084   .     S
C728   H730    1.084   .     S
C728   C200    1.389   1_556 S
C737   C1028   1.338   1_455 S
C737   H913    1.086   .     S
H740   C912    1.086   .     S
N741   N742    1.294   .     D
N741   N749    1.385   .     S
N742   N752    1.385   .     S
N743   O744    1.299   .     A
N743   O745    1.301   .     A
N743   C832    1.434   1_455 S
N746   O748    1.300   .     A
N746   O747    1.301   .     A
N749   O751    1.300   .     A
N749   O750    1.301   .     A
N752   O753    1.301   .     A
N752   O754    1.300   .     A
O755   Zn767   1.951   .     S
O755   C817    1.278   .     S
O756   Zn768   1.951   .     S
O757   Zn768   1.977   .     S
O757   C759    1.292   .     A
O758   C760    1.292   .     A
O758   Zn767   1.977   .     S
C759   C795    1.402   .     S
C760   C796    1.402   .     S
C760   O814    1.279   .     S
O761   Zn767   1.951   .     S
O761   C823    1.294   .     S
O762   Zn768   1.951   .     S
O763   Zn768   1.890   .     S
O763   C765    1.307   .     A
O764   C766    1.305   .     A
O764   Zn767   1.890   .     S
C765   C769    1.465   .     S
C766   C770    1.460   .     S
C766   O820    1.293   .     S
Zn767  N800    2.026   .     S
Zn768  N799    2.026   .     S
C769   C775    1.392   .     A
C770   C774    1.415   .     A
C770   C776    1.389   .     A
C771   C779    1.400   .     A
C771   H211    1.085   1_556 S
C772   C780    1.399   .     A
C772   H792    1.085   .     S
C772   C774    1.397   .     A
C773   N804    1.434   .     S
C773   C827    1.415   .     S
C773   C829    1.398   .     S
C774   N859    1.434   .     S
C775   H790    1.077   .     S
C775   C777    1.395   .     A
C776   H789    1.078   .     S
C776   C778    1.397   .     A
C777   C781    1.416   .     A
C777   C779    1.415   .     A
C778   C780    1.417   .     A
C778   C782    1.419   .     A
C779   C263    1.389   1_556 S
C781   C784    1.416   .     A
C781   C260    1.418   1_556 S
C782   C783    1.418   .     A
C783   H793    1.077   .     S
C783   C785    1.386   .     A
C784   C786    1.384   .     A
C784   H794    1.078   .     S
C785   H787    1.084   .     S
C786   H788    1.084   .     S
C786   C258    1.389   1_556 S
C795   C912    1.338   .     S
C795   H971    1.086   .     S
H798   C970    1.086   .     S
N799   N800    1.294   .     D
N799   N807    1.385   .     S
N800   N810    1.385   .     S
N801   O802    1.299   .     A
N801   O803    1.301   .     A
N804   O806    1.300   .     A
N804   O805    1.301   .     A
N807   O809    1.300   .     A
N807   O808    1.301   .     A
N810   O811    1.301   .     A
N810   O812    1.300   .     A
O813   Zn825   1.951   .     S
O813   C701    1.278   1_655 S
O814   Zn826   1.951   .     S
O815   Zn826   1.977   .     S
O815   C817    1.292   .     A
O816   C818    1.292   .     A
O816   Zn825   1.977   .     S
C817   C853    1.402   .     S
C818   C854    1.402   .     S
C818   O698    1.279   1_655 S
O819   Zn825   1.951   .     S
O819   C707    1.294   1_655 S
O820   Zn826   1.951   .     S
O821   Zn826   1.890   .     S
O821   C823    1.307   .     A
O822   C824    1.305   .     A
O822   Zn825   1.890   .     S
C823   C827    1.465   .     S
C824   C828    1.460   .     S
C824   O704    1.293   1_655 S
Zn825  N858    2.026   .     S
Zn826  N857    2.026   .     S
C827   C833    1.392   .     A
C828   C832    1.415   .     A
C828   C834    1.389   .     A
C829   C837    1.400   .     A
C829   H269    1.085   1_556 S
C830   C838    1.399   .     A
C830   H850    1.085   .     S
C830   C832    1.397   .     A
C831   N862    1.434   .     S
C831   C711    1.415   1_655 S
C831   C713    1.398   1_655 S
C832   N743    1.434   1_655 S
C833   H848    1.077   .     S
C833   C835    1.395   .     A
C834   H847    1.078   .     S
C834   C836    1.397   .     A
C835   C839    1.416   .     A
C835   C837    1.415   .     A
C836   C838    1.417   .     A
C836   C840    1.419   .     A
C837   C321    1.389   1_556 S
C839   C842    1.416   .     A
C839   C318    1.418   1_556 S
C840   C841    1.418   .     A
C841   H851    1.077   .     S
C841   C843    1.386   .     A
C842   C844    1.384   .     A
C842   H852    1.078   .     S
C843   H845    1.084   .     S
C844   H846    1.084   .     S
C844   C316    1.389   1_556 S
H849   C191    1.085   1_655 S
C853   C970    1.338   .     S
C853   H1029   1.086   .     S
C854   C563    1.338   1_655 S
H856   C1028   1.086   .     S
N857   N858    1.294   .     D
N857   N865    1.385   .     S
N858   N868    1.385   .     S
N859   O860    1.299   .     A
N859   O861    1.301   .     A
N862   O864    1.300   .     A
N862   O863    1.301   .     A
N865   O867    1.300   .     A
N865   O866    1.301   .     A
N868   O869    1.301   .     A
N868   O870    1.300   .     A
O871   Zn883   1.951   .     S
O871   C933    1.278   .     S
O872   Zn884   1.951   .     S
O872   C992    1.279   1_455 S
O873   Zn884   1.977   .     S
O873   C875    1.292   .     A
O874   C876    1.292   .     A
O874   Zn883   1.977   .     S
C875   C911    1.402   .     S
C875   O987    1.278   1_455 S
C876   C912    1.402   .     S
C876   O930    1.279   .     S
O877   Zn883   1.951   .     S
O877   C939    1.294   .     S
O878   Zn884   1.951   .     S
O878   C998    1.293   1_455 S
O879   Zn884   1.890   .     S
O879   C881    1.307   .     A
O880   C882    1.305   .     A
O880   Zn883   1.890   .     S
C881   C885    1.465   .     S
C881   O993    1.294   1_455 S
C882   C886    1.460   .     S
C882   O936    1.293   .     S
Zn883  N916    2.026   .     S
Zn884  N915    2.026   .     S
C885   C891    1.392   .     A
C885   C1005   1.415   1_455 S
C886   C890    1.415   .     A
C886   C892    1.389   .     A
C887   C895    1.400   .     A
C887   C1005   1.398   1_455 S
C887   H501    1.085   1_456 S
C888   C896    1.399   .     A
C888   H908    1.085   .     S
C888   C890    1.397   .     A
C889   N920    1.434   .     S
C889   C943    1.415   .     S
C889   C945    1.398   .     S
C890   N975    1.434   .     S
C891   H906    1.077   .     S
C891   C893    1.395   .     A
C892   H905    1.078   .     S
C892   C894    1.397   .     A
C893   C897    1.416   .     A
C893   C895    1.415   .     A
C894   C896    1.417   .     A
C894   C898    1.419   .     A
C895   C379    1.389   1_556 S
C897   C900    1.416   .     A
C897   C376    1.418   1_556 S
C898   C899    1.418   .     A
C899   H909    1.077   .     S
C899   C901    1.386   .     A
C900   C902    1.384   .     A
C900   H910    1.078   .     S
C901   H903    1.084   .     S
C902   H904    1.084   .     S
C902   C374    1.389   1_556 S
C911   C680    1.338   1_465 S
C911   H565    1.086   1_565 S
H914   C564    1.086   1_565 S
N915   N916    1.294   .     D
N915   N923    1.385   .     S
N916   N926    1.385   .     S
N917   O918    1.299   .     A
N917   O919    1.301   .     A
N917   C1006   1.434   1_455 S
N920   O922    1.300   .     A
N920   O921    1.301   .     A
N923   O925    1.300   .     A
N923   O924    1.301   .     A
N926   O927    1.301   .     A
N926   O928    1.300   .     A
O929   Zn941   1.951   .     S
O929   C991    1.278   .     S
O930   Zn942   1.951   .     S
O931   Zn942   1.977   .     S
O931   C933    1.292   .     A
O932   C934    1.292   .     A
O932   Zn941   1.977   .     S
C933   C969    1.402   .     S
C934   C970    1.402   .     S
C934   O988    1.279   .     S
O935   Zn941   1.951   .     S
O935   C997    1.294   .     S
O936   Zn942   1.951   .     S
O937   Zn942   1.890   .     S
O937   C939    1.307   .     A
O938   C940    1.305   .     A
O938   Zn941   1.890   .     S
C939   C943    1.465   .     S
C940   C944    1.460   .     S
C940   O994    1.293   .     S
Zn941  N974    2.026   .     S
Zn942  N973    2.026   .     S
C943   C949    1.392   .     A
C944   C948    1.415   .     A
C944   C950    1.389   .     A
C945   C953    1.400   .     A
C945   H385    1.085   1_556 S
C946   C954    1.399   .     A
C946   H966    1.085   .     S
C946   C948    1.397   .     A
C947   N978    1.434   .     S
C947   C1001   1.415   .     S
C947   C1003   1.398   .     S
C948   N1033   1.434   .     S
C949   H964    1.077   .     S
C949   C951    1.395   .     A
C950   H963    1.078   .     S
C950   C952    1.397   .     A
C951   C955    1.416   .     A
C951   C953    1.415   .     A
C952   C954    1.417   .     A
C952   C956    1.419   .     A
C953   C437    1.389   1_556 S
C955   C958    1.416   .     A
C955   C434    1.418   1_556 S
C956   C957    1.418   .     A
C957   H967    1.077   .     S
C957   C959    1.386   .     A
C958   C960    1.384   .     A
C958   H968    1.078   .     S
C959   H961    1.084   .     S
C960   H962    1.084   .     S
C960   C432    1.389   1_556 S
C969   C564    1.338   1_565 S
C969   H623    1.086   1_565 S
H972   C622    1.086   1_565 S
N973   N974    1.294   .     D
N973   N981    1.385   .     S
N974   N984    1.385   .     S
N975   O976    1.299   .     A
N975   O977    1.301   .     A
N978   O980    1.300   .     A
N978   O979    1.301   .     A
N981   O983    1.300   .     A
N981   O982    1.301   .     A
N984   O985    1.301   .     A
N984   O986    1.300   .     A
O987   Zn999   1.951   .     S
O987   C875    1.278   1_655 S
O988   Zn1000  1.951   .     S
O989   Zn1000  1.977   .     S
O989   C991    1.292   .     A
O990   C992    1.292   .     A
O990   Zn999   1.977   .     S
C991   C1027   1.402   .     S
C992   C1028   1.402   .     S
C992   O872    1.279   1_655 S
O993   Zn999   1.951   .     S
O993   C881    1.294   1_655 S
O994   Zn1000  1.951   .     S
O995   Zn1000  1.890   .     S
O995   C997    1.307   .     A
O996   C998    1.305   .     A
O996   Zn999   1.890   .     S
C997   C1001   1.465   .     S
C998   C1002   1.460   .     S
C998   O878    1.293   1_655 S
Zn999  N1032   2.026   .     S
Zn1000 N1031   2.026   .     S
C1001  C1007   1.392   .     A
C1002  C1006   1.415   .     A
C1002  C1008   1.389   .     A
C1003  C1011   1.400   .     A
C1003  H443    1.085   1_556 S
C1004  C1012   1.399   .     A
C1004  H1024   1.085   .     S
C1004  C1006   1.397   .     A
C1005  N1036   1.434   .     S
C1005  C885    1.415   1_655 S
C1005  C887    1.398   1_655 S
C1006  N917    1.434   1_655 S
C1007  H1022   1.077   .     S
C1007  C1009   1.395   .     A
C1008  H1021   1.078   .     S
C1008  C1010   1.397   .     A
C1009  C1013   1.416   .     A
C1009  C1011   1.415   .     A
C1010  C1012   1.417   .     A
C1010  C1014   1.419   .     A
C1011  C495    1.389   1_556 S
C1013  C1016   1.416   .     A
C1013  C492    1.418   1_556 S
C1014  C1015   1.418   .     A
C1015  H1025   1.077   .     S
C1015  C1017   1.386   .     A
C1016  C1018   1.384   .     A
C1016  H1026   1.078   .     S
C1017  H1019   1.084   .     S
C1018  H1020   1.084   .     S
C1018  C490    1.389   1_556 S
H1023  C365    1.085   1_655 S
C1027  C622    1.338   1_565 S
C1027  H681    1.086   1_565 S
C1028  C737    1.338   1_655 S
H1030  C680    1.086   1_565 S
N1031  N1032   1.294   .     D
N1031  N1039   1.385   .     S
N1032  N1042   1.385   .     S
N1033  O1034   1.299   .     A
N1033  O1035   1.301   .     A
N1036  O1038   1.300   .     A
N1036  O1037   1.301   .     A
N1039  O1041   1.300   .     A
N1039  O1040   1.301   .     A
N1042  O1043   1.301   .     A
N1042  O1044   1.300   .     A
