data_str_m3_o2_o5_pcu_sym.77
_audit_creation_date              2020-01-03
_audit_creation_method            'Materials Studio'
_symmetry_space_group_name_H-M    'P1'
_symmetry_Int_Tables_number       1
_symmetry_cell_setting            triclinic
loop_
_symmetry_equiv_pos_as_xyz
  x,y,z
_cell_length_a                    30.0183
_cell_length_b                    28.3778
_cell_length_c                    26.7077
_cell_angle_alpha                 90.0560
_cell_angle_beta                  89.9529
_cell_angle_gamma                 90.0100
loop_
_atom_site_label
_atom_site_type_symbol
_atom_site_fract_x
_atom_site_fract_y
_atom_site_fract_z
_atom_site_U_iso_or_equiv
_atom_site_adp_type
_atom_site_occupancy
C1     C     0.16405   0.24999   0.16666   0.00000  Uiso   1.00
C2     C     0.26928   0.44734   0.12715   0.00000  Uiso   1.00
C3     C     0.25053   0.24999   0.07287   0.00000  Uiso   1.00
C4     C     0.25048   0.25001   0.26047   0.00000  Uiso   1.00
C5     C     0.25003   0.02670   0.16668   0.00000  Uiso   1.00
C6     C     0.25004   0.47332   0.16668   0.00000  Uiso   1.00
C7     C     0.25077   0.24999   0.02179   0.00000  Uiso   1.00
C8     C     0.25075   0.25002   0.31154   0.00000  Uiso   1.00
C9     C     0.04681   0.26387   0.12382   0.00000  Uiso   1.00
C10    C     0.45327   0.22631   0.12868   0.00000  Uiso   1.00
C11    C     0.45331   0.27310   0.20479   0.00000  Uiso   1.00
C12    C     0.33598   0.25000   0.16668   0.00000  Uiso   1.00
C13    C     0.04683   0.23552   0.20952   0.00000  Uiso   1.00
C14    C     0.09301   0.26354   0.12277   0.00000  Uiso   1.00
C15    C     0.40708   0.22677   0.12749   0.00000  Uiso   1.00
C16    C     0.40712   0.27289   0.20597   0.00000  Uiso   1.00
C17    C     0.09303   0.23612   0.21055   0.00000  Uiso   1.00
C18    C     0.11618   0.24993   0.16667   0.00000  Uiso   1.00
C19    C     0.38390   0.24994   0.16669   0.00000  Uiso   1.00
C20    C     0.02409   0.24965   0.16668   0.00000  Uiso   1.00
C21    C     0.47603   0.24966   0.16673   0.00000  Uiso   1.00
C22    C     0.11534   0.27631   0.07484   0.00000  Uiso   1.00
C23    C     0.28390   0.10223   0.14420   0.00000  Uiso   1.00
C24    C     0.38475   0.20405   0.08397   0.00000  Uiso   1.00
C25    C     0.38485   0.29550   0.24963   0.00000  Uiso   1.00
C26    C     0.11537   0.22336   0.25842   0.00000  Uiso   1.00
C27    C     0.23100   0.39781   0.20539   0.00000  Uiso   1.00
C28    C     0.21611   0.10224   0.18914   0.00000  Uiso   1.00
C29    C     0.26903   0.39775   0.12796   0.00000  Uiso   1.00
C30    C     0.28464   0.05264   0.14390   0.00000  Uiso   1.00
C31    C     0.23078   0.44741   0.20622   0.00000  Uiso   1.00
C32    C     0.21541   0.05265   0.18944   0.00000  Uiso   1.00
H33    H     0.31068   0.12157   0.12649   0.00000  Uiso   1.00
H34    H     0.21614   0.46515   0.23810   0.00000  Uiso   1.00
H35    H     0.18749   0.03494   0.20682   0.00000  Uiso   1.00
H36    H     0.28394   0.46503   0.09527   0.00000  Uiso   1.00
H37    H     0.11197   0.31176   0.00945   0.00000  Uiso   1.00
H38    H     0.38669   0.15317   0.03117   0.00000  Uiso   1.00
H39    H     0.38723   0.34574   0.30312   0.00000  Uiso   1.00
H40    H     0.11217   0.18762   0.32365   0.00000  Uiso   1.00
H41    H     0.21601   0.37853   0.23599   0.00000  Uiso   1.00
H42    H     0.18933   0.12159   0.20683   0.00000  Uiso   1.00
H43    H     0.28402   0.37841   0.09737   0.00000  Uiso   1.00
H44    H     0.02818   0.27453   0.09096   0.00000  Uiso   1.00
H45    H     0.47183   0.20848   0.09940   0.00000  Uiso   1.00
H46    H     0.47192   0.29080   0.23409   0.00000  Uiso   1.00
H47    H     0.02821   0.22476   0.24239   0.00000  Uiso   1.00
H48    H     0.31257   0.03492   0.12652   0.00000  Uiso   1.00
N49    N     0.25000   0.12623   0.16667   0.00000  Uiso   1.00
N50    N     0.25000   0.37376   0.16667   0.00000  Uiso   1.00
O51    O     0.18453   0.28974   0.16667   0.00000  Uiso   1.00
O52    O     0.09389   0.30627   0.04099   0.00000  Uiso   1.00
O53    O     0.34991   0.21992   0.06742   0.00000  Uiso   1.00
O54    O     0.40467   0.16526   0.06062   0.00000  Uiso   1.00
O55    O     0.34974   0.27995   0.26587   0.00000  Uiso   1.00
O56    O     0.40516   0.33375   0.27354   0.00000  Uiso   1.00
O57    O     0.15146   0.24031   0.26934   0.00000  Uiso   1.00
O58    O     0.09409   0.19309   0.29213   0.00000  Uiso   1.00
O59    O     0.31547   0.21026   0.16666   0.00000  Uiso   1.00
O60    O     0.31547   0.28974   0.16666   0.00000  Uiso   1.00
O61    O     0.18453   0.21026   0.16667   0.00000  Uiso   1.00
O62    O     0.25000   0.28973   0.09511   0.00000  Uiso   1.00
O63    O     0.25000   0.21027   0.23822   0.00000  Uiso   1.00
O64    O     0.25000   0.28973   0.23822   0.00000  Uiso   1.00
O65    O     0.25000   0.21027   0.09511   0.00000  Uiso   1.00
O66    O     0.15157   0.25964   0.06399   0.00000  Uiso   1.00
Zn67   Zn    0.25000   0.30307   0.16667   0.00000  Uiso   1.00
Zn68   Zn    0.25000   0.19693   0.16667   0.00000  Uiso   1.00
C69    C     0.66405   0.24999   0.16666   0.00000  Uiso   1.00
C70    C     0.76928   0.44734   0.12715   0.00000  Uiso   1.00
C71    C     0.75053   0.24999   0.07287   0.00000  Uiso   1.00
C72    C     0.75048   0.25001   0.26047   0.00000  Uiso   1.00
C73    C     0.75003   0.02670   0.16668   0.00000  Uiso   1.00
C74    C     0.75004   0.47332   0.16668   0.00000  Uiso   1.00
C75    C     0.75077   0.24999   0.02179   0.00000  Uiso   1.00
C76    C     0.75075   0.25002   0.31154   0.00000  Uiso   1.00
C77    C     0.54681   0.26387   0.12382   0.00000  Uiso   1.00
C78    C     0.95327   0.22631   0.12868   0.00000  Uiso   1.00
C79    C     0.95331   0.27310   0.20479   0.00000  Uiso   1.00
C80    C     0.83598   0.25000   0.16668   0.00000  Uiso   1.00
C81    C     0.54683   0.23552   0.20952   0.00000  Uiso   1.00
C82    C     0.59301   0.26354   0.12277   0.00000  Uiso   1.00
C83    C     0.90708   0.22677   0.12749   0.00000  Uiso   1.00
C84    C     0.90712   0.27289   0.20597   0.00000  Uiso   1.00
C85    C     0.59303   0.23612   0.21055   0.00000  Uiso   1.00
C86    C     0.61618   0.24993   0.16667   0.00000  Uiso   1.00
C87    C     0.88390   0.24994   0.16669   0.00000  Uiso   1.00
C88    C     0.52409   0.24965   0.16668   0.00000  Uiso   1.00
C89    C     0.97603   0.24966   0.16673   0.00000  Uiso   1.00
C90    C     0.61534   0.27631   0.07484   0.00000  Uiso   1.00
C91    C     0.78390   0.10223   0.14420   0.00000  Uiso   1.00
C92    C     0.88475   0.20405   0.08397   0.00000  Uiso   1.00
C93    C     0.88485   0.29550   0.24963   0.00000  Uiso   1.00
C94    C     0.61537   0.22336   0.25842   0.00000  Uiso   1.00
C95    C     0.73100   0.39781   0.20539   0.00000  Uiso   1.00
C96    C     0.71611   0.10224   0.18914   0.00000  Uiso   1.00
C97    C     0.76903   0.39775   0.12796   0.00000  Uiso   1.00
C98    C     0.78464   0.05264   0.14390   0.00000  Uiso   1.00
C99    C     0.73078   0.44741   0.20622   0.00000  Uiso   1.00
C100   C     0.71541   0.05265   0.18944   0.00000  Uiso   1.00
H101   H     0.81068   0.12157   0.12649   0.00000  Uiso   1.00
H102   H     0.71614   0.46515   0.23810   0.00000  Uiso   1.00
H103   H     0.68749   0.03494   0.20682   0.00000  Uiso   1.00
H104   H     0.78394   0.46503   0.09527   0.00000  Uiso   1.00
H105   H     0.61197   0.31176   0.00945   0.00000  Uiso   1.00
H106   H     0.88669   0.15317   0.03117   0.00000  Uiso   1.00
H107   H     0.88723   0.34574   0.30312   0.00000  Uiso   1.00
H108   H     0.61217   0.18762   0.32365   0.00000  Uiso   1.00
H109   H     0.71601   0.37853   0.23599   0.00000  Uiso   1.00
H110   H     0.68933   0.12159   0.20683   0.00000  Uiso   1.00
H111   H     0.78402   0.37841   0.09737   0.00000  Uiso   1.00
H112   H     0.52818   0.27453   0.09096   0.00000  Uiso   1.00
H113   H     0.97183   0.20848   0.09940   0.00000  Uiso   1.00
H114   H     0.97192   0.29080   0.23409   0.00000  Uiso   1.00
H115   H     0.52821   0.22476   0.24239   0.00000  Uiso   1.00
H116   H     0.81257   0.03492   0.12652   0.00000  Uiso   1.00
N117   N     0.75000   0.12623   0.16667   0.00000  Uiso   1.00
N118   N     0.75000   0.37376   0.16667   0.00000  Uiso   1.00
O119   O     0.68453   0.28974   0.16667   0.00000  Uiso   1.00
O120   O     0.59389   0.30627   0.04099   0.00000  Uiso   1.00
O121   O     0.84991   0.21992   0.06742   0.00000  Uiso   1.00
O122   O     0.90467   0.16526   0.06062   0.00000  Uiso   1.00
O123   O     0.84974   0.27995   0.26587   0.00000  Uiso   1.00
O124   O     0.90516   0.33375   0.27354   0.00000  Uiso   1.00
O125   O     0.65146   0.24031   0.26934   0.00000  Uiso   1.00
O126   O     0.59409   0.19309   0.29213   0.00000  Uiso   1.00
O127   O     0.81547   0.21026   0.16666   0.00000  Uiso   1.00
O128   O     0.81547   0.28974   0.16666   0.00000  Uiso   1.00
O129   O     0.68453   0.21026   0.16667   0.00000  Uiso   1.00
O130   O     0.75000   0.28973   0.09511   0.00000  Uiso   1.00
O131   O     0.75000   0.21027   0.23822   0.00000  Uiso   1.00
O132   O     0.75000   0.28973   0.23822   0.00000  Uiso   1.00
O133   O     0.75000   0.21027   0.09511   0.00000  Uiso   1.00
O134   O     0.65157   0.25964   0.06399   0.00000  Uiso   1.00
Zn135  Zn    0.75000   0.30307   0.16667   0.00000  Uiso   1.00
Zn136  Zn    0.75000   0.19693   0.16667   0.00000  Uiso   1.00
C137   C     0.16405   0.74999   0.16666   0.00000  Uiso   1.00
C138   C     0.26928   0.94734   0.12715   0.00000  Uiso   1.00
C139   C     0.25053   0.74999   0.07287   0.00000  Uiso   1.00
C140   C     0.25048   0.75001   0.26047   0.00000  Uiso   1.00
C141   C     0.25003   0.52670   0.16668   0.00000  Uiso   1.00
C142   C     0.25004   0.97332   0.16668   0.00000  Uiso   1.00
C143   C     0.25077   0.74999   0.02179   0.00000  Uiso   1.00
C144   C     0.25075   0.75002   0.31154   0.00000  Uiso   1.00
C145   C     0.04681   0.76387   0.12382   0.00000  Uiso   1.00
C146   C     0.45327   0.72631   0.12868   0.00000  Uiso   1.00
C147   C     0.45331   0.77310   0.20479   0.00000  Uiso   1.00
C148   C     0.33598   0.75000   0.16668   0.00000  Uiso   1.00
C149   C     0.04683   0.73552   0.20952   0.00000  Uiso   1.00
C150   C     0.09301   0.76354   0.12277   0.00000  Uiso   1.00
C151   C     0.40708   0.72677   0.12749   0.00000  Uiso   1.00
C152   C     0.40712   0.77289   0.20597   0.00000  Uiso   1.00
C153   C     0.09303   0.73612   0.21055   0.00000  Uiso   1.00
C154   C     0.11618   0.74993   0.16667   0.00000  Uiso   1.00
C155   C     0.38390   0.74994   0.16669   0.00000  Uiso   1.00
C156   C     0.02409   0.74965   0.16668   0.00000  Uiso   1.00
C157   C     0.47603   0.74966   0.16673   0.00000  Uiso   1.00
C158   C     0.11534   0.77631   0.07484   0.00000  Uiso   1.00
C159   C     0.28390   0.60223   0.14420   0.00000  Uiso   1.00
C160   C     0.38475   0.70405   0.08397   0.00000  Uiso   1.00
C161   C     0.38485   0.79550   0.24963   0.00000  Uiso   1.00
C162   C     0.11537   0.72336   0.25842   0.00000  Uiso   1.00
C163   C     0.23100   0.89781   0.20539   0.00000  Uiso   1.00
C164   C     0.21611   0.60224   0.18914   0.00000  Uiso   1.00
C165   C     0.26903   0.89775   0.12796   0.00000  Uiso   1.00
C166   C     0.28464   0.55264   0.14390   0.00000  Uiso   1.00
C167   C     0.23078   0.94741   0.20622   0.00000  Uiso   1.00
C168   C     0.21541   0.55265   0.18944   0.00000  Uiso   1.00
H169   H     0.31068   0.62157   0.12649   0.00000  Uiso   1.00
H170   H     0.21614   0.96515   0.23810   0.00000  Uiso   1.00
H171   H     0.18749   0.53494   0.20682   0.00000  Uiso   1.00
H172   H     0.28394   0.96503   0.09527   0.00000  Uiso   1.00
H173   H     0.11197   0.81176   0.00945   0.00000  Uiso   1.00
H174   H     0.38669   0.65317   0.03117   0.00000  Uiso   1.00
H175   H     0.38723   0.84574   0.30312   0.00000  Uiso   1.00
H176   H     0.11217   0.68762   0.32365   0.00000  Uiso   1.00
H177   H     0.21601   0.87853   0.23599   0.00000  Uiso   1.00
H178   H     0.18933   0.62159   0.20683   0.00000  Uiso   1.00
H179   H     0.28402   0.87841   0.09737   0.00000  Uiso   1.00
H180   H     0.02818   0.77453   0.09096   0.00000  Uiso   1.00
H181   H     0.47183   0.70848   0.09940   0.00000  Uiso   1.00
H182   H     0.47192   0.79080   0.23409   0.00000  Uiso   1.00
H183   H     0.02821   0.72476   0.24239   0.00000  Uiso   1.00
H184   H     0.31257   0.53492   0.12652   0.00000  Uiso   1.00
N185   N     0.25000   0.62623   0.16667   0.00000  Uiso   1.00
N186   N     0.25000   0.87376   0.16667   0.00000  Uiso   1.00
O187   O     0.18453   0.78974   0.16667   0.00000  Uiso   1.00
O188   O     0.09389   0.80627   0.04099   0.00000  Uiso   1.00
O189   O     0.34991   0.71992   0.06742   0.00000  Uiso   1.00
O190   O     0.40467   0.66526   0.06062   0.00000  Uiso   1.00
O191   O     0.34974   0.77995   0.26587   0.00000  Uiso   1.00
O192   O     0.40516   0.83375   0.27354   0.00000  Uiso   1.00
O193   O     0.15146   0.74031   0.26934   0.00000  Uiso   1.00
O194   O     0.09409   0.69309   0.29213   0.00000  Uiso   1.00
O195   O     0.31547   0.71026   0.16666   0.00000  Uiso   1.00
O196   O     0.31547   0.78974   0.16666   0.00000  Uiso   1.00
O197   O     0.18453   0.71026   0.16667   0.00000  Uiso   1.00
O198   O     0.25000   0.78973   0.09511   0.00000  Uiso   1.00
O199   O     0.25000   0.71027   0.23822   0.00000  Uiso   1.00
O200   O     0.25000   0.78973   0.23822   0.00000  Uiso   1.00
O201   O     0.25000   0.71027   0.09511   0.00000  Uiso   1.00
O202   O     0.15157   0.75964   0.06399   0.00000  Uiso   1.00
Zn203  Zn    0.25000   0.80307   0.16667   0.00000  Uiso   1.00
Zn204  Zn    0.25000   0.69693   0.16667   0.00000  Uiso   1.00
C205   C     0.66405   0.74999   0.16666   0.00000  Uiso   1.00
C206   C     0.76928   0.94734   0.12715   0.00000  Uiso   1.00
C207   C     0.75053   0.74999   0.07287   0.00000  Uiso   1.00
C208   C     0.75048   0.75001   0.26047   0.00000  Uiso   1.00
C209   C     0.75003   0.52670   0.16668   0.00000  Uiso   1.00
C210   C     0.75004   0.97332   0.16668   0.00000  Uiso   1.00
C211   C     0.75077   0.74999   0.02179   0.00000  Uiso   1.00
C212   C     0.75075   0.75002   0.31154   0.00000  Uiso   1.00
C213   C     0.54681   0.76387   0.12382   0.00000  Uiso   1.00
C214   C     0.95327   0.72631   0.12868   0.00000  Uiso   1.00
C215   C     0.95331   0.77310   0.20479   0.00000  Uiso   1.00
C216   C     0.83598   0.75000   0.16668   0.00000  Uiso   1.00
C217   C     0.54683   0.73552   0.20952   0.00000  Uiso   1.00
C218   C     0.59301   0.76354   0.12277   0.00000  Uiso   1.00
C219   C     0.90708   0.72677   0.12749   0.00000  Uiso   1.00
C220   C     0.90712   0.77289   0.20597   0.00000  Uiso   1.00
C221   C     0.59303   0.73612   0.21055   0.00000  Uiso   1.00
C222   C     0.61618   0.74993   0.16667   0.00000  Uiso   1.00
C223   C     0.88390   0.74994   0.16669   0.00000  Uiso   1.00
C224   C     0.52409   0.74965   0.16668   0.00000  Uiso   1.00
C225   C     0.97603   0.74966   0.16673   0.00000  Uiso   1.00
C226   C     0.61534   0.77631   0.07484   0.00000  Uiso   1.00
C227   C     0.78390   0.60223   0.14420   0.00000  Uiso   1.00
C228   C     0.88475   0.70405   0.08397   0.00000  Uiso   1.00
C229   C     0.88485   0.79550   0.24963   0.00000  Uiso   1.00
C230   C     0.61537   0.72336   0.25842   0.00000  Uiso   1.00
C231   C     0.73100   0.89781   0.20539   0.00000  Uiso   1.00
C232   C     0.71611   0.60224   0.18914   0.00000  Uiso   1.00
C233   C     0.76903   0.89775   0.12796   0.00000  Uiso   1.00
C234   C     0.78464   0.55264   0.14390   0.00000  Uiso   1.00
C235   C     0.73078   0.94741   0.20622   0.00000  Uiso   1.00
C236   C     0.71541   0.55265   0.18944   0.00000  Uiso   1.00
H237   H     0.81068   0.62157   0.12649   0.00000  Uiso   1.00
H238   H     0.71614   0.96515   0.23810   0.00000  Uiso   1.00
H239   H     0.68749   0.53494   0.20682   0.00000  Uiso   1.00
H240   H     0.78394   0.96503   0.09527   0.00000  Uiso   1.00
H241   H     0.61197   0.81176   0.00945   0.00000  Uiso   1.00
H242   H     0.88669   0.65317   0.03117   0.00000  Uiso   1.00
H243   H     0.88723   0.84574   0.30312   0.00000  Uiso   1.00
H244   H     0.61217   0.68762   0.32365   0.00000  Uiso   1.00
H245   H     0.71601   0.87853   0.23599   0.00000  Uiso   1.00
H246   H     0.68933   0.62159   0.20683   0.00000  Uiso   1.00
H247   H     0.78402   0.87841   0.09737   0.00000  Uiso   1.00
H248   H     0.52818   0.77453   0.09096   0.00000  Uiso   1.00
H249   H     0.97183   0.70848   0.09940   0.00000  Uiso   1.00
H250   H     0.97192   0.79080   0.23409   0.00000  Uiso   1.00
H251   H     0.52821   0.72476   0.24239   0.00000  Uiso   1.00
H252   H     0.81257   0.53492   0.12652   0.00000  Uiso   1.00
N253   N     0.75000   0.62623   0.16667   0.00000  Uiso   1.00
N254   N     0.75000   0.87376   0.16667   0.00000  Uiso   1.00
O255   O     0.68453   0.78974   0.16667   0.00000  Uiso   1.00
O256   O     0.59389   0.80627   0.04099   0.00000  Uiso   1.00
O257   O     0.84991   0.71992   0.06742   0.00000  Uiso   1.00
O258   O     0.90467   0.66526   0.06062   0.00000  Uiso   1.00
O259   O     0.84974   0.77995   0.26587   0.00000  Uiso   1.00
O260   O     0.90516   0.83375   0.27354   0.00000  Uiso   1.00
O261   O     0.65146   0.74031   0.26934   0.00000  Uiso   1.00
O262   O     0.59409   0.69309   0.29213   0.00000  Uiso   1.00
O263   O     0.81547   0.71026   0.16666   0.00000  Uiso   1.00
O264   O     0.81547   0.78974   0.16666   0.00000  Uiso   1.00
O265   O     0.68453   0.71026   0.16667   0.00000  Uiso   1.00
O266   O     0.75000   0.78973   0.09511   0.00000  Uiso   1.00
O267   O     0.75000   0.71027   0.23822   0.00000  Uiso   1.00
O268   O     0.75000   0.78973   0.23822   0.00000  Uiso   1.00
O269   O     0.75000   0.71027   0.09511   0.00000  Uiso   1.00
O270   O     0.65157   0.75964   0.06399   0.00000  Uiso   1.00
Zn271  Zn    0.75000   0.80307   0.16667   0.00000  Uiso   1.00
Zn272  Zn    0.75000   0.69693   0.16667   0.00000  Uiso   1.00
C273   C     0.16405   0.24999   0.49999   0.00000  Uiso   1.00
C274   C     0.26928   0.44734   0.46048   0.00000  Uiso   1.00
C275   C     0.25053   0.24999   0.40620   0.00000  Uiso   1.00
C276   C     0.25048   0.25001   0.59380   0.00000  Uiso   1.00
C277   C     0.25003   0.02670   0.50001   0.00000  Uiso   1.00
C278   C     0.25004   0.47332   0.50002   0.00000  Uiso   1.00
C279   C     0.25077   0.24999   0.35512   0.00000  Uiso   1.00
C280   C     0.25075   0.25002   0.64488   0.00000  Uiso   1.00
C281   C     0.04681   0.26387   0.45716   0.00000  Uiso   1.00
C282   C     0.45327   0.22631   0.46201   0.00000  Uiso   1.00
C283   C     0.45331   0.27310   0.53812   0.00000  Uiso   1.00
C284   C     0.33598   0.25000   0.50001   0.00000  Uiso   1.00
C285   C     0.04683   0.23552   0.54285   0.00000  Uiso   1.00
C286   C     0.09301   0.26354   0.45610   0.00000  Uiso   1.00
C287   C     0.40708   0.22677   0.46082   0.00000  Uiso   1.00
C288   C     0.40712   0.27289   0.53930   0.00000  Uiso   1.00
C289   C     0.09303   0.23612   0.54389   0.00000  Uiso   1.00
C290   C     0.11618   0.24993   0.50000   0.00000  Uiso   1.00
C291   C     0.38390   0.24994   0.50002   0.00000  Uiso   1.00
C292   C     0.02409   0.24965   0.50001   0.00000  Uiso   1.00
C293   C     0.47603   0.24966   0.50006   0.00000  Uiso   1.00
C294   C     0.11534   0.27631   0.40818   0.00000  Uiso   1.00
C295   C     0.28390   0.10223   0.47753   0.00000  Uiso   1.00
C296   C     0.38475   0.20405   0.41730   0.00000  Uiso   1.00
C297   C     0.38485   0.29550   0.58297   0.00000  Uiso   1.00
C298   C     0.11537   0.22336   0.59175   0.00000  Uiso   1.00
C299   C     0.23100   0.39781   0.53872   0.00000  Uiso   1.00
C300   C     0.21611   0.10224   0.52247   0.00000  Uiso   1.00
C301   C     0.26903   0.39775   0.46130   0.00000  Uiso   1.00
C302   C     0.28464   0.05264   0.47724   0.00000  Uiso   1.00
C303   C     0.23078   0.44741   0.53955   0.00000  Uiso   1.00
C304   C     0.21541   0.05265   0.52277   0.00000  Uiso   1.00
H305   H     0.31068   0.12157   0.45983   0.00000  Uiso   1.00
H306   H     0.21614   0.46515   0.57144   0.00000  Uiso   1.00
H307   H     0.18749   0.03494   0.54016   0.00000  Uiso   1.00
H308   H     0.28394   0.46503   0.42861   0.00000  Uiso   1.00
H309   H     0.11197   0.31176   0.34278   0.00000  Uiso   1.00
H310   H     0.38669   0.15317   0.36450   0.00000  Uiso   1.00
H311   H     0.38723   0.34574   0.63645   0.00000  Uiso   1.00
H312   H     0.11217   0.18762   0.65699   0.00000  Uiso   1.00
H313   H     0.21601   0.37853   0.56932   0.00000  Uiso   1.00
H314   H     0.18933   0.12159   0.54017   0.00000  Uiso   1.00
H315   H     0.28402   0.37841   0.43070   0.00000  Uiso   1.00
H316   H     0.02818   0.27453   0.42429   0.00000  Uiso   1.00
H317   H     0.47183   0.20848   0.43273   0.00000  Uiso   1.00
H318   H     0.47192   0.29080   0.56742   0.00000  Uiso   1.00
H319   H     0.02821   0.22476   0.57573   0.00000  Uiso   1.00
H320   H     0.31257   0.03492   0.45985   0.00000  Uiso   1.00
N321   N     0.25000   0.12623   0.50000   0.00000  Uiso   1.00
N322   N     0.25000   0.37376   0.50000   0.00000  Uiso   1.00
O323   O     0.18453   0.28974   0.50000   0.00000  Uiso   1.00
O324   O     0.09389   0.30627   0.37433   0.00000  Uiso   1.00
O325   O     0.34991   0.21992   0.40076   0.00000  Uiso   1.00
O326   O     0.40467   0.16526   0.39396   0.00000  Uiso   1.00
O327   O     0.34974   0.27995   0.59920   0.00000  Uiso   1.00
O328   O     0.40516   0.33375   0.60687   0.00000  Uiso   1.00
O329   O     0.15146   0.24031   0.60268   0.00000  Uiso   1.00
O330   O     0.09409   0.19309   0.62547   0.00000  Uiso   1.00
O331   O     0.31547   0.21026   0.50000   0.00000  Uiso   1.00
O332   O     0.31547   0.28974   0.50000   0.00000  Uiso   1.00
O333   O     0.18453   0.21026   0.50000   0.00000  Uiso   1.00
O334   O     0.25000   0.28973   0.42845   0.00000  Uiso   1.00
O335   O     0.25000   0.21027   0.57155   0.00000  Uiso   1.00
O336   O     0.25000   0.28973   0.57155   0.00000  Uiso   1.00
O337   O     0.25000   0.21027   0.42845   0.00000  Uiso   1.00
O338   O     0.15157   0.25964   0.39733   0.00000  Uiso   1.00
Zn339  Zn    0.25000   0.30307   0.50000   0.00000  Uiso   1.00
Zn340  Zn    0.25000   0.19693   0.50000   0.00000  Uiso   1.00
C341   C     0.66405   0.24999   0.49999   0.00000  Uiso   1.00
C342   C     0.76928   0.44734   0.46048   0.00000  Uiso   1.00
C343   C     0.75053   0.24999   0.40620   0.00000  Uiso   1.00
C344   C     0.75048   0.25001   0.59380   0.00000  Uiso   1.00
C345   C     0.75003   0.02670   0.50001   0.00000  Uiso   1.00
C346   C     0.75004   0.47332   0.50002   0.00000  Uiso   1.00
C347   C     0.75077   0.24999   0.35512   0.00000  Uiso   1.00
C348   C     0.75075   0.25002   0.64488   0.00000  Uiso   1.00
C349   C     0.54681   0.26387   0.45716   0.00000  Uiso   1.00
C350   C     0.95327   0.22631   0.46201   0.00000  Uiso   1.00
C351   C     0.95331   0.27310   0.53812   0.00000  Uiso   1.00
C352   C     0.83598   0.25000   0.50001   0.00000  Uiso   1.00
C353   C     0.54683   0.23552   0.54285   0.00000  Uiso   1.00
C354   C     0.59301   0.26354   0.45610   0.00000  Uiso   1.00
C355   C     0.90708   0.22677   0.46082   0.00000  Uiso   1.00
C356   C     0.90712   0.27289   0.53930   0.00000  Uiso   1.00
C357   C     0.59303   0.23612   0.54389   0.00000  Uiso   1.00
C358   C     0.61618   0.24993   0.50000   0.00000  Uiso   1.00
C359   C     0.88390   0.24994   0.50002   0.00000  Uiso   1.00
C360   C     0.52409   0.24965   0.50001   0.00000  Uiso   1.00
C361   C     0.97603   0.24966   0.50006   0.00000  Uiso   1.00
C362   C     0.61534   0.27631   0.40818   0.00000  Uiso   1.00
C363   C     0.78390   0.10223   0.47753   0.00000  Uiso   1.00
C364   C     0.88475   0.20405   0.41730   0.00000  Uiso   1.00
C365   C     0.88485   0.29550   0.58297   0.00000  Uiso   1.00
C366   C     0.61537   0.22336   0.59175   0.00000  Uiso   1.00
C367   C     0.73100   0.39781   0.53872   0.00000  Uiso   1.00
C368   C     0.71611   0.10224   0.52247   0.00000  Uiso   1.00
C369   C     0.76903   0.39775   0.46130   0.00000  Uiso   1.00
C370   C     0.78464   0.05264   0.47724   0.00000  Uiso   1.00
C371   C     0.73078   0.44741   0.53955   0.00000  Uiso   1.00
C372   C     0.71541   0.05265   0.52277   0.00000  Uiso   1.00
H373   H     0.81068   0.12157   0.45983   0.00000  Uiso   1.00
H374   H     0.71614   0.46515   0.57144   0.00000  Uiso   1.00
H375   H     0.68749   0.03494   0.54016   0.00000  Uiso   1.00
H376   H     0.78394   0.46503   0.42861   0.00000  Uiso   1.00
H377   H     0.61197   0.31176   0.34278   0.00000  Uiso   1.00
H378   H     0.88669   0.15317   0.36450   0.00000  Uiso   1.00
H379   H     0.88723   0.34574   0.63645   0.00000  Uiso   1.00
H380   H     0.61217   0.18762   0.65699   0.00000  Uiso   1.00
H381   H     0.71601   0.37853   0.56932   0.00000  Uiso   1.00
H382   H     0.68933   0.12159   0.54017   0.00000  Uiso   1.00
H383   H     0.78402   0.37841   0.43070   0.00000  Uiso   1.00
H384   H     0.52818   0.27453   0.42429   0.00000  Uiso   1.00
H385   H     0.97183   0.20848   0.43273   0.00000  Uiso   1.00
H386   H     0.97192   0.29080   0.56742   0.00000  Uiso   1.00
H387   H     0.52821   0.22476   0.57573   0.00000  Uiso   1.00
H388   H     0.81257   0.03492   0.45985   0.00000  Uiso   1.00
N389   N     0.75000   0.12623   0.50000   0.00000  Uiso   1.00
N390   N     0.75000   0.37376   0.50000   0.00000  Uiso   1.00
O391   O     0.68453   0.28974   0.50000   0.00000  Uiso   1.00
O392   O     0.59389   0.30627   0.37433   0.00000  Uiso   1.00
O393   O     0.84991   0.21992   0.40076   0.00000  Uiso   1.00
O394   O     0.90467   0.16526   0.39396   0.00000  Uiso   1.00
O395   O     0.84974   0.27995   0.59920   0.00000  Uiso   1.00
O396   O     0.90516   0.33375   0.60687   0.00000  Uiso   1.00
O397   O     0.65146   0.24031   0.60268   0.00000  Uiso   1.00
O398   O     0.59409   0.19309   0.62547   0.00000  Uiso   1.00
O399   O     0.81547   0.21026   0.50000   0.00000  Uiso   1.00
O400   O     0.81547   0.28974   0.50000   0.00000  Uiso   1.00
O401   O     0.68453   0.21026   0.50000   0.00000  Uiso   1.00
O402   O     0.75000   0.28973   0.42845   0.00000  Uiso   1.00
O403   O     0.75000   0.21027   0.57155   0.00000  Uiso   1.00
O404   O     0.75000   0.28973   0.57155   0.00000  Uiso   1.00
O405   O     0.75000   0.21027   0.42845   0.00000  Uiso   1.00
O406   O     0.65157   0.25964   0.39733   0.00000  Uiso   1.00
Zn407  Zn    0.75000   0.30307   0.50000   0.00000  Uiso   1.00
Zn408  Zn    0.75000   0.19693   0.50000   0.00000  Uiso   1.00
C409   C     0.16405   0.74999   0.49999   0.00000  Uiso   1.00
C410   C     0.26928   0.94734   0.46048   0.00000  Uiso   1.00
C411   C     0.25053   0.74999   0.40620   0.00000  Uiso   1.00
C412   C     0.25048   0.75001   0.59380   0.00000  Uiso   1.00
C413   C     0.25003   0.52670   0.50001   0.00000  Uiso   1.00
C414   C     0.25004   0.97332   0.50002   0.00000  Uiso   1.00
C415   C     0.25077   0.74999   0.35512   0.00000  Uiso   1.00
C416   C     0.25075   0.75002   0.64488   0.00000  Uiso   1.00
C417   C     0.04681   0.76387   0.45716   0.00000  Uiso   1.00
C418   C     0.45327   0.72631   0.46201   0.00000  Uiso   1.00
C419   C     0.45331   0.77310   0.53812   0.00000  Uiso   1.00
C420   C     0.33598   0.75000   0.50001   0.00000  Uiso   1.00
C421   C     0.04683   0.73552   0.54285   0.00000  Uiso   1.00
C422   C     0.09301   0.76354   0.45610   0.00000  Uiso   1.00
C423   C     0.40708   0.72677   0.46082   0.00000  Uiso   1.00
C424   C     0.40712   0.77289   0.53930   0.00000  Uiso   1.00
C425   C     0.09303   0.73612   0.54389   0.00000  Uiso   1.00
C426   C     0.11618   0.74993   0.50000   0.00000  Uiso   1.00
C427   C     0.38390   0.74994   0.50002   0.00000  Uiso   1.00
C428   C     0.02409   0.74965   0.50001   0.00000  Uiso   1.00
C429   C     0.47603   0.74966   0.50006   0.00000  Uiso   1.00
C430   C     0.11534   0.77631   0.40818   0.00000  Uiso   1.00
C431   C     0.28390   0.60223   0.47753   0.00000  Uiso   1.00
C432   C     0.38475   0.70405   0.41730   0.00000  Uiso   1.00
C433   C     0.38485   0.79550   0.58297   0.00000  Uiso   1.00
C434   C     0.11537   0.72336   0.59175   0.00000  Uiso   1.00
C435   C     0.23100   0.89781   0.53872   0.00000  Uiso   1.00
C436   C     0.21611   0.60224   0.52247   0.00000  Uiso   1.00
C437   C     0.26903   0.89775   0.46130   0.00000  Uiso   1.00
C438   C     0.28464   0.55264   0.47724   0.00000  Uiso   1.00
C439   C     0.23078   0.94741   0.53955   0.00000  Uiso   1.00
C440   C     0.21541   0.55265   0.52277   0.00000  Uiso   1.00
H441   H     0.31068   0.62157   0.45983   0.00000  Uiso   1.00
H442   H     0.21614   0.96515   0.57144   0.00000  Uiso   1.00
H443   H     0.18749   0.53494   0.54016   0.00000  Uiso   1.00
H444   H     0.28394   0.96503   0.42861   0.00000  Uiso   1.00
H445   H     0.11197   0.81176   0.34278   0.00000  Uiso   1.00
H446   H     0.38669   0.65317   0.36450   0.00000  Uiso   1.00
H447   H     0.38723   0.84574   0.63645   0.00000  Uiso   1.00
H448   H     0.11217   0.68762   0.65699   0.00000  Uiso   1.00
H449   H     0.21601   0.87853   0.56932   0.00000  Uiso   1.00
H450   H     0.18933   0.62159   0.54017   0.00000  Uiso   1.00
H451   H     0.28402   0.87841   0.43070   0.00000  Uiso   1.00
H452   H     0.02818   0.77453   0.42429   0.00000  Uiso   1.00
H453   H     0.47183   0.70848   0.43273   0.00000  Uiso   1.00
H454   H     0.47192   0.79080   0.56742   0.00000  Uiso   1.00
H455   H     0.02821   0.72476   0.57573   0.00000  Uiso   1.00
H456   H     0.31257   0.53492   0.45985   0.00000  Uiso   1.00
N457   N     0.25000   0.62623   0.50000   0.00000  Uiso   1.00
N458   N     0.25000   0.87376   0.50000   0.00000  Uiso   1.00
O459   O     0.18453   0.78974   0.50000   0.00000  Uiso   1.00
O460   O     0.09389   0.80627   0.37433   0.00000  Uiso   1.00
O461   O     0.34991   0.71992   0.40076   0.00000  Uiso   1.00
O462   O     0.40467   0.66526   0.39396   0.00000  Uiso   1.00
O463   O     0.34974   0.77995   0.59920   0.00000  Uiso   1.00
O464   O     0.40516   0.83375   0.60687   0.00000  Uiso   1.00
O465   O     0.15146   0.74031   0.60268   0.00000  Uiso   1.00
O466   O     0.09409   0.69309   0.62547   0.00000  Uiso   1.00
O467   O     0.31547   0.71026   0.50000   0.00000  Uiso   1.00
O468   O     0.31547   0.78974   0.50000   0.00000  Uiso   1.00
O469   O     0.18453   0.71026   0.50000   0.00000  Uiso   1.00
O470   O     0.25000   0.78973   0.42845   0.00000  Uiso   1.00
O471   O     0.25000   0.71027   0.57155   0.00000  Uiso   1.00
O472   O     0.25000   0.78973   0.57155   0.00000  Uiso   1.00
O473   O     0.25000   0.71027   0.42845   0.00000  Uiso   1.00
O474   O     0.15157   0.75964   0.39733   0.00000  Uiso   1.00
Zn475  Zn    0.25000   0.80307   0.50000   0.00000  Uiso   1.00
Zn476  Zn    0.25000   0.69693   0.50000   0.00000  Uiso   1.00
C477   C     0.66405   0.74999   0.49999   0.00000  Uiso   1.00
C478   C     0.76928   0.94734   0.46048   0.00000  Uiso   1.00
C479   C     0.75053   0.74999   0.40620   0.00000  Uiso   1.00
C480   C     0.75048   0.75001   0.59380   0.00000  Uiso   1.00
C481   C     0.75003   0.52670   0.50001   0.00000  Uiso   1.00
C482   C     0.75004   0.97332   0.50002   0.00000  Uiso   1.00
C483   C     0.75077   0.74999   0.35512   0.00000  Uiso   1.00
C484   C     0.75075   0.75002   0.64488   0.00000  Uiso   1.00
C485   C     0.54681   0.76387   0.45716   0.00000  Uiso   1.00
C486   C     0.95327   0.72631   0.46201   0.00000  Uiso   1.00
C487   C     0.95331   0.77310   0.53812   0.00000  Uiso   1.00
C488   C     0.83598   0.75000   0.50001   0.00000  Uiso   1.00
C489   C     0.54683   0.73552   0.54285   0.00000  Uiso   1.00
C490   C     0.59301   0.76354   0.45610   0.00000  Uiso   1.00
C491   C     0.90708   0.72677   0.46082   0.00000  Uiso   1.00
C492   C     0.90712   0.77289   0.53930   0.00000  Uiso   1.00
C493   C     0.59303   0.73612   0.54389   0.00000  Uiso   1.00
C494   C     0.61618   0.74993   0.50000   0.00000  Uiso   1.00
C495   C     0.88390   0.74994   0.50002   0.00000  Uiso   1.00
C496   C     0.52409   0.74965   0.50001   0.00000  Uiso   1.00
C497   C     0.97603   0.74966   0.50006   0.00000  Uiso   1.00
C498   C     0.61534   0.77631   0.40818   0.00000  Uiso   1.00
C499   C     0.78390   0.60223   0.47753   0.00000  Uiso   1.00
C500   C     0.88475   0.70405   0.41730   0.00000  Uiso   1.00
C501   C     0.88485   0.79550   0.58297   0.00000  Uiso   1.00
C502   C     0.61537   0.72336   0.59175   0.00000  Uiso   1.00
C503   C     0.73100   0.89781   0.53872   0.00000  Uiso   1.00
C504   C     0.71611   0.60224   0.52247   0.00000  Uiso   1.00
C505   C     0.76903   0.89775   0.46130   0.00000  Uiso   1.00
C506   C     0.78464   0.55264   0.47724   0.00000  Uiso   1.00
C507   C     0.73078   0.94741   0.53955   0.00000  Uiso   1.00
C508   C     0.71541   0.55265   0.52277   0.00000  Uiso   1.00
H509   H     0.81068   0.62157   0.45983   0.00000  Uiso   1.00
H510   H     0.71614   0.96515   0.57144   0.00000  Uiso   1.00
H511   H     0.68749   0.53494   0.54016   0.00000  Uiso   1.00
H512   H     0.78394   0.96503   0.42861   0.00000  Uiso   1.00
H513   H     0.61197   0.81176   0.34278   0.00000  Uiso   1.00
H514   H     0.88669   0.65317   0.36450   0.00000  Uiso   1.00
H515   H     0.88723   0.84574   0.63645   0.00000  Uiso   1.00
H516   H     0.61217   0.68762   0.65699   0.00000  Uiso   1.00
H517   H     0.71601   0.87853   0.56932   0.00000  Uiso   1.00
H518   H     0.68933   0.62159   0.54017   0.00000  Uiso   1.00
H519   H     0.78402   0.87841   0.43070   0.00000  Uiso   1.00
H520   H     0.52818   0.77453   0.42429   0.00000  Uiso   1.00
H521   H     0.97183   0.70848   0.43273   0.00000  Uiso   1.00
H522   H     0.97192   0.79080   0.56742   0.00000  Uiso   1.00
H523   H     0.52821   0.72476   0.57573   0.00000  Uiso   1.00
H524   H     0.81257   0.53492   0.45985   0.00000  Uiso   1.00
N525   N     0.75000   0.62623   0.50000   0.00000  Uiso   1.00
N526   N     0.75000   0.87376   0.50000   0.00000  Uiso   1.00
O527   O     0.68453   0.78974   0.50000   0.00000  Uiso   1.00
O528   O     0.59389   0.80627   0.37433   0.00000  Uiso   1.00
O529   O     0.84991   0.71992   0.40076   0.00000  Uiso   1.00
O530   O     0.90467   0.66526   0.39396   0.00000  Uiso   1.00
O531   O     0.84974   0.77995   0.59920   0.00000  Uiso   1.00
O532   O     0.90516   0.83375   0.60687   0.00000  Uiso   1.00
O533   O     0.65146   0.74031   0.60268   0.00000  Uiso   1.00
O534   O     0.59409   0.69309   0.62547   0.00000  Uiso   1.00
O535   O     0.81547   0.71026   0.50000   0.00000  Uiso   1.00
O536   O     0.81547   0.78974   0.50000   0.00000  Uiso   1.00
O537   O     0.68453   0.71026   0.50000   0.00000  Uiso   1.00
O538   O     0.75000   0.78973   0.42845   0.00000  Uiso   1.00
O539   O     0.75000   0.71027   0.57155   0.00000  Uiso   1.00
O540   O     0.75000   0.78973   0.57155   0.00000  Uiso   1.00
O541   O     0.75000   0.71027   0.42845   0.00000  Uiso   1.00
O542   O     0.65157   0.75964   0.39733   0.00000  Uiso   1.00
Zn543  Zn    0.75000   0.80307   0.50000   0.00000  Uiso   1.00
Zn544  Zn    0.75000   0.69693   0.50000   0.00000  Uiso   1.00
C545   C     0.16405   0.24999   0.83332   0.00000  Uiso   1.00
C546   C     0.26928   0.44734   0.79381   0.00000  Uiso   1.00
C547   C     0.25053   0.24999   0.73953   0.00000  Uiso   1.00
C548   C     0.25048   0.25001   0.92713   0.00000  Uiso   1.00
C549   C     0.25003   0.02670   0.83334   0.00000  Uiso   1.00
C550   C     0.25004   0.47332   0.83335   0.00000  Uiso   1.00
C551   C     0.25077   0.24999   0.68846   0.00000  Uiso   1.00
C552   C     0.25075   0.25002   0.97821   0.00000  Uiso   1.00
C553   C     0.04681   0.26387   0.79049   0.00000  Uiso   1.00
C554   C     0.45327   0.22631   0.79535   0.00000  Uiso   1.00
C555   C     0.45331   0.27310   0.87146   0.00000  Uiso   1.00
C556   C     0.33598   0.25000   0.83334   0.00000  Uiso   1.00
C557   C     0.04683   0.23552   0.87618   0.00000  Uiso   1.00
C558   C     0.09301   0.26354   0.78943   0.00000  Uiso   1.00
C559   C     0.40708   0.22677   0.79416   0.00000  Uiso   1.00
C560   C     0.40712   0.27289   0.87263   0.00000  Uiso   1.00
C561   C     0.09303   0.23612   0.87722   0.00000  Uiso   1.00
C562   C     0.11618   0.24993   0.83334   0.00000  Uiso   1.00
C563   C     0.38390   0.24994   0.83335   0.00000  Uiso   1.00
C564   C     0.02409   0.24965   0.83335   0.00000  Uiso   1.00
C565   C     0.47603   0.24966   0.83340   0.00000  Uiso   1.00
C566   C     0.11534   0.27631   0.74151   0.00000  Uiso   1.00
C567   C     0.28390   0.10223   0.81086   0.00000  Uiso   1.00
C568   C     0.38475   0.20405   0.75064   0.00000  Uiso   1.00
C569   C     0.38485   0.29550   0.91630   0.00000  Uiso   1.00
C570   C     0.11537   0.22336   0.92509   0.00000  Uiso   1.00
C571   C     0.23100   0.39781   0.87206   0.00000  Uiso   1.00
C572   C     0.21611   0.10224   0.85580   0.00000  Uiso   1.00
C573   C     0.26903   0.39775   0.79463   0.00000  Uiso   1.00
C574   C     0.28464   0.05264   0.81057   0.00000  Uiso   1.00
C575   C     0.23078   0.44741   0.87289   0.00000  Uiso   1.00
C576   C     0.21541   0.05265   0.85611   0.00000  Uiso   1.00
H577   H     0.31068   0.12157   0.79316   0.00000  Uiso   1.00
H578   H     0.21614   0.46515   0.90477   0.00000  Uiso   1.00
H579   H     0.18749   0.03494   0.87349   0.00000  Uiso   1.00
H580   H     0.28394   0.46503   0.76194   0.00000  Uiso   1.00
H581   H     0.11197   0.31176   0.67611   0.00000  Uiso   1.00
H582   H     0.38669   0.15317   0.69783   0.00000  Uiso   1.00
H583   H     0.38723   0.34574   0.96978   0.00000  Uiso   1.00
H584   H     0.11217   0.18762   0.99032   0.00000  Uiso   1.00
H585   H     0.21601   0.37853   0.90265   0.00000  Uiso   1.00
H586   H     0.18933   0.12159   0.87350   0.00000  Uiso   1.00
H587   H     0.28402   0.37841   0.76403   0.00000  Uiso   1.00
H588   H     0.02818   0.27453   0.75762   0.00000  Uiso   1.00
H589   H     0.47183   0.20848   0.76606   0.00000  Uiso   1.00
H590   H     0.47192   0.29080   0.90076   0.00000  Uiso   1.00
H591   H     0.02821   0.22476   0.90906   0.00000  Uiso   1.00
H592   H     0.31257   0.03492   0.79319   0.00000  Uiso   1.00
N593   N     0.25000   0.12623   0.83333   0.00000  Uiso   1.00
N594   N     0.25000   0.37376   0.83333   0.00000  Uiso   1.00
O595   O     0.18453   0.28974   0.83334   0.00000  Uiso   1.00
O596   O     0.09389   0.30627   0.70766   0.00000  Uiso   1.00
O597   O     0.34991   0.21992   0.73409   0.00000  Uiso   1.00
O598   O     0.40467   0.16526   0.72729   0.00000  Uiso   1.00
O599   O     0.34974   0.27995   0.93253   0.00000  Uiso   1.00
O600   O     0.40516   0.33375   0.94020   0.00000  Uiso   1.00
O601   O     0.15146   0.24031   0.93601   0.00000  Uiso   1.00
O602   O     0.09409   0.19309   0.95880   0.00000  Uiso   1.00
O603   O     0.31547   0.21026   0.83333   0.00000  Uiso   1.00
O604   O     0.31547   0.28974   0.83333   0.00000  Uiso   1.00
O605   O     0.18453   0.21026   0.83334   0.00000  Uiso   1.00
O606   O     0.25000   0.28973   0.76178   0.00000  Uiso   1.00
O607   O     0.25000   0.21027   0.90489   0.00000  Uiso   1.00
O608   O     0.25000   0.28973   0.90489   0.00000  Uiso   1.00
O609   O     0.25000   0.21027   0.76178   0.00000  Uiso   1.00
O610   O     0.15157   0.25964   0.73066   0.00000  Uiso   1.00
Zn611  Zn    0.25000   0.30307   0.83333   0.00000  Uiso   1.00
Zn612  Zn    0.25000   0.19693   0.83333   0.00000  Uiso   1.00
C613   C     0.66405   0.24999   0.83332   0.00000  Uiso   1.00
C614   C     0.76928   0.44734   0.79381   0.00000  Uiso   1.00
C615   C     0.75053   0.24999   0.73953   0.00000  Uiso   1.00
C616   C     0.75048   0.25001   0.92713   0.00000  Uiso   1.00
C617   C     0.75003   0.02670   0.83334   0.00000  Uiso   1.00
C618   C     0.75004   0.47332   0.83335   0.00000  Uiso   1.00
C619   C     0.75077   0.24999   0.68846   0.00000  Uiso   1.00
C620   C     0.75075   0.25002   0.97821   0.00000  Uiso   1.00
C621   C     0.54681   0.26387   0.79049   0.00000  Uiso   1.00
C622   C     0.95327   0.22631   0.79535   0.00000  Uiso   1.00
C623   C     0.95331   0.27310   0.87146   0.00000  Uiso   1.00
C624   C     0.83598   0.25000   0.83334   0.00000  Uiso   1.00
C625   C     0.54683   0.23552   0.87618   0.00000  Uiso   1.00
C626   C     0.59301   0.26354   0.78943   0.00000  Uiso   1.00
C627   C     0.90708   0.22677   0.79416   0.00000  Uiso   1.00
C628   C     0.90712   0.27289   0.87263   0.00000  Uiso   1.00
C629   C     0.59303   0.23612   0.87722   0.00000  Uiso   1.00
C630   C     0.61618   0.24993   0.83334   0.00000  Uiso   1.00
C631   C     0.88390   0.24994   0.83335   0.00000  Uiso   1.00
C632   C     0.52409   0.24965   0.83335   0.00000  Uiso   1.00
C633   C     0.97603   0.24966   0.83340   0.00000  Uiso   1.00
C634   C     0.61534   0.27631   0.74151   0.00000  Uiso   1.00
C635   C     0.78390   0.10223   0.81086   0.00000  Uiso   1.00
C636   C     0.88475   0.20405   0.75064   0.00000  Uiso   1.00
C637   C     0.88485   0.29550   0.91630   0.00000  Uiso   1.00
C638   C     0.61537   0.22336   0.92509   0.00000  Uiso   1.00
C639   C     0.73100   0.39781   0.87206   0.00000  Uiso   1.00
C640   C     0.71611   0.10224   0.85580   0.00000  Uiso   1.00
C641   C     0.76903   0.39775   0.79463   0.00000  Uiso   1.00
C642   C     0.78464   0.05264   0.81057   0.00000  Uiso   1.00
C643   C     0.73078   0.44741   0.87289   0.00000  Uiso   1.00
C644   C     0.71541   0.05265   0.85611   0.00000  Uiso   1.00
H645   H     0.81068   0.12157   0.79316   0.00000  Uiso   1.00
H646   H     0.71614   0.46515   0.90477   0.00000  Uiso   1.00
H647   H     0.68749   0.03494   0.87349   0.00000  Uiso   1.00
H648   H     0.78394   0.46503   0.76194   0.00000  Uiso   1.00
H649   H     0.61197   0.31176   0.67611   0.00000  Uiso   1.00
H650   H     0.88669   0.15317   0.69783   0.00000  Uiso   1.00
H651   H     0.88723   0.34574   0.96978   0.00000  Uiso   1.00
H652   H     0.61217   0.18762   0.99032   0.00000  Uiso   1.00
H653   H     0.71601   0.37853   0.90265   0.00000  Uiso   1.00
H654   H     0.68933   0.12159   0.87350   0.00000  Uiso   1.00
H655   H     0.78402   0.37841   0.76403   0.00000  Uiso   1.00
H656   H     0.52818   0.27453   0.75762   0.00000  Uiso   1.00
H657   H     0.97183   0.20848   0.76606   0.00000  Uiso   1.00
H658   H     0.97192   0.29080   0.90076   0.00000  Uiso   1.00
H659   H     0.52821   0.22476   0.90906   0.00000  Uiso   1.00
H660   H     0.81257   0.03492   0.79319   0.00000  Uiso   1.00
N661   N     0.75000   0.12623   0.83333   0.00000  Uiso   1.00
N662   N     0.75000   0.37376   0.83333   0.00000  Uiso   1.00
O663   O     0.68453   0.28974   0.83334   0.00000  Uiso   1.00
O664   O     0.59389   0.30627   0.70766   0.00000  Uiso   1.00
O665   O     0.84991   0.21992   0.73409   0.00000  Uiso   1.00
O666   O     0.90467   0.16526   0.72729   0.00000  Uiso   1.00
O667   O     0.84974   0.27995   0.93253   0.00000  Uiso   1.00
O668   O     0.90516   0.33375   0.94020   0.00000  Uiso   1.00
O669   O     0.65146   0.24031   0.93601   0.00000  Uiso   1.00
O670   O     0.59409   0.19309   0.95880   0.00000  Uiso   1.00
O671   O     0.81547   0.21026   0.83333   0.00000  Uiso   1.00
O672   O     0.81547   0.28974   0.83333   0.00000  Uiso   1.00
O673   O     0.68453   0.21026   0.83334   0.00000  Uiso   1.00
O674   O     0.75000   0.28973   0.76178   0.00000  Uiso   1.00
O675   O     0.75000   0.21027   0.90489   0.00000  Uiso   1.00
O676   O     0.75000   0.28973   0.90489   0.00000  Uiso   1.00
O677   O     0.75000   0.21027   0.76178   0.00000  Uiso   1.00
O678   O     0.65157   0.25964   0.73066   0.00000  Uiso   1.00
Zn679  Zn    0.75000   0.30307   0.83333   0.00000  Uiso   1.00
Zn680  Zn    0.75000   0.19693   0.83333   0.00000  Uiso   1.00
C681   C     0.16405   0.74999   0.83332   0.00000  Uiso   1.00
C682   C     0.26928   0.94734   0.79381   0.00000  Uiso   1.00
C683   C     0.25053   0.74999   0.73953   0.00000  Uiso   1.00
C684   C     0.25048   0.75001   0.92713   0.00000  Uiso   1.00
C685   C     0.25003   0.52670   0.83334   0.00000  Uiso   1.00
C686   C     0.25004   0.97332   0.83335   0.00000  Uiso   1.00
C687   C     0.25077   0.74999   0.68846   0.00000  Uiso   1.00
C688   C     0.25075   0.75002   0.97821   0.00000  Uiso   1.00
C689   C     0.04681   0.76387   0.79049   0.00000  Uiso   1.00
C690   C     0.45327   0.72631   0.79535   0.00000  Uiso   1.00
C691   C     0.45331   0.77310   0.87146   0.00000  Uiso   1.00
C692   C     0.33598   0.75000   0.83334   0.00000  Uiso   1.00
C693   C     0.04683   0.73552   0.87618   0.00000  Uiso   1.00
C694   C     0.09301   0.76354   0.78943   0.00000  Uiso   1.00
C695   C     0.40708   0.72677   0.79416   0.00000  Uiso   1.00
C696   C     0.40712   0.77289   0.87263   0.00000  Uiso   1.00
C697   C     0.09303   0.73612   0.87722   0.00000  Uiso   1.00
C698   C     0.11618   0.74993   0.83334   0.00000  Uiso   1.00
C699   C     0.38390   0.74994   0.83335   0.00000  Uiso   1.00
C700   C     0.02409   0.74965   0.83335   0.00000  Uiso   1.00
C701   C     0.47603   0.74966   0.83340   0.00000  Uiso   1.00
C702   C     0.11534   0.77631   0.74151   0.00000  Uiso   1.00
C703   C     0.28390   0.60223   0.81086   0.00000  Uiso   1.00
C704   C     0.38475   0.70405   0.75064   0.00000  Uiso   1.00
C705   C     0.38485   0.79550   0.91630   0.00000  Uiso   1.00
C706   C     0.11537   0.72336   0.92509   0.00000  Uiso   1.00
C707   C     0.23100   0.89781   0.87206   0.00000  Uiso   1.00
C708   C     0.21611   0.60224   0.85580   0.00000  Uiso   1.00
C709   C     0.26903   0.89775   0.79463   0.00000  Uiso   1.00
C710   C     0.28464   0.55264   0.81057   0.00000  Uiso   1.00
C711   C     0.23078   0.94741   0.87289   0.00000  Uiso   1.00
C712   C     0.21541   0.55265   0.85611   0.00000  Uiso   1.00
H713   H     0.31068   0.62157   0.79316   0.00000  Uiso   1.00
H714   H     0.21614   0.96515   0.90477   0.00000  Uiso   1.00
H715   H     0.18749   0.53494   0.87349   0.00000  Uiso   1.00
H716   H     0.28394   0.96503   0.76194   0.00000  Uiso   1.00
H717   H     0.11197   0.81176   0.67611   0.00000  Uiso   1.00
H718   H     0.38669   0.65317   0.69783   0.00000  Uiso   1.00
H719   H     0.38723   0.84574   0.96978   0.00000  Uiso   1.00
H720   H     0.11217   0.68762   0.99032   0.00000  Uiso   1.00
H721   H     0.21601   0.87853   0.90265   0.00000  Uiso   1.00
H722   H     0.18933   0.62159   0.87350   0.00000  Uiso   1.00
H723   H     0.28402   0.87841   0.76403   0.00000  Uiso   1.00
H724   H     0.02818   0.77453   0.75762   0.00000  Uiso   1.00
H725   H     0.47183   0.70848   0.76606   0.00000  Uiso   1.00
H726   H     0.47192   0.79080   0.90076   0.00000  Uiso   1.00
H727   H     0.02821   0.72476   0.90906   0.00000  Uiso   1.00
H728   H     0.31257   0.53492   0.79319   0.00000  Uiso   1.00
N729   N     0.25000   0.62623   0.83333   0.00000  Uiso   1.00
N730   N     0.25000   0.87376   0.83333   0.00000  Uiso   1.00
O731   O     0.18453   0.78974   0.83334   0.00000  Uiso   1.00
O732   O     0.09389   0.80627   0.70766   0.00000  Uiso   1.00
O733   O     0.34991   0.71992   0.73409   0.00000  Uiso   1.00
O734   O     0.40467   0.66526   0.72729   0.00000  Uiso   1.00
O735   O     0.34974   0.77995   0.93253   0.00000  Uiso   1.00
O736   O     0.40516   0.83375   0.94020   0.00000  Uiso   1.00
O737   O     0.15146   0.74031   0.93601   0.00000  Uiso   1.00
O738   O     0.09409   0.69309   0.95880   0.00000  Uiso   1.00
O739   O     0.31547   0.71026   0.83333   0.00000  Uiso   1.00
O740   O     0.31547   0.78974   0.83333   0.00000  Uiso   1.00
O741   O     0.18453   0.71026   0.83334   0.00000  Uiso   1.00
O742   O     0.25000   0.78973   0.76178   0.00000  Uiso   1.00
O743   O     0.25000   0.71027   0.90489   0.00000  Uiso   1.00
O744   O     0.25000   0.78973   0.90489   0.00000  Uiso   1.00
O745   O     0.25000   0.71027   0.76178   0.00000  Uiso   1.00
O746   O     0.15157   0.75964   0.73066   0.00000  Uiso   1.00
Zn747  Zn    0.25000   0.80307   0.83333   0.00000  Uiso   1.00
Zn748  Zn    0.25000   0.69693   0.83333   0.00000  Uiso   1.00
C749   C     0.66405   0.74999   0.83332   0.00000  Uiso   1.00
C750   C     0.76928   0.94734   0.79381   0.00000  Uiso   1.00
C751   C     0.75053   0.74999   0.73953   0.00000  Uiso   1.00
C752   C     0.75048   0.75001   0.92713   0.00000  Uiso   1.00
C753   C     0.75003   0.52670   0.83334   0.00000  Uiso   1.00
C754   C     0.75004   0.97332   0.83335   0.00000  Uiso   1.00
C755   C     0.75077   0.74999   0.68846   0.00000  Uiso   1.00
C756   C     0.75075   0.75002   0.97821   0.00000  Uiso   1.00
C757   C     0.54681   0.76387   0.79049   0.00000  Uiso   1.00
C758   C     0.95327   0.72631   0.79535   0.00000  Uiso   1.00
C759   C     0.95331   0.77310   0.87146   0.00000  Uiso   1.00
C760   C     0.83598   0.75000   0.83334   0.00000  Uiso   1.00
C761   C     0.54683   0.73552   0.87618   0.00000  Uiso   1.00
C762   C     0.59301   0.76354   0.78943   0.00000  Uiso   1.00
C763   C     0.90708   0.72677   0.79416   0.00000  Uiso   1.00
C764   C     0.90712   0.77289   0.87263   0.00000  Uiso   1.00
C765   C     0.59303   0.73612   0.87722   0.00000  Uiso   1.00
C766   C     0.61618   0.74993   0.83334   0.00000  Uiso   1.00
C767   C     0.88390   0.74994   0.83335   0.00000  Uiso   1.00
C768   C     0.52409   0.74965   0.83335   0.00000  Uiso   1.00
C769   C     0.97603   0.74966   0.83340   0.00000  Uiso   1.00
C770   C     0.61534   0.77631   0.74151   0.00000  Uiso   1.00
C771   C     0.78390   0.60223   0.81086   0.00000  Uiso   1.00
C772   C     0.88475   0.70405   0.75064   0.00000  Uiso   1.00
C773   C     0.88485   0.79550   0.91630   0.00000  Uiso   1.00
C774   C     0.61537   0.72336   0.92509   0.00000  Uiso   1.00
C775   C     0.73100   0.89781   0.87206   0.00000  Uiso   1.00
C776   C     0.71611   0.60224   0.85580   0.00000  Uiso   1.00
C777   C     0.76903   0.89775   0.79463   0.00000  Uiso   1.00
C778   C     0.78464   0.55264   0.81057   0.00000  Uiso   1.00
C779   C     0.73078   0.94741   0.87289   0.00000  Uiso   1.00
C780   C     0.71541   0.55265   0.85611   0.00000  Uiso   1.00
H781   H     0.81068   0.62157   0.79316   0.00000  Uiso   1.00
H782   H     0.71614   0.96515   0.90477   0.00000  Uiso   1.00
H783   H     0.68749   0.53494   0.87349   0.00000  Uiso   1.00
H784   H     0.78394   0.96503   0.76194   0.00000  Uiso   1.00
H785   H     0.61197   0.81176   0.67611   0.00000  Uiso   1.00
H786   H     0.88669   0.65317   0.69783   0.00000  Uiso   1.00
H787   H     0.88723   0.84574   0.96978   0.00000  Uiso   1.00
H788   H     0.61217   0.68762   0.99032   0.00000  Uiso   1.00
H789   H     0.71601   0.87853   0.90265   0.00000  Uiso   1.00
H790   H     0.68933   0.62159   0.87350   0.00000  Uiso   1.00
H791   H     0.78402   0.87841   0.76403   0.00000  Uiso   1.00
H792   H     0.52818   0.77453   0.75762   0.00000  Uiso   1.00
H793   H     0.97183   0.70848   0.76606   0.00000  Uiso   1.00
H794   H     0.97192   0.79080   0.90076   0.00000  Uiso   1.00
H795   H     0.52821   0.72476   0.90906   0.00000  Uiso   1.00
H796   H     0.81257   0.53492   0.79319   0.00000  Uiso   1.00
N797   N     0.75000   0.62623   0.83333   0.00000  Uiso   1.00
N798   N     0.75000   0.87376   0.83333   0.00000  Uiso   1.00
O799   O     0.68453   0.78974   0.83334   0.00000  Uiso   1.00
O800   O     0.59389   0.80627   0.70766   0.00000  Uiso   1.00
O801   O     0.84991   0.71992   0.73409   0.00000  Uiso   1.00
O802   O     0.90467   0.66526   0.72729   0.00000  Uiso   1.00
O803   O     0.84974   0.77995   0.93253   0.00000  Uiso   1.00
O804   O     0.90516   0.83375   0.94020   0.00000  Uiso   1.00
O805   O     0.65146   0.74031   0.93601   0.00000  Uiso   1.00
O806   O     0.59409   0.69309   0.95880   0.00000  Uiso   1.00
O807   O     0.81547   0.71026   0.83333   0.00000  Uiso   1.00
O808   O     0.81547   0.78974   0.83333   0.00000  Uiso   1.00
O809   O     0.68453   0.71026   0.83334   0.00000  Uiso   1.00
O810   O     0.75000   0.78973   0.76178   0.00000  Uiso   1.00
O811   O     0.75000   0.71027   0.90489   0.00000  Uiso   1.00
O812   O     0.75000   0.78973   0.90489   0.00000  Uiso   1.00
O813   O     0.75000   0.71027   0.76178   0.00000  Uiso   1.00
O814   O     0.65157   0.75964   0.73066   0.00000  Uiso   1.00
Zn815  Zn    0.75000   0.80307   0.83333   0.00000  Uiso   1.00
Zn816  Zn    0.75000   0.69693   0.83333   0.00000  Uiso   1.00
loop_
_geom_bond_atom_site_label_1
_geom_bond_atom_site_label_2
_geom_bond_distance
_geom_bond_site_symmetry_2
_ccdc_geom_bond_type
C1     O51     1.285   .     A
C1     C18     1.437   .     S
C1     O61     1.284   .     A
C2     C6      1.411   .     A
C2     C29     1.408   .     A
C2     H36     1.082   .     S
C3     C7      1.364   .     S
C3     O65     1.275   .     A
C3     O62     1.274   .     A
C4     C8      1.364   .     S
C4     O63     1.274   .     A
C4     O64     1.275   .     A
C5     C32     1.411   .     A
C5     C30     1.411   .     A
C5     C142    1.515   1_545 S
C6     C31     1.411   .     A
C6     C141    1.515   .     S
C7     C552    1.164   1_554 S
C8     C279    1.164   .     S
C9     C14     1.387   .     A
C9     C20     1.392   .     A
C9     H44     1.085   .     S
C10    C15     1.387   .     A
C10    H45     1.085   .     S
C10    C21     1.392   .     A
C11    C16     1.387   .     A
C11    C21     1.392   .     A
C11    H46     1.085   .     S
C12    C19     1.439   .     S
C12    O60     1.285   .     A
C12    O59     1.285   .     A
C13    C17     1.387   .     A
C13    H47     1.085   .     S
C13    C20     1.392   .     A
C14    C18     1.418   .     A
C14    C22     1.489   .     S
C15    C19     1.418   .     A
C15    C24     1.488   .     S
C16    C19     1.418   .     A
C16    C25     1.489   .     S
C17    C18     1.418   .     A
C17    C26     1.489   .     S
C20    C89     1.443   1_455 S
C21    C88     1.443   .     S
C22    O52     1.399   .     S
C22    O66     1.221   .     D
C23    N49     1.363   .     A
C23    C30     1.408   .     A
C23    H33     1.082   .     S
C24    O53     1.222   .     D
C24    O54     1.399   .     S
C25    O56     1.399   .     S
C25    O55     1.222   .     D
C26    O58     1.399   .     S
C26    O57     1.221   .     D
C27    N50     1.363   .     A
C27    C31     1.408   .     A
C27    H41     1.082   .     S
C28    N49     1.363   .     A
C28    C32     1.407   .     A
C28    H42     1.082   .     S
C29    H43     1.082   .     S
C29    N50     1.363   .     A
C30    H48     1.082   .     S
C31    H34     1.082   .     S
C32    H35     1.082   .     S
H37    O52     1.014   .     S
H38    O54     1.014   .     S
H39    O56     1.014   .     S
H40    O58     1.014   .     S
N49    Zn68    2.006   .     S
N50    Zn67    2.006   .     S
O51    Zn67    2.001   .     S
O59    Zn68    2.001   .     S
O60    Zn67    2.001   .     S
O61    Zn68    2.001   .     S
O62    Zn67    1.948   .     S
O63    Zn68    1.948   .     S
O64    Zn67    1.949   .     S
O65    Zn68    1.949   .     S
C69    O119    1.285   .     A
C69    C86     1.437   .     S
C69    O129    1.284   .     A
C70    C74     1.411   .     A
C70    C97     1.408   .     A
C70    H104    1.082   .     S
C71    C75     1.364   .     S
C71    O133    1.275   .     A
C71    O130    1.274   .     A
C72    C76     1.364   .     S
C72    O131    1.274   .     A
C72    O132    1.275   .     A
C73    C100    1.411   .     A
C73    C98     1.411   .     A
C73    C210    1.515   1_545 S
C74    C99     1.411   .     A
C74    C209    1.515   .     S
C75    C620    1.164   1_554 S
C76    C347    1.164   .     S
C77    C82     1.387   .     A
C77    C88     1.392   .     A
C77    H112    1.085   .     S
C78    C83     1.387   .     A
C78    H113    1.085   .     S
C78    C89     1.392   .     A
C79    C84     1.387   .     A
C79    C89     1.392   .     A
C79    H114    1.085   .     S
C80    C87     1.439   .     S
C80    O128    1.285   .     A
C80    O127    1.285   .     A
C81    C85     1.387   .     A
C81    H115    1.085   .     S
C81    C88     1.392   .     A
C82    C86     1.418   .     A
C82    C90     1.489   .     S
C83    C87     1.418   .     A
C83    C92     1.488   .     S
C84    C87     1.418   .     A
C84    C93     1.489   .     S
C85    C86     1.418   .     A
C85    C94     1.489   .     S
C89    C20     1.443   1_655 S
C90    O120    1.399   .     S
C90    O134    1.221   .     D
C91    N117    1.363   .     A
C91    C98     1.408   .     A
C91    H101    1.082   .     S
C92    O121    1.222   .     D
C92    O122    1.399   .     S
C93    O124    1.399   .     S
C93    O123    1.222   .     D
C94    O126    1.399   .     S
C94    O125    1.221   .     D
C95    N118    1.363   .     A
C95    C99     1.408   .     A
C95    H109    1.082   .     S
C96    N117    1.363   .     A
C96    C100    1.407   .     A
C96    H110    1.082   .     S
C97    H111    1.082   .     S
C97    N118    1.363   .     A
C98    H116    1.082   .     S
C99    H102    1.082   .     S
C100   H103    1.082   .     S
H105   O120    1.014   .     S
H106   O122    1.014   .     S
H107   O124    1.014   .     S
H108   O126    1.014   .     S
N117   Zn136   2.006   .     S
N118   Zn135   2.006   .     S
O119   Zn135   2.001   .     S
O127   Zn136   2.001   .     S
O128   Zn135   2.001   .     S
O129   Zn136   2.001   .     S
O130   Zn135   1.948   .     S
O131   Zn136   1.948   .     S
O132   Zn135   1.949   .     S
O133   Zn136   1.949   .     S
C137   O187    1.285   .     A
C137   C154    1.437   .     S
C137   O197    1.284   .     A
C138   C142    1.411   .     A
C138   C165    1.408   .     A
C138   H172    1.082   .     S
C139   C143    1.364   .     S
C139   O201    1.275   .     A
C139   O198    1.274   .     A
C140   C144    1.364   .     S
C140   O199    1.274   .     A
C140   O200    1.275   .     A
C141   C168    1.411   .     A
C141   C166    1.411   .     A
C142   C167    1.411   .     A
C142   C5      1.515   1_565 S
C143   C688    1.164   1_554 S
C144   C415    1.164   .     S
C145   C150    1.387   .     A
C145   C156    1.392   .     A
C145   H180    1.085   .     S
C146   C151    1.387   .     A
C146   H181    1.085   .     S
C146   C157    1.392   .     A
C147   C152    1.387   .     A
C147   C157    1.392   .     A
C147   H182    1.085   .     S
C148   C155    1.439   .     S
C148   O196    1.285   .     A
C148   O195    1.285   .     A
C149   C153    1.387   .     A
C149   H183    1.085   .     S
C149   C156    1.392   .     A
C150   C154    1.418   .     A
C150   C158    1.489   .     S
C151   C155    1.418   .     A
C151   C160    1.488   .     S
C152   C155    1.418   .     A
C152   C161    1.489   .     S
C153   C154    1.418   .     A
C153   C162    1.489   .     S
C156   C225    1.443   1_455 S
C157   C224    1.443   .     S
C158   O188    1.399   .     S
C158   O202    1.221   .     D
C159   N185    1.363   .     A
C159   C166    1.408   .     A
C159   H169    1.082   .     S
C160   O189    1.222   .     D
C160   O190    1.399   .     S
C161   O192    1.399   .     S
C161   O191    1.222   .     D
C162   O194    1.399   .     S
C162   O193    1.221   .     D
C163   N186    1.363   .     A
C163   C167    1.408   .     A
C163   H177    1.082   .     S
C164   N185    1.363   .     A
C164   C168    1.407   .     A
C164   H178    1.082   .     S
C165   H179    1.082   .     S
C165   N186    1.363   .     A
C166   H184    1.082   .     S
C167   H170    1.082   .     S
C168   H171    1.082   .     S
H173   O188    1.014   .     S
H174   O190    1.014   .     S
H175   O192    1.014   .     S
H176   O194    1.014   .     S
N185   Zn204   2.006   .     S
N186   Zn203   2.006   .     S
O187   Zn203   2.001   .     S
O195   Zn204   2.001   .     S
O196   Zn203   2.001   .     S
O197   Zn204   2.001   .     S
O198   Zn203   1.948   .     S
O199   Zn204   1.948   .     S
O200   Zn203   1.949   .     S
O201   Zn204   1.949   .     S
C205   O255    1.285   .     A
C205   C222    1.437   .     S
C205   O265    1.284   .     A
C206   C210    1.411   .     A
C206   C233    1.408   .     A
C206   H240    1.082   .     S
C207   C211    1.364   .     S
C207   O269    1.275   .     A
C207   O266    1.274   .     A
C208   C212    1.364   .     S
C208   O267    1.274   .     A
C208   O268    1.275   .     A
C209   C236    1.411   .     A
C209   C234    1.411   .     A
C210   C235    1.411   .     A
C210   C73     1.515   1_565 S
C211   C756    1.164   1_554 S
C212   C483    1.164   .     S
C213   C218    1.387   .     A
C213   C224    1.392   .     A
C213   H248    1.085   .     S
C214   C219    1.387   .     A
C214   H249    1.085   .     S
C214   C225    1.392   .     A
C215   C220    1.387   .     A
C215   C225    1.392   .     A
C215   H250    1.085   .     S
C216   C223    1.439   .     S
C216   O264    1.285   .     A
C216   O263    1.285   .     A
C217   C221    1.387   .     A
C217   H251    1.085   .     S
C217   C224    1.392   .     A
C218   C222    1.418   .     A
C218   C226    1.489   .     S
C219   C223    1.418   .     A
C219   C228    1.488   .     S
C220   C223    1.418   .     A
C220   C229    1.489   .     S
C221   C222    1.418   .     A
C221   C230    1.489   .     S
C225   C156    1.443   1_655 S
C226   O256    1.399   .     S
C226   O270    1.221   .     D
C227   N253    1.363   .     A
C227   C234    1.408   .     A
C227   H237    1.082   .     S
C228   O257    1.222   .     D
C228   O258    1.399   .     S
C229   O260    1.399   .     S
C229   O259    1.222   .     D
C230   O262    1.399   .     S
C230   O261    1.221   .     D
C231   N254    1.363   .     A
C231   C235    1.408   .     A
C231   H245    1.082   .     S
C232   N253    1.363   .     A
C232   C236    1.407   .     A
C232   H246    1.082   .     S
C233   H247    1.082   .     S
C233   N254    1.363   .     A
C234   H252    1.082   .     S
C235   H238    1.082   .     S
C236   H239    1.082   .     S
H241   O256    1.014   .     S
H242   O258    1.014   .     S
H243   O260    1.014   .     S
H244   O262    1.014   .     S
N253   Zn272   2.006   .     S
N254   Zn271   2.006   .     S
O255   Zn271   2.001   .     S
O263   Zn272   2.001   .     S
O264   Zn271   2.001   .     S
O265   Zn272   2.001   .     S
O266   Zn271   1.948   .     S
O267   Zn272   1.948   .     S
O268   Zn271   1.949   .     S
O269   Zn272   1.949   .     S
C273   O323    1.285   .     A
C273   C290    1.437   .     S
C273   O333    1.284   .     A
C274   C278    1.411   .     A
C274   C301    1.408   .     A
C274   H308    1.082   .     S
C275   C279    1.364   .     S
C275   O337    1.275   .     A
C275   O334    1.274   .     A
C276   C280    1.364   .     S
C276   O335    1.274   .     A
C276   O336    1.275   .     A
C277   C304    1.411   .     A
C277   C302    1.411   .     A
C277   C414    1.515   1_545 S
C278   C303    1.411   .     A
C278   C413    1.515   .     S
C280   C551    1.164   .     S
C281   C286    1.387   .     A
C281   C292    1.392   .     A
C281   H316    1.085   .     S
C282   C287    1.387   .     A
C282   H317    1.085   .     S
C282   C293    1.392   .     A
C283   C288    1.387   .     A
C283   C293    1.392   .     A
C283   H318    1.085   .     S
C284   C291    1.439   .     S
C284   O332    1.285   .     A
C284   O331    1.285   .     A
C285   C289    1.387   .     A
C285   H319    1.085   .     S
C285   C292    1.392   .     A
C286   C290    1.418   .     A
C286   C294    1.489   .     S
C287   C291    1.418   .     A
C287   C296    1.488   .     S
C288   C291    1.418   .     A
C288   C297    1.489   .     S
C289   C290    1.418   .     A
C289   C298    1.489   .     S
C292   C361    1.443   1_455 S
C293   C360    1.443   .     S
C294   O324    1.399   .     S
C294   O338    1.221   .     D
C295   N321    1.363   .     A
C295   C302    1.408   .     A
C295   H305    1.082   .     S
C296   O325    1.222   .     D
C296   O326    1.399   .     S
C297   O328    1.399   .     S
C297   O327    1.222   .     D
C298   O330    1.399   .     S
C298   O329    1.221   .     D
C299   N322    1.363   .     A
C299   C303    1.408   .     A
C299   H313    1.082   .     S
C300   N321    1.363   .     A
C300   C304    1.407   .     A
C300   H314    1.082   .     S
C301   H315    1.082   .     S
C301   N322    1.363   .     A
C302   H320    1.082   .     S
C303   H306    1.082   .     S
C304   H307    1.082   .     S
H309   O324    1.014   .     S
H310   O326    1.014   .     S
H311   O328    1.014   .     S
H312   O330    1.014   .     S
N321   Zn340   2.006   .     S
N322   Zn339   2.006   .     S
O323   Zn339   2.001   .     S
O331   Zn340   2.001   .     S
O332   Zn339   2.001   .     S
O333   Zn340   2.001   .     S
O334   Zn339   1.948   .     S
O335   Zn340   1.948   .     S
O336   Zn339   1.949   .     S
O337   Zn340   1.949   .     S
C341   O391    1.285   .     A
C341   C358    1.437   .     S
C341   O401    1.284   .     A
C342   C346    1.411   .     A
C342   C369    1.408   .     A
C342   H376    1.082   .     S
C343   C347    1.364   .     S
C343   O405    1.275   .     A
C343   O402    1.274   .     A
C344   C348    1.364   .     S
C344   O403    1.274   .     A
C344   O404    1.275   .     A
C345   C372    1.411   .     A
C345   C370    1.411   .     A
C345   C482    1.515   1_545 S
C346   C371    1.411   .     A
C346   C481    1.515   .     S
C348   C619    1.164   .     S
C349   C354    1.387   .     A
C349   C360    1.392   .     A
C349   H384    1.085   .     S
C350   C355    1.387   .     A
C350   H385    1.085   .     S
C350   C361    1.392   .     A
C351   C356    1.387   .     A
C351   C361    1.392   .     A
C351   H386    1.085   .     S
C352   C359    1.439   .     S
C352   O400    1.285   .     A
C352   O399    1.285   .     A
C353   C357    1.387   .     A
C353   H387    1.085   .     S
C353   C360    1.392   .     A
C354   C358    1.418   .     A
C354   C362    1.489   .     S
C355   C359    1.418   .     A
C355   C364    1.488   .     S
C356   C359    1.418   .     A
C356   C365    1.489   .     S
C357   C358    1.418   .     A
C357   C366    1.489   .     S
C361   C292    1.443   1_655 S
C362   O392    1.399   .     S
C362   O406    1.221   .     D
C363   N389    1.363   .     A
C363   C370    1.408   .     A
C363   H373    1.082   .     S
C364   O393    1.222   .     D
C364   O394    1.399   .     S
C365   O396    1.399   .     S
C365   O395    1.222   .     D
C366   O398    1.399   .     S
C366   O397    1.221   .     D
C367   N390    1.363   .     A
C367   C371    1.408   .     A
C367   H381    1.082   .     S
C368   N389    1.363   .     A
C368   C372    1.407   .     A
C368   H382    1.082   .     S
C369   H383    1.082   .     S
C369   N390    1.363   .     A
C370   H388    1.082   .     S
C371   H374    1.082   .     S
C372   H375    1.082   .     S
H377   O392    1.014   .     S
H378   O394    1.014   .     S
H379   O396    1.014   .     S
H380   O398    1.014   .     S
N389   Zn408   2.006   .     S
N390   Zn407   2.006   .     S
O391   Zn407   2.001   .     S
O399   Zn408   2.001   .     S
O400   Zn407   2.001   .     S
O401   Zn408   2.001   .     S
O402   Zn407   1.948   .     S
O403   Zn408   1.948   .     S
O404   Zn407   1.949   .     S
O405   Zn408   1.949   .     S
C409   O459    1.285   .     A
C409   C426    1.437   .     S
C409   O469    1.284   .     A
C410   C414    1.411   .     A
C410   C437    1.408   .     A
C410   H444    1.082   .     S
C411   C415    1.364   .     S
C411   O473    1.275   .     A
C411   O470    1.274   .     A
C412   C416    1.364   .     S
C412   O471    1.274   .     A
C412   O472    1.275   .     A
C413   C440    1.411   .     A
C413   C438    1.411   .     A
C414   C439    1.411   .     A
C414   C277    1.515   1_565 S
C416   C687    1.164   .     S
C417   C422    1.387   .     A
C417   C428    1.392   .     A
C417   H452    1.085   .     S
C418   C423    1.387   .     A
C418   H453    1.085   .     S
C418   C429    1.392   .     A
C419   C424    1.387   .     A
C419   C429    1.392   .     A
C419   H454    1.085   .     S
C420   C427    1.439   .     S
C420   O468    1.285   .     A
C420   O467    1.285   .     A
C421   C425    1.387   .     A
C421   H455    1.085   .     S
C421   C428    1.392   .     A
C422   C426    1.418   .     A
C422   C430    1.489   .     S
C423   C427    1.418   .     A
C423   C432    1.488   .     S
C424   C427    1.418   .     A
C424   C433    1.489   .     S
C425   C426    1.418   .     A
C425   C434    1.489   .     S
C428   C497    1.443   1_455 S
C429   C496    1.443   .     S
C430   O460    1.399   .     S
C430   O474    1.221   .     D
C431   N457    1.363   .     A
C431   C438    1.408   .     A
C431   H441    1.082   .     S
C432   O461    1.222   .     D
C432   O462    1.399   .     S
C433   O464    1.399   .     S
C433   O463    1.222   .     D
C434   O466    1.399   .     S
C434   O465    1.221   .     D
C435   N458    1.363   .     A
C435   C439    1.408   .     A
C435   H449    1.082   .     S
C436   N457    1.363   .     A
C436   C440    1.407   .     A
C436   H450    1.082   .     S
C437   H451    1.082   .     S
C437   N458    1.363   .     A
C438   H456    1.082   .     S
C439   H442    1.082   .     S
C440   H443    1.082   .     S
H445   O460    1.014   .     S
H446   O462    1.014   .     S
H447   O464    1.014   .     S
H448   O466    1.014   .     S
N457   Zn476   2.006   .     S
N458   Zn475   2.006   .     S
O459   Zn475   2.001   .     S
O467   Zn476   2.001   .     S
O468   Zn475   2.001   .     S
O469   Zn476   2.001   .     S
O470   Zn475   1.948   .     S
O471   Zn476   1.948   .     S
O472   Zn475   1.949   .     S
O473   Zn476   1.949   .     S
C477   O527    1.285   .     A
C477   C494    1.437   .     S
C477   O537    1.284   .     A
C478   C482    1.411   .     A
C478   C505    1.408   .     A
C478   H512    1.082   .     S
C479   C483    1.364   .     S
C479   O541    1.275   .     A
C479   O538    1.274   .     A
C480   C484    1.364   .     S
C480   O539    1.274   .     A
C480   O540    1.275   .     A
C481   C508    1.411   .     A
C481   C506    1.411   .     A
C482   C507    1.411   .     A
C482   C345    1.515   1_565 S
C484   C755    1.164   .     S
C485   C490    1.387   .     A
C485   C496    1.392   .     A
C485   H520    1.085   .     S
C486   C491    1.387   .     A
C486   H521    1.085   .     S
C486   C497    1.392   .     A
C487   C492    1.387   .     A
C487   C497    1.392   .     A
C487   H522    1.085   .     S
C488   C495    1.439   .     S
C488   O536    1.285   .     A
C488   O535    1.285   .     A
C489   C493    1.387   .     A
C489   H523    1.085   .     S
C489   C496    1.392   .     A
C490   C494    1.418   .     A
C490   C498    1.489   .     S
C491   C495    1.418   .     A
C491   C500    1.488   .     S
C492   C495    1.418   .     A
C492   C501    1.489   .     S
C493   C494    1.418   .     A
C493   C502    1.489   .     S
C497   C428    1.443   1_655 S
C498   O528    1.399   .     S
C498   O542    1.221   .     D
C499   N525    1.363   .     A
C499   C506    1.408   .     A
C499   H509    1.082   .     S
C500   O529    1.222   .     D
C500   O530    1.399   .     S
C501   O532    1.399   .     S
C501   O531    1.222   .     D
C502   O534    1.399   .     S
C502   O533    1.221   .     D
C503   N526    1.363   .     A
C503   C507    1.408   .     A
C503   H517    1.082   .     S
C504   N525    1.363   .     A
C504   C508    1.407   .     A
C504   H518    1.082   .     S
C505   H519    1.082   .     S
C505   N526    1.363   .     A
C506   H524    1.082   .     S
C507   H510    1.082   .     S
C508   H511    1.082   .     S
H513   O528    1.014   .     S
H514   O530    1.014   .     S
H515   O532    1.014   .     S
H516   O534    1.014   .     S
N525   Zn544   2.006   .     S
N526   Zn543   2.006   .     S
O527   Zn543   2.001   .     S
O535   Zn544   2.001   .     S
O536   Zn543   2.001   .     S
O537   Zn544   2.001   .     S
O538   Zn543   1.948   .     S
O539   Zn544   1.948   .     S
O540   Zn543   1.949   .     S
O541   Zn544   1.949   .     S
C545   O595    1.285   .     A
C545   C562    1.437   .     S
C545   O605    1.284   .     A
C546   C550    1.411   .     A
C546   C573    1.408   .     A
C546   H580    1.082   .     S
C547   C551    1.364   .     S
C547   O609    1.275   .     A
C547   O606    1.274   .     A
C548   C552    1.364   .     S
C548   O607    1.274   .     A
C548   O608    1.275   .     A
C549   C576    1.411   .     A
C549   C574    1.411   .     A
C549   C686    1.515   1_545 S
C550   C575    1.411   .     A
C550   C685    1.515   .     S
C552   C7      1.164   1_556 S
C553   C558    1.387   .     A
C553   C564    1.392   .     A
C553   H588    1.085   .     S
C554   C559    1.387   .     A
C554   H589    1.085   .     S
C554   C565    1.392   .     A
C555   C560    1.387   .     A
C555   C565    1.392   .     A
C555   H590    1.085   .     S
C556   C563    1.439   .     S
C556   O604    1.285   .     A
C556   O603    1.285   .     A
C557   C561    1.387   .     A
C557   H591    1.085   .     S
C557   C564    1.392   .     A
C558   C562    1.418   .     A
C558   C566    1.489   .     S
C559   C563    1.418   .     A
C559   C568    1.488   .     S
C560   C563    1.418   .     A
C560   C569    1.489   .     S
C561   C562    1.418   .     A
C561   C570    1.489   .     S
C564   C633    1.443   1_455 S
C565   C632    1.443   .     S
C566   O596    1.399   .     S
C566   O610    1.221   .     D
C567   N593    1.363   .     A
C567   C574    1.408   .     A
C567   H577    1.082   .     S
C568   O597    1.222   .     D
C568   O598    1.399   .     S
C569   O600    1.399   .     S
C569   O599    1.222   .     D
C570   O602    1.399   .     S
C570   O601    1.221   .     D
C571   N594    1.363   .     A
C571   C575    1.408   .     A
C571   H585    1.082   .     S
C572   N593    1.363   .     A
C572   C576    1.407   .     A
C572   H586    1.082   .     S
C573   H587    1.082   .     S
C573   N594    1.363   .     A
C574   H592    1.082   .     S
C575   H578    1.082   .     S
C576   H579    1.082   .     S
H581   O596    1.014   .     S
H582   O598    1.014   .     S
H583   O600    1.014   .     S
H584   O602    1.014   .     S
N593   Zn612   2.006   .     S
N594   Zn611   2.006   .     S
O595   Zn611   2.001   .     S
O603   Zn612   2.001   .     S
O604   Zn611   2.001   .     S
O605   Zn612   2.001   .     S
O606   Zn611   1.948   .     S
O607   Zn612   1.948   .     S
O608   Zn611   1.949   .     S
O609   Zn612   1.949   .     S
C613   O663    1.285   .     A
C613   C630    1.437   .     S
C613   O673    1.284   .     A
C614   C618    1.411   .     A
C614   C641    1.408   .     A
C614   H648    1.082   .     S
C615   C619    1.364   .     S
C615   O677    1.275   .     A
C615   O674    1.274   .     A
C616   C620    1.364   .     S
C616   O675    1.274   .     A
C616   O676    1.275   .     A
C617   C644    1.411   .     A
C617   C642    1.411   .     A
C617   C754    1.515   1_545 S
C618   C643    1.411   .     A
C618   C753    1.515   .     S
C620   C75     1.164   1_556 S
C621   C626    1.387   .     A
C621   C632    1.392   .     A
C621   H656    1.085   .     S
C622   C627    1.387   .     A
C622   H657    1.085   .     S
C622   C633    1.392   .     A
C623   C628    1.387   .     A
C623   C633    1.392   .     A
C623   H658    1.085   .     S
C624   C631    1.439   .     S
C624   O672    1.285   .     A
C624   O671    1.285   .     A
C625   C629    1.387   .     A
C625   H659    1.085   .     S
C625   C632    1.392   .     A
C626   C630    1.418   .     A
C626   C634    1.489   .     S
C627   C631    1.418   .     A
C627   C636    1.488   .     S
C628   C631    1.418   .     A
C628   C637    1.489   .     S
C629   C630    1.418   .     A
C629   C638    1.489   .     S
C633   C564    1.443   1_655 S
C634   O664    1.399   .     S
C634   O678    1.221   .     D
C635   N661    1.363   .     A
C635   C642    1.408   .     A
C635   H645    1.082   .     S
C636   O665    1.222   .     D
C636   O666    1.399   .     S
C637   O668    1.399   .     S
C637   O667    1.222   .     D
C638   O670    1.399   .     S
C638   O669    1.221   .     D
C639   N662    1.363   .     A
C639   C643    1.408   .     A
C639   H653    1.082   .     S
C640   N661    1.363   .     A
C640   C644    1.407   .     A
C640   H654    1.082   .     S
C641   H655    1.082   .     S
C641   N662    1.363   .     A
C642   H660    1.082   .     S
C643   H646    1.082   .     S
C644   H647    1.082   .     S
H649   O664    1.014   .     S
H650   O666    1.014   .     S
H651   O668    1.014   .     S
H652   O670    1.014   .     S
N661   Zn680   2.006   .     S
N662   Zn679   2.006   .     S
O663   Zn679   2.001   .     S
O671   Zn680   2.001   .     S
O672   Zn679   2.001   .     S
O673   Zn680   2.001   .     S
O674   Zn679   1.948   .     S
O675   Zn680   1.948   .     S
O676   Zn679   1.949   .     S
O677   Zn680   1.949   .     S
C681   O731    1.285   .     A
C681   C698    1.437   .     S
C681   O741    1.284   .     A
C682   C686    1.411   .     A
C682   C709    1.408   .     A
C682   H716    1.082   .     S
C683   C687    1.364   .     S
C683   O745    1.275   .     A
C683   O742    1.274   .     A
C684   C688    1.364   .     S
C684   O743    1.274   .     A
C684   O744    1.275   .     A
C685   C712    1.411   .     A
C685   C710    1.411   .     A
C686   C711    1.411   .     A
C686   C549    1.515   1_565 S
C688   C143    1.164   1_556 S
C689   C694    1.387   .     A
C689   C700    1.392   .     A
C689   H724    1.085   .     S
C690   C695    1.387   .     A
C690   H725    1.085   .     S
C690   C701    1.392   .     A
C691   C696    1.387   .     A
C691   C701    1.392   .     A
C691   H726    1.085   .     S
C692   C699    1.439   .     S
C692   O740    1.285   .     A
C692   O739    1.285   .     A
C693   C697    1.387   .     A
C693   H727    1.085   .     S
C693   C700    1.392   .     A
C694   C698    1.418   .     A
C694   C702    1.489   .     S
C695   C699    1.418   .     A
C695   C704    1.488   .     S
C696   C699    1.418   .     A
C696   C705    1.489   .     S
C697   C698    1.418   .     A
C697   C706    1.489   .     S
C700   C769    1.443   1_455 S
C701   C768    1.443   .     S
C702   O732    1.399   .     S
C702   O746    1.221   .     D
C703   N729    1.363   .     A
C703   C710    1.408   .     A
C703   H713    1.082   .     S
C704   O733    1.222   .     D
C704   O734    1.399   .     S
C705   O736    1.399   .     S
C705   O735    1.222   .     D
C706   O738    1.399   .     S
C706   O737    1.221   .     D
C707   N730    1.363   .     A
C707   C711    1.408   .     A
C707   H721    1.082   .     S
C708   N729    1.363   .     A
C708   C712    1.407   .     A
C708   H722    1.082   .     S
C709   H723    1.082   .     S
C709   N730    1.363   .     A
C710   H728    1.082   .     S
C711   H714    1.082   .     S
C712   H715    1.082   .     S
H717   O732    1.014   .     S
H718   O734    1.014   .     S
H719   O736    1.014   .     S
H720   O738    1.014   .     S
N729   Zn748   2.006   .     S
N730   Zn747   2.006   .     S
O731   Zn747   2.001   .     S
O739   Zn748   2.001   .     S
O740   Zn747   2.001   .     S
O741   Zn748   2.001   .     S
O742   Zn747   1.948   .     S
O743   Zn748   1.948   .     S
O744   Zn747   1.949   .     S
O745   Zn748   1.949   .     S
C749   O799    1.285   .     A
C749   C766    1.437   .     S
C749   O809    1.284   .     A
C750   C754    1.411   .     A
C750   C777    1.408   .     A
C750   H784    1.082   .     S
C751   C755    1.364   .     S
C751   O813    1.275   .     A
C751   O810    1.274   .     A
C752   C756    1.364   .     S
C752   O811    1.274   .     A
C752   O812    1.275   .     A
C753   C780    1.411   .     A
C753   C778    1.411   .     A
C754   C779    1.411   .     A
C754   C617    1.515   1_565 S
C756   C211    1.164   1_556 S
C757   C762    1.387   .     A
C757   C768    1.392   .     A
C757   H792    1.085   .     S
C758   C763    1.387   .     A
C758   H793    1.085   .     S
C758   C769    1.392   .     A
C759   C764    1.387   .     A
C759   C769    1.392   .     A
C759   H794    1.085   .     S
C760   C767    1.439   .     S
C760   O808    1.285   .     A
C760   O807    1.285   .     A
C761   C765    1.387   .     A
C761   H795    1.085   .     S
C761   C768    1.392   .     A
C762   C766    1.418   .     A
C762   C770    1.489   .     S
C763   C767    1.418   .     A
C763   C772    1.488   .     S
C764   C767    1.418   .     A
C764   C773    1.489   .     S
C765   C766    1.418   .     A
C765   C774    1.489   .     S
C769   C700    1.443   1_655 S
C770   O800    1.399   .     S
C770   O814    1.221   .     D
C771   N797    1.363   .     A
C771   C778    1.408   .     A
C771   H781    1.082   .     S
C772   O801    1.222   .     D
C772   O802    1.399   .     S
C773   O804    1.399   .     S
C773   O803    1.222   .     D
C774   O806    1.399   .     S
C774   O805    1.221   .     D
C775   N798    1.363   .     A
C775   C779    1.408   .     A
C775   H789    1.082   .     S
C776   N797    1.363   .     A
C776   C780    1.407   .     A
C776   H790    1.082   .     S
C777   H791    1.082   .     S
C777   N798    1.363   .     A
C778   H796    1.082   .     S
C779   H782    1.082   .     S
C780   H783    1.082   .     S
H785   O800    1.014   .     S
H786   O802    1.014   .     S
H787   O804    1.014   .     S
H788   O806    1.014   .     S
N797   Zn816   2.006   .     S
N798   Zn815   2.006   .     S
O799   Zn815   2.001   .     S
O807   Zn816   2.001   .     S
O808   Zn815   2.001   .     S
O809   Zn816   2.001   .     S
O810   Zn815   1.948   .     S
O811   Zn816   1.948   .     S
O812   Zn815   1.949   .     S
O813   Zn816   1.949   .     S
