data_str_m3_o1_o16_pcu_sym.216
_audit_creation_date              2020-01-03
_audit_creation_method            'Materials Studio'
_symmetry_space_group_name_H-M    'P1'
_symmetry_Int_Tables_number       1
_symmetry_cell_setting            triclinic
loop_
_symmetry_equiv_pos_as_xyz
  x,y,z
_cell_length_a                    30.0000
_cell_length_b                    31.7769
_cell_length_c                    26.2691
_cell_angle_alpha                 89.7295
_cell_angle_beta                  71.9683
_cell_angle_gamma                 89.1895
loop_
_atom_site_label
_atom_site_type_symbol
_atom_site_fract_x
_atom_site_fract_y
_atom_site_fract_z
_atom_site_U_iso_or_equiv
_atom_site_adp_type
_atom_site_occupancy
C1     C     0.16663   0.24630   0.24929   0.00000  Uiso   1.00
C2     C     0.14981   0.15106   0.48739   0.00000  Uiso   1.00
C3     C     0.16403   0.14442   0.43223   0.00000  Uiso   1.00
C4     C     0.18403   0.16400   0.01105   0.00000  Uiso   1.00
C5     C     0.23234   0.16287   0.48023   0.00000  Uiso   1.00
C6     C     0.24583   0.14739   0.42744   0.00000  Uiso   1.00
C7     C     0.21132   0.13387   0.40621   0.00000  Uiso   1.00
C8     C     0.17220   0.17755   0.06431   0.00000  Uiso   1.00
C9     C     0.25431   0.17873   0.05937   0.00000  Uiso   1.00
C10    C     0.12974   0.14323   0.40605   0.00000  Uiso   1.00
C11    C     0.15678   0.31207   0.29641   0.00000  Uiso   1.00
C12    C     0.14182   0.15882   0.35011   0.00000  Uiso   1.00
C13    C     0.15834   0.02183   0.29499   0.00000  Uiso   1.00
C14    C     0.16900   0.04275   0.24633   0.00000  Uiso   1.00
C15    C     0.18129   0.02171   0.19672   0.00000  Uiso   1.00
C16    C     0.17955   0.31100   0.19749   0.00000  Uiso   1.00
C17    C     0.16675   0.29057   0.24768   0.00000  Uiso   1.00
C18    C     0.31797   0.13709   0.22116   0.00000  Uiso   1.00
C19    C     0.03273   0.13793   0.22048   0.00000  Uiso   1.00
C20    C     0.01510   0.19623   0.27843   0.00000  Uiso   1.00
C21    C     0.30100   0.19593   0.27807   0.00000  Uiso   1.00
C22    C     0.16728   0.08695   0.24898   0.00000  Uiso   1.00
C23    C     0.19217   0.17049   0.14862   0.00000  Uiso   1.00
C24    C     0.26639   0.17398   0.00432   0.00000  Uiso   1.00
C25    C     0.20678   0.17648   0.09035   0.00000  Uiso   1.00
C26    C     0.08722   0.12377   0.43341   0.00000  Uiso   1.00
C27    C     0.07385   0.12176   0.49013   0.00000  Uiso   1.00
C28    C     0.10382   0.13866   0.01667   0.00000  Uiso   1.00
H29    H     0.15172   0.03926   0.33185   0.00000  Uiso   1.00
H30    H     0.27614   0.21934   0.30042   0.00000  Uiso   1.00
H31    H     0.30312   0.17596   0.48145   0.00000  Uiso   1.00
H32    H     0.09318   0.13656   0.05981   0.00000  Uiso   1.00
N33    N     0.04760   0.16668   0.25002   0.00000  Uiso   1.00
N34    N     0.28573   0.16665   0.25001   0.00000  Uiso   1.00
O35    O     0.12846   0.22775   0.25001   0.00000  Uiso   1.00
O36    O     0.20490   0.22774   0.25001   0.00000  Uiso   1.00
O37    O     0.10947   0.16666   0.32681   0.00000  Uiso   1.00
O38    O     0.18591   0.16665   0.32681   0.00000  Uiso   1.00
O39    O     0.12843   0.10559   0.25000   0.00000  Uiso   1.00
O40    O     0.20488   0.10558   0.25000   0.00000  Uiso   1.00
O41    O     0.14742   0.16668   0.17319   0.00000  Uiso   1.00
O42    O     0.22387   0.16667   0.17319   0.00000  Uiso   1.00
Zn43   Zn    0.11562   0.16667   0.25000   0.00000  Uiso   1.00
Zn44   Zn    0.21771   0.16666   0.25000   0.00000  Uiso   1.00
C45    C     0.29146   0.18680   0.08222   0.00000  Uiso   1.00
N46    N     0.32125   0.19334   0.10038   0.00000  Uiso   1.00
C47    C     0.19744   0.04554   0.14413   0.00000  Uiso   1.00
H48    H     0.17344   0.03961   0.12027   0.00000  Uiso   1.00
H49    H     0.19856   0.08005   0.14914   0.00000  Uiso   1.00
H50    H     0.23356   0.03516   0.12114   0.00000  Uiso   1.00
C51    C     0.19132   0.28508   0.14643   0.00000  Uiso   1.00
H52    H     0.22202   0.26427   0.14377   0.00000  Uiso   1.00
H53    H     0.16088   0.26538   0.14725   0.00000  Uiso   1.00
H54    H     0.19987   0.30387   0.10911   0.00000  Uiso   1.00
C55    C     0.30224   0.10223   0.19195   0.00000  Uiso   1.00
H56    H     0.33151   0.08584   0.16203   0.00000  Uiso   1.00
H57    H     0.28390   0.07799   0.22107   0.00000  Uiso   1.00
H58    H     0.27980   0.11437   0.16901   0.00000  Uiso   1.00
C59    C     0.06664   0.10874   0.18767   0.00000  Uiso   1.00
N60    N     0.09343   0.08518   0.16095   0.00000  Uiso   1.00
C61    C     0.02878   0.23068   0.30934   0.00000  Uiso   1.00
H62    H     0.04860   0.21800   0.33509   0.00000  Uiso   1.00
H63    H     0.04923   0.25460   0.28137   0.00000  Uiso   1.00
H64    H     0.33087   0.24716   0.33620   0.00000  Uiso   1.00
C65    C     0.29655   0.14036   0.39671   0.00000  Uiso   1.00
H66    H     0.30281   0.12898   0.35521   0.00000  Uiso   1.00
H67    H     0.31637   0.16995   0.39376   0.00000  Uiso   1.00
H68    H     0.30905   0.11607   0.41920   0.00000  Uiso   1.00
C69    C     0.12782   0.19926   0.08905   0.00000  Uiso   1.00
N70    N     0.09257   0.21669   0.10877   0.00000  Uiso   1.00
C71    C     0.06388   0.09775   0.40142   0.00000  Uiso   1.00
H72    H     0.03511   0.07826   0.42651   0.00000  Uiso   1.00
H73    H     0.05130   0.11775   0.37418   0.00000  Uiso   1.00
H74    H     0.08974   0.07537   0.37630   0.00000  Uiso   1.00
C75    C     0.02979   0.10015   0.02269   0.00000  Uiso   1.00
H76    H     0.02250   0.10554   0.06623   0.00000  Uiso   1.00
H77    H     0.33262   0.11215   0.01151   0.00000  Uiso   1.00
H78    H     0.03353   0.06571   0.01547   0.00000  Uiso   1.00
C79    C     0.22285   0.10047   0.36650   0.00000  Uiso   1.00
N80    N     0.23286   0.07342   0.33556   0.00000  Uiso   1.00
C81    C     0.14461   0.28949   0.34970   0.00000  Uiso   1.00
H82    H     0.17416   0.26843   0.35089   0.00000  Uiso   1.00
H83    H     0.13763   0.31183   0.38379   0.00000  Uiso   1.00
H84    H     0.11270   0.27040   0.35535   0.00000  Uiso   1.00
C85    C     0.49996   0.24630   0.24929   0.00000  Uiso   1.00
C86    C     0.48314   0.15106   0.48739   0.00000  Uiso   1.00
C87    C     0.49736   0.14442   0.43223   0.00000  Uiso   1.00
C88    C     0.51736   0.16400   0.01105   0.00000  Uiso   1.00
C89    C     0.56567   0.16287   0.48023   0.00000  Uiso   1.00
C90    C     0.57917   0.14739   0.42744   0.00000  Uiso   1.00
C91    C     0.54465   0.13387   0.40621   0.00000  Uiso   1.00
C92    C     0.50553   0.17755   0.06431   0.00000  Uiso   1.00
C93    C     0.58765   0.17873   0.05937   0.00000  Uiso   1.00
C94    C     0.46307   0.14323   0.40605   0.00000  Uiso   1.00
C95    C     0.49012   0.31207   0.29641   0.00000  Uiso   1.00
C96    C     0.47516   0.15882   0.35011   0.00000  Uiso   1.00
C97    C     0.49167   0.02183   0.29499   0.00000  Uiso   1.00
C98    C     0.50233   0.04275   0.24633   0.00000  Uiso   1.00
C99    C     0.51462   0.02171   0.19672   0.00000  Uiso   1.00
C100   C     0.51288   0.31100   0.19749   0.00000  Uiso   1.00
C101   C     0.50009   0.29057   0.24768   0.00000  Uiso   1.00
C102   C     0.65130   0.13709   0.22116   0.00000  Uiso   1.00
C103   C     0.36606   0.13793   0.22048   0.00000  Uiso   1.00
C104   C     0.34844   0.19623   0.27843   0.00000  Uiso   1.00
C105   C     0.63433   0.19593   0.27807   0.00000  Uiso   1.00
C106   C     0.50061   0.08695   0.24898   0.00000  Uiso   1.00
C107   C     0.52551   0.17049   0.14862   0.00000  Uiso   1.00
C108   C     0.59972   0.17398   0.00432   0.00000  Uiso   1.00
C109   C     0.54011   0.17648   0.09035   0.00000  Uiso   1.00
C110   C     0.42056   0.12377   0.43341   0.00000  Uiso   1.00
C111   C     0.40718   0.12176   0.49013   0.00000  Uiso   1.00
C112   C     0.43715   0.13866   0.01667   0.00000  Uiso   1.00
H113   H     0.48506   0.03926   0.33185   0.00000  Uiso   1.00
H114   H     0.60948   0.21934   0.30042   0.00000  Uiso   1.00
H115   H     0.63645   0.17596   0.48145   0.00000  Uiso   1.00
H116   H     0.42652   0.13656   0.05981   0.00000  Uiso   1.00
N117   N     0.38093   0.16668   0.25002   0.00000  Uiso   1.00
N118   N     0.61906   0.16665   0.25001   0.00000  Uiso   1.00
O119   O     0.46179   0.22775   0.25001   0.00000  Uiso   1.00
O120   O     0.53823   0.22774   0.25001   0.00000  Uiso   1.00
O121   O     0.44280   0.16666   0.32681   0.00000  Uiso   1.00
O122   O     0.51924   0.16665   0.32681   0.00000  Uiso   1.00
O123   O     0.46177   0.10559   0.25000   0.00000  Uiso   1.00
O124   O     0.53821   0.10558   0.25000   0.00000  Uiso   1.00
O125   O     0.48076   0.16668   0.17319   0.00000  Uiso   1.00
O126   O     0.55720   0.16667   0.17319   0.00000  Uiso   1.00
Zn127  Zn    0.44896   0.16667   0.25000   0.00000  Uiso   1.00
Zn128  Zn    0.55104   0.16666   0.25000   0.00000  Uiso   1.00
C129   C     0.62479   0.18680   0.08222   0.00000  Uiso   1.00
N130   N     0.65458   0.19334   0.10038   0.00000  Uiso   1.00
C131   C     0.53077   0.04554   0.14413   0.00000  Uiso   1.00
H132   H     0.50677   0.03961   0.12027   0.00000  Uiso   1.00
H133   H     0.53190   0.08005   0.14914   0.00000  Uiso   1.00
H134   H     0.56689   0.03516   0.12114   0.00000  Uiso   1.00
C135   C     0.52466   0.28508   0.14643   0.00000  Uiso   1.00
H136   H     0.55536   0.26427   0.14377   0.00000  Uiso   1.00
H137   H     0.49422   0.26538   0.14725   0.00000  Uiso   1.00
H138   H     0.53320   0.30387   0.10911   0.00000  Uiso   1.00
C139   C     0.63557   0.10223   0.19195   0.00000  Uiso   1.00
H140   H     0.66484   0.08584   0.16203   0.00000  Uiso   1.00
H141   H     0.61723   0.07799   0.22107   0.00000  Uiso   1.00
H142   H     0.61313   0.11437   0.16901   0.00000  Uiso   1.00
C143   C     0.39997   0.10874   0.18767   0.00000  Uiso   1.00
N144   N     0.42677   0.08518   0.16095   0.00000  Uiso   1.00
C145   C     0.36211   0.23068   0.30934   0.00000  Uiso   1.00
H146   H     0.38193   0.21800   0.33509   0.00000  Uiso   1.00
H147   H     0.38257   0.25460   0.28137   0.00000  Uiso   1.00
H148   H     0.66420   0.24716   0.33620   0.00000  Uiso   1.00
C149   C     0.62989   0.14036   0.39671   0.00000  Uiso   1.00
H150   H     0.63615   0.12898   0.35521   0.00000  Uiso   1.00
H151   H     0.64970   0.16995   0.39376   0.00000  Uiso   1.00
H152   H     0.64239   0.11607   0.41920   0.00000  Uiso   1.00
C153   C     0.46115   0.19926   0.08905   0.00000  Uiso   1.00
N154   N     0.42590   0.21669   0.10877   0.00000  Uiso   1.00
C155   C     0.39721   0.09775   0.40142   0.00000  Uiso   1.00
H156   H     0.36844   0.07826   0.42651   0.00000  Uiso   1.00
H157   H     0.38463   0.11775   0.37418   0.00000  Uiso   1.00
H158   H     0.42307   0.07537   0.37630   0.00000  Uiso   1.00
C159   C     0.36312   0.10015   0.02269   0.00000  Uiso   1.00
H160   H     0.35583   0.10554   0.06623   0.00000  Uiso   1.00
H161   H     0.66595   0.11215   0.01151   0.00000  Uiso   1.00
H162   H     0.36687   0.06571   0.01547   0.00000  Uiso   1.00
C163   C     0.55618   0.10047   0.36650   0.00000  Uiso   1.00
N164   N     0.56619   0.07342   0.33556   0.00000  Uiso   1.00
C165   C     0.47794   0.28949   0.34970   0.00000  Uiso   1.00
H166   H     0.50750   0.26843   0.35089   0.00000  Uiso   1.00
H167   H     0.47096   0.31183   0.38379   0.00000  Uiso   1.00
H168   H     0.44603   0.27040   0.35535   0.00000  Uiso   1.00
C169   C     0.83329   0.24630   0.24929   0.00000  Uiso   1.00
C170   C     0.81647   0.15106   0.48739   0.00000  Uiso   1.00
C171   C     0.83070   0.14442   0.43223   0.00000  Uiso   1.00
C172   C     0.85069   0.16400   0.01105   0.00000  Uiso   1.00
C173   C     0.89901   0.16287   0.48023   0.00000  Uiso   1.00
C174   C     0.91250   0.14739   0.42744   0.00000  Uiso   1.00
C175   C     0.87798   0.13387   0.40621   0.00000  Uiso   1.00
C176   C     0.83887   0.17755   0.06431   0.00000  Uiso   1.00
C177   C     0.92098   0.17873   0.05937   0.00000  Uiso   1.00
C178   C     0.79641   0.14323   0.40605   0.00000  Uiso   1.00
C179   C     0.82345   0.31207   0.29641   0.00000  Uiso   1.00
C180   C     0.80849   0.15882   0.35011   0.00000  Uiso   1.00
C181   C     0.82501   0.02183   0.29499   0.00000  Uiso   1.00
C182   C     0.83567   0.04275   0.24633   0.00000  Uiso   1.00
C183   C     0.84796   0.02171   0.19672   0.00000  Uiso   1.00
C184   C     0.84621   0.31100   0.19749   0.00000  Uiso   1.00
C185   C     0.83342   0.29057   0.24768   0.00000  Uiso   1.00
C186   C     0.98464   0.13709   0.22116   0.00000  Uiso   1.00
C187   C     0.69939   0.13793   0.22048   0.00000  Uiso   1.00
C188   C     0.68177   0.19623   0.27843   0.00000  Uiso   1.00
C189   C     0.96766   0.19593   0.27807   0.00000  Uiso   1.00
C190   C     0.83394   0.08695   0.24898   0.00000  Uiso   1.00
C191   C     0.85884   0.17049   0.14862   0.00000  Uiso   1.00
C192   C     0.93306   0.17398   0.00432   0.00000  Uiso   1.00
C193   C     0.87345   0.17648   0.09035   0.00000  Uiso   1.00
C194   C     0.75389   0.12377   0.43341   0.00000  Uiso   1.00
C195   C     0.74052   0.12176   0.49013   0.00000  Uiso   1.00
C196   C     0.77048   0.13866   0.01667   0.00000  Uiso   1.00
H197   H     0.81839   0.03926   0.33185   0.00000  Uiso   1.00
H198   H     0.94281   0.21934   0.30042   0.00000  Uiso   1.00
H199   H     0.96978   0.17596   0.48145   0.00000  Uiso   1.00
H200   H     0.75985   0.13656   0.05981   0.00000  Uiso   1.00
N201   N     0.71426   0.16668   0.25002   0.00000  Uiso   1.00
N202   N     0.95239   0.16665   0.25001   0.00000  Uiso   1.00
O203   O     0.79512   0.22775   0.25001   0.00000  Uiso   1.00
O204   O     0.87157   0.22774   0.25001   0.00000  Uiso   1.00
O205   O     0.77613   0.16666   0.32681   0.00000  Uiso   1.00
O206   O     0.85258   0.16665   0.32681   0.00000  Uiso   1.00
O207   O     0.79510   0.10559   0.25000   0.00000  Uiso   1.00
O208   O     0.87154   0.10558   0.25000   0.00000  Uiso   1.00
O209   O     0.81409   0.16668   0.17319   0.00000  Uiso   1.00
O210   O     0.89053   0.16667   0.17319   0.00000  Uiso   1.00
Zn211  Zn    0.78229   0.16667   0.25000   0.00000  Uiso   1.00
Zn212  Zn    0.88438   0.16666   0.25000   0.00000  Uiso   1.00
C213   C     0.95812   0.18680   0.08222   0.00000  Uiso   1.00
N214   N     0.98791   0.19334   0.10038   0.00000  Uiso   1.00
C215   C     0.86411   0.04554   0.14413   0.00000  Uiso   1.00
H216   H     0.84011   0.03961   0.12027   0.00000  Uiso   1.00
H217   H     0.86523   0.08005   0.14914   0.00000  Uiso   1.00
H218   H     0.90022   0.03516   0.12114   0.00000  Uiso   1.00
C219   C     0.85799   0.28508   0.14643   0.00000  Uiso   1.00
H220   H     0.88869   0.26427   0.14377   0.00000  Uiso   1.00
H221   H     0.82755   0.26538   0.14725   0.00000  Uiso   1.00
H222   H     0.86653   0.30387   0.10911   0.00000  Uiso   1.00
C223   C     0.96891   0.10223   0.19195   0.00000  Uiso   1.00
H224   H     0.99817   0.08584   0.16203   0.00000  Uiso   1.00
H225   H     0.95056   0.07799   0.22107   0.00000  Uiso   1.00
H226   H     0.94647   0.11437   0.16901   0.00000  Uiso   1.00
C227   C     0.73331   0.10874   0.18767   0.00000  Uiso   1.00
N228   N     0.76010   0.08518   0.16095   0.00000  Uiso   1.00
C229   C     0.69544   0.23068   0.30934   0.00000  Uiso   1.00
H230   H     0.71526   0.21800   0.33509   0.00000  Uiso   1.00
H231   H     0.71590   0.25460   0.28137   0.00000  Uiso   1.00
H232   H     0.99753   0.24716   0.33620   0.00000  Uiso   1.00
C233   C     0.96322   0.14036   0.39671   0.00000  Uiso   1.00
H234   H     0.96948   0.12898   0.35521   0.00000  Uiso   1.00
H235   H     0.98303   0.16995   0.39376   0.00000  Uiso   1.00
H236   H     0.97572   0.11607   0.41920   0.00000  Uiso   1.00
C237   C     0.79448   0.19926   0.08905   0.00000  Uiso   1.00
N238   N     0.75923   0.21669   0.10877   0.00000  Uiso   1.00
C239   C     0.73055   0.09775   0.40142   0.00000  Uiso   1.00
H240   H     0.70178   0.07826   0.42651   0.00000  Uiso   1.00
H241   H     0.71796   0.11775   0.37418   0.00000  Uiso   1.00
H242   H     0.75640   0.07537   0.37630   0.00000  Uiso   1.00
C243   C     0.69645   0.10015   0.02269   0.00000  Uiso   1.00
H244   H     0.68917   0.10554   0.06623   0.00000  Uiso   1.00
H245   H     0.99929   0.11215   0.01151   0.00000  Uiso   1.00
H246   H     0.70020   0.06571   0.01547   0.00000  Uiso   1.00
C247   C     0.88952   0.10047   0.36650   0.00000  Uiso   1.00
N248   N     0.89952   0.07342   0.33556   0.00000  Uiso   1.00
C249   C     0.81128   0.28949   0.34970   0.00000  Uiso   1.00
H250   H     0.84083   0.26843   0.35089   0.00000  Uiso   1.00
H251   H     0.80429   0.31183   0.38379   0.00000  Uiso   1.00
H252   H     0.77936   0.27040   0.35535   0.00000  Uiso   1.00
C253   C     0.16663   0.57964   0.24929   0.00000  Uiso   1.00
C254   C     0.14981   0.48439   0.48739   0.00000  Uiso   1.00
C255   C     0.16403   0.47775   0.43223   0.00000  Uiso   1.00
C256   C     0.18403   0.49734   0.01105   0.00000  Uiso   1.00
C257   C     0.23234   0.49620   0.48023   0.00000  Uiso   1.00
C258   C     0.24583   0.48072   0.42744   0.00000  Uiso   1.00
C259   C     0.21132   0.46720   0.40621   0.00000  Uiso   1.00
C260   C     0.17220   0.51088   0.06431   0.00000  Uiso   1.00
C261   C     0.25431   0.51206   0.05937   0.00000  Uiso   1.00
C262   C     0.12974   0.47656   0.40605   0.00000  Uiso   1.00
C263   C     0.15678   0.64540   0.29641   0.00000  Uiso   1.00
C264   C     0.14182   0.49215   0.35011   0.00000  Uiso   1.00
C265   C     0.15834   0.35516   0.29499   0.00000  Uiso   1.00
C266   C     0.16900   0.37608   0.24633   0.00000  Uiso   1.00
C267   C     0.18129   0.35505   0.19672   0.00000  Uiso   1.00
C268   C     0.17955   0.64433   0.19749   0.00000  Uiso   1.00
C269   C     0.16675   0.62390   0.24768   0.00000  Uiso   1.00
C270   C     0.31797   0.47043   0.22116   0.00000  Uiso   1.00
C271   C     0.03273   0.47127   0.22048   0.00000  Uiso   1.00
C272   C     0.01510   0.52956   0.27843   0.00000  Uiso   1.00
C273   C     0.30100   0.52926   0.27807   0.00000  Uiso   1.00
C274   C     0.16728   0.42028   0.24898   0.00000  Uiso   1.00
C275   C     0.19217   0.50382   0.14862   0.00000  Uiso   1.00
C276   C     0.26639   0.50731   0.00432   0.00000  Uiso   1.00
C277   C     0.20678   0.50981   0.09035   0.00000  Uiso   1.00
C278   C     0.08722   0.45711   0.43341   0.00000  Uiso   1.00
C279   C     0.07385   0.45509   0.49013   0.00000  Uiso   1.00
C280   C     0.10382   0.47199   0.01667   0.00000  Uiso   1.00
H281   H     0.15172   0.37259   0.33185   0.00000  Uiso   1.00
H282   H     0.27614   0.55268   0.30042   0.00000  Uiso   1.00
H283   H     0.30312   0.50929   0.48145   0.00000  Uiso   1.00
H284   H     0.09318   0.46989   0.05981   0.00000  Uiso   1.00
N285   N     0.04760   0.50001   0.25002   0.00000  Uiso   1.00
N286   N     0.28573   0.49998   0.25001   0.00000  Uiso   1.00
O287   O     0.12846   0.56108   0.25001   0.00000  Uiso   1.00
O288   O     0.20490   0.56107   0.25001   0.00000  Uiso   1.00
O289   O     0.10947   0.50000   0.32681   0.00000  Uiso   1.00
O290   O     0.18591   0.49999   0.32681   0.00000  Uiso   1.00
O291   O     0.12843   0.43893   0.25000   0.00000  Uiso   1.00
O292   O     0.20488   0.43892   0.25000   0.00000  Uiso   1.00
O293   O     0.14742   0.50001   0.17319   0.00000  Uiso   1.00
O294   O     0.22387   0.50000   0.17319   0.00000  Uiso   1.00
Zn295  Zn    0.11562   0.50001   0.25000   0.00000  Uiso   1.00
Zn296  Zn    0.21771   0.49999   0.25000   0.00000  Uiso   1.00
C297   C     0.29146   0.52013   0.08222   0.00000  Uiso   1.00
N298   N     0.32125   0.52667   0.10038   0.00000  Uiso   1.00
C299   C     0.19744   0.37888   0.14413   0.00000  Uiso   1.00
H300   H     0.17344   0.37294   0.12027   0.00000  Uiso   1.00
H301   H     0.19856   0.41338   0.14914   0.00000  Uiso   1.00
H302   H     0.23356   0.36849   0.12114   0.00000  Uiso   1.00
C303   C     0.19132   0.61841   0.14643   0.00000  Uiso   1.00
H304   H     0.22202   0.59760   0.14377   0.00000  Uiso   1.00
H305   H     0.16088   0.59872   0.14725   0.00000  Uiso   1.00
H306   H     0.19987   0.63720   0.10911   0.00000  Uiso   1.00
C307   C     0.30224   0.43556   0.19195   0.00000  Uiso   1.00
H308   H     0.33151   0.41917   0.16203   0.00000  Uiso   1.00
H309   H     0.28390   0.41133   0.22107   0.00000  Uiso   1.00
H310   H     0.27980   0.44771   0.16901   0.00000  Uiso   1.00
C311   C     0.06664   0.44207   0.18767   0.00000  Uiso   1.00
N312   N     0.09343   0.41852   0.16095   0.00000  Uiso   1.00
C313   C     0.02878   0.56401   0.30934   0.00000  Uiso   1.00
H314   H     0.04860   0.55133   0.33509   0.00000  Uiso   1.00
H315   H     0.04923   0.58794   0.28137   0.00000  Uiso   1.00
H316   H     0.33087   0.58049   0.33620   0.00000  Uiso   1.00
C317   C     0.29655   0.47369   0.39671   0.00000  Uiso   1.00
H318   H     0.30281   0.46231   0.35521   0.00000  Uiso   1.00
H319   H     0.31637   0.50328   0.39376   0.00000  Uiso   1.00
H320   H     0.30905   0.44941   0.41920   0.00000  Uiso   1.00
C321   C     0.12782   0.53259   0.08905   0.00000  Uiso   1.00
N322   N     0.09257   0.55003   0.10877   0.00000  Uiso   1.00
C323   C     0.06388   0.43108   0.40142   0.00000  Uiso   1.00
H324   H     0.03511   0.41159   0.42651   0.00000  Uiso   1.00
H325   H     0.05130   0.45108   0.37418   0.00000  Uiso   1.00
H326   H     0.08974   0.40871   0.37630   0.00000  Uiso   1.00
C327   C     0.02979   0.43348   0.02269   0.00000  Uiso   1.00
H328   H     0.02250   0.43887   0.06623   0.00000  Uiso   1.00
H329   H     0.33262   0.44549   0.01151   0.00000  Uiso   1.00
H330   H     0.03353   0.39904   0.01547   0.00000  Uiso   1.00
C331   C     0.22285   0.43381   0.36650   0.00000  Uiso   1.00
N332   N     0.23286   0.40675   0.33556   0.00000  Uiso   1.00
C333   C     0.14461   0.62282   0.34970   0.00000  Uiso   1.00
H334   H     0.17416   0.60176   0.35089   0.00000  Uiso   1.00
H335   H     0.13763   0.64517   0.38379   0.00000  Uiso   1.00
H336   H     0.11270   0.60374   0.35535   0.00000  Uiso   1.00
C337   C     0.49996   0.57964   0.24929   0.00000  Uiso   1.00
C338   C     0.48314   0.48439   0.48739   0.00000  Uiso   1.00
C339   C     0.49736   0.47775   0.43223   0.00000  Uiso   1.00
C340   C     0.51736   0.49734   0.01105   0.00000  Uiso   1.00
C341   C     0.56567   0.49620   0.48023   0.00000  Uiso   1.00
C342   C     0.57917   0.48072   0.42744   0.00000  Uiso   1.00
C343   C     0.54465   0.46720   0.40621   0.00000  Uiso   1.00
C344   C     0.50553   0.51088   0.06431   0.00000  Uiso   1.00
C345   C     0.58765   0.51206   0.05937   0.00000  Uiso   1.00
C346   C     0.46307   0.47656   0.40605   0.00000  Uiso   1.00
C347   C     0.49012   0.64540   0.29641   0.00000  Uiso   1.00
C348   C     0.47516   0.49215   0.35011   0.00000  Uiso   1.00
C349   C     0.49167   0.35516   0.29499   0.00000  Uiso   1.00
C350   C     0.50233   0.37608   0.24633   0.00000  Uiso   1.00
C351   C     0.51462   0.35505   0.19672   0.00000  Uiso   1.00
C352   C     0.51288   0.64433   0.19749   0.00000  Uiso   1.00
C353   C     0.50009   0.62390   0.24768   0.00000  Uiso   1.00
C354   C     0.65130   0.47043   0.22116   0.00000  Uiso   1.00
C355   C     0.36606   0.47127   0.22048   0.00000  Uiso   1.00
C356   C     0.34844   0.52956   0.27843   0.00000  Uiso   1.00
C357   C     0.63433   0.52926   0.27807   0.00000  Uiso   1.00
C358   C     0.50061   0.42028   0.24898   0.00000  Uiso   1.00
C359   C     0.52551   0.50382   0.14862   0.00000  Uiso   1.00
C360   C     0.59972   0.50731   0.00432   0.00000  Uiso   1.00
C361   C     0.54011   0.50981   0.09035   0.00000  Uiso   1.00
C362   C     0.42056   0.45711   0.43341   0.00000  Uiso   1.00
C363   C     0.40718   0.45509   0.49013   0.00000  Uiso   1.00
C364   C     0.43715   0.47199   0.01667   0.00000  Uiso   1.00
H365   H     0.48506   0.37259   0.33185   0.00000  Uiso   1.00
H366   H     0.60948   0.55268   0.30042   0.00000  Uiso   1.00
H367   H     0.63645   0.50929   0.48145   0.00000  Uiso   1.00
H368   H     0.42652   0.46989   0.05981   0.00000  Uiso   1.00
N369   N     0.38093   0.50001   0.25002   0.00000  Uiso   1.00
N370   N     0.61906   0.49998   0.25001   0.00000  Uiso   1.00
O371   O     0.46179   0.56108   0.25001   0.00000  Uiso   1.00
O372   O     0.53823   0.56107   0.25001   0.00000  Uiso   1.00
O373   O     0.44280   0.50000   0.32681   0.00000  Uiso   1.00
O374   O     0.51924   0.49999   0.32681   0.00000  Uiso   1.00
O375   O     0.46177   0.43893   0.25000   0.00000  Uiso   1.00
O376   O     0.53821   0.43892   0.25000   0.00000  Uiso   1.00
O377   O     0.48076   0.50001   0.17319   0.00000  Uiso   1.00
O378   O     0.55720   0.50000   0.17319   0.00000  Uiso   1.00
Zn379  Zn    0.44896   0.50001   0.25000   0.00000  Uiso   1.00
Zn380  Zn    0.55104   0.49999   0.25000   0.00000  Uiso   1.00
C381   C     0.62479   0.52013   0.08222   0.00000  Uiso   1.00
N382   N     0.65458   0.52667   0.10038   0.00000  Uiso   1.00
C383   C     0.53077   0.37888   0.14413   0.00000  Uiso   1.00
H384   H     0.50677   0.37294   0.12027   0.00000  Uiso   1.00
H385   H     0.53190   0.41338   0.14914   0.00000  Uiso   1.00
H386   H     0.56689   0.36849   0.12114   0.00000  Uiso   1.00
C387   C     0.52466   0.61841   0.14643   0.00000  Uiso   1.00
H388   H     0.55536   0.59760   0.14377   0.00000  Uiso   1.00
H389   H     0.49422   0.59872   0.14725   0.00000  Uiso   1.00
H390   H     0.53320   0.63720   0.10911   0.00000  Uiso   1.00
C391   C     0.63557   0.43556   0.19195   0.00000  Uiso   1.00
H392   H     0.66484   0.41917   0.16203   0.00000  Uiso   1.00
H393   H     0.61723   0.41133   0.22107   0.00000  Uiso   1.00
H394   H     0.61313   0.44771   0.16901   0.00000  Uiso   1.00
C395   C     0.39997   0.44207   0.18767   0.00000  Uiso   1.00
N396   N     0.42677   0.41852   0.16095   0.00000  Uiso   1.00
C397   C     0.36211   0.56401   0.30934   0.00000  Uiso   1.00
H398   H     0.38193   0.55133   0.33509   0.00000  Uiso   1.00
H399   H     0.38257   0.58794   0.28137   0.00000  Uiso   1.00
H400   H     0.66420   0.58049   0.33620   0.00000  Uiso   1.00
C401   C     0.62989   0.47369   0.39671   0.00000  Uiso   1.00
H402   H     0.63615   0.46231   0.35521   0.00000  Uiso   1.00
H403   H     0.64970   0.50328   0.39376   0.00000  Uiso   1.00
H404   H     0.64239   0.44941   0.41920   0.00000  Uiso   1.00
C405   C     0.46115   0.53259   0.08905   0.00000  Uiso   1.00
N406   N     0.42590   0.55003   0.10877   0.00000  Uiso   1.00
C407   C     0.39721   0.43108   0.40142   0.00000  Uiso   1.00
H408   H     0.36844   0.41159   0.42651   0.00000  Uiso   1.00
H409   H     0.38463   0.45108   0.37418   0.00000  Uiso   1.00
H410   H     0.42307   0.40871   0.37630   0.00000  Uiso   1.00
C411   C     0.36312   0.43348   0.02269   0.00000  Uiso   1.00
H412   H     0.35583   0.43887   0.06623   0.00000  Uiso   1.00
H413   H     0.66595   0.44549   0.01151   0.00000  Uiso   1.00
H414   H     0.36687   0.39904   0.01547   0.00000  Uiso   1.00
C415   C     0.55618   0.43381   0.36650   0.00000  Uiso   1.00
N416   N     0.56619   0.40675   0.33556   0.00000  Uiso   1.00
C417   C     0.47794   0.62282   0.34970   0.00000  Uiso   1.00
H418   H     0.50750   0.60176   0.35089   0.00000  Uiso   1.00
H419   H     0.47096   0.64517   0.38379   0.00000  Uiso   1.00
H420   H     0.44603   0.60374   0.35535   0.00000  Uiso   1.00
C421   C     0.83329   0.57964   0.24929   0.00000  Uiso   1.00
C422   C     0.81647   0.48439   0.48739   0.00000  Uiso   1.00
C423   C     0.83070   0.47775   0.43223   0.00000  Uiso   1.00
C424   C     0.85069   0.49734   0.01105   0.00000  Uiso   1.00
C425   C     0.89901   0.49620   0.48023   0.00000  Uiso   1.00
C426   C     0.91250   0.48072   0.42744   0.00000  Uiso   1.00
C427   C     0.87798   0.46720   0.40621   0.00000  Uiso   1.00
C428   C     0.83887   0.51088   0.06431   0.00000  Uiso   1.00
C429   C     0.92098   0.51206   0.05937   0.00000  Uiso   1.00
C430   C     0.79641   0.47656   0.40605   0.00000  Uiso   1.00
C431   C     0.82345   0.64540   0.29641   0.00000  Uiso   1.00
C432   C     0.80849   0.49215   0.35011   0.00000  Uiso   1.00
C433   C     0.82501   0.35516   0.29499   0.00000  Uiso   1.00
C434   C     0.83567   0.37608   0.24633   0.00000  Uiso   1.00
C435   C     0.84796   0.35505   0.19672   0.00000  Uiso   1.00
C436   C     0.84621   0.64433   0.19749   0.00000  Uiso   1.00
C437   C     0.83342   0.62390   0.24768   0.00000  Uiso   1.00
C438   C     0.98464   0.47043   0.22116   0.00000  Uiso   1.00
C439   C     0.69939   0.47127   0.22048   0.00000  Uiso   1.00
C440   C     0.68177   0.52956   0.27843   0.00000  Uiso   1.00
C441   C     0.96766   0.52926   0.27807   0.00000  Uiso   1.00
C442   C     0.83394   0.42028   0.24898   0.00000  Uiso   1.00
C443   C     0.85884   0.50382   0.14862   0.00000  Uiso   1.00
C444   C     0.93306   0.50731   0.00432   0.00000  Uiso   1.00
C445   C     0.87345   0.50981   0.09035   0.00000  Uiso   1.00
C446   C     0.75389   0.45711   0.43341   0.00000  Uiso   1.00
C447   C     0.74052   0.45509   0.49013   0.00000  Uiso   1.00
C448   C     0.77048   0.47199   0.01667   0.00000  Uiso   1.00
H449   H     0.81839   0.37259   0.33185   0.00000  Uiso   1.00
H450   H     0.94281   0.55268   0.30042   0.00000  Uiso   1.00
H451   H     0.96978   0.50929   0.48145   0.00000  Uiso   1.00
H452   H     0.75985   0.46989   0.05981   0.00000  Uiso   1.00
N453   N     0.71426   0.50001   0.25002   0.00000  Uiso   1.00
N454   N     0.95239   0.49998   0.25001   0.00000  Uiso   1.00
O455   O     0.79512   0.56108   0.25001   0.00000  Uiso   1.00
O456   O     0.87157   0.56107   0.25001   0.00000  Uiso   1.00
O457   O     0.77613   0.50000   0.32681   0.00000  Uiso   1.00
O458   O     0.85258   0.49999   0.32681   0.00000  Uiso   1.00
O459   O     0.79510   0.43893   0.25000   0.00000  Uiso   1.00
O460   O     0.87154   0.43892   0.25000   0.00000  Uiso   1.00
O461   O     0.81409   0.50001   0.17319   0.00000  Uiso   1.00
O462   O     0.89053   0.50000   0.17319   0.00000  Uiso   1.00
Zn463  Zn    0.78229   0.50001   0.25000   0.00000  Uiso   1.00
Zn464  Zn    0.88438   0.49999   0.25000   0.00000  Uiso   1.00
C465   C     0.95812   0.52013   0.08222   0.00000  Uiso   1.00
N466   N     0.98791   0.52667   0.10038   0.00000  Uiso   1.00
C467   C     0.86411   0.37888   0.14413   0.00000  Uiso   1.00
H468   H     0.84011   0.37294   0.12027   0.00000  Uiso   1.00
H469   H     0.86523   0.41338   0.14914   0.00000  Uiso   1.00
H470   H     0.90022   0.36849   0.12114   0.00000  Uiso   1.00
C471   C     0.85799   0.61841   0.14643   0.00000  Uiso   1.00
H472   H     0.88869   0.59760   0.14377   0.00000  Uiso   1.00
H473   H     0.82755   0.59872   0.14725   0.00000  Uiso   1.00
H474   H     0.86653   0.63720   0.10911   0.00000  Uiso   1.00
C475   C     0.96891   0.43556   0.19195   0.00000  Uiso   1.00
H476   H     0.99817   0.41917   0.16203   0.00000  Uiso   1.00
H477   H     0.95056   0.41133   0.22107   0.00000  Uiso   1.00
H478   H     0.94647   0.44771   0.16901   0.00000  Uiso   1.00
C479   C     0.73331   0.44207   0.18767   0.00000  Uiso   1.00
N480   N     0.76010   0.41852   0.16095   0.00000  Uiso   1.00
C481   C     0.69544   0.56401   0.30934   0.00000  Uiso   1.00
H482   H     0.71526   0.55133   0.33509   0.00000  Uiso   1.00
H483   H     0.71590   0.58794   0.28137   0.00000  Uiso   1.00
H484   H     0.99753   0.58049   0.33620   0.00000  Uiso   1.00
C485   C     0.96322   0.47369   0.39671   0.00000  Uiso   1.00
H486   H     0.96948   0.46231   0.35521   0.00000  Uiso   1.00
H487   H     0.98303   0.50328   0.39376   0.00000  Uiso   1.00
H488   H     0.97572   0.44941   0.41920   0.00000  Uiso   1.00
C489   C     0.79448   0.53259   0.08905   0.00000  Uiso   1.00
N490   N     0.75923   0.55003   0.10877   0.00000  Uiso   1.00
C491   C     0.73055   0.43108   0.40142   0.00000  Uiso   1.00
H492   H     0.70178   0.41159   0.42651   0.00000  Uiso   1.00
H493   H     0.71796   0.45108   0.37418   0.00000  Uiso   1.00
H494   H     0.75640   0.40871   0.37630   0.00000  Uiso   1.00
C495   C     0.69645   0.43348   0.02269   0.00000  Uiso   1.00
H496   H     0.68917   0.43887   0.06623   0.00000  Uiso   1.00
H497   H     0.99929   0.44549   0.01151   0.00000  Uiso   1.00
H498   H     0.70020   0.39904   0.01547   0.00000  Uiso   1.00
C499   C     0.88952   0.43381   0.36650   0.00000  Uiso   1.00
N500   N     0.89952   0.40675   0.33556   0.00000  Uiso   1.00
C501   C     0.81128   0.62282   0.34970   0.00000  Uiso   1.00
H502   H     0.84083   0.60176   0.35089   0.00000  Uiso   1.00
H503   H     0.80429   0.64517   0.38379   0.00000  Uiso   1.00
H504   H     0.77936   0.60374   0.35535   0.00000  Uiso   1.00
C505   C     0.16663   0.91297   0.24929   0.00000  Uiso   1.00
C506   C     0.14981   0.81772   0.48739   0.00000  Uiso   1.00
C507   C     0.16403   0.81109   0.43223   0.00000  Uiso   1.00
C508   C     0.18403   0.83067   0.01105   0.00000  Uiso   1.00
C509   C     0.23234   0.82953   0.48023   0.00000  Uiso   1.00
C510   C     0.24583   0.81406   0.42744   0.00000  Uiso   1.00
C511   C     0.21132   0.80053   0.40621   0.00000  Uiso   1.00
C512   C     0.17220   0.84422   0.06431   0.00000  Uiso   1.00
C513   C     0.25431   0.84540   0.05937   0.00000  Uiso   1.00
C514   C     0.12974   0.80990   0.40605   0.00000  Uiso   1.00
C515   C     0.15678   0.97874   0.29641   0.00000  Uiso   1.00
C516   C     0.14182   0.82549   0.35011   0.00000  Uiso   1.00
C517   C     0.15834   0.68849   0.29499   0.00000  Uiso   1.00
C518   C     0.16900   0.70941   0.24633   0.00000  Uiso   1.00
C519   C     0.18129   0.68838   0.19672   0.00000  Uiso   1.00
C520   C     0.17955   0.97766   0.19749   0.00000  Uiso   1.00
C521   C     0.16675   0.95723   0.24768   0.00000  Uiso   1.00
C522   C     0.31797   0.80376   0.22116   0.00000  Uiso   1.00
C523   C     0.03273   0.80460   0.22048   0.00000  Uiso   1.00
C524   C     0.01510   0.86289   0.27843   0.00000  Uiso   1.00
C525   C     0.30100   0.86259   0.27807   0.00000  Uiso   1.00
C526   C     0.16728   0.75362   0.24898   0.00000  Uiso   1.00
C527   C     0.19217   0.83716   0.14862   0.00000  Uiso   1.00
C528   C     0.26639   0.84065   0.00432   0.00000  Uiso   1.00
C529   C     0.20678   0.84314   0.09035   0.00000  Uiso   1.00
C530   C     0.08722   0.79044   0.43341   0.00000  Uiso   1.00
C531   C     0.07385   0.78842   0.49013   0.00000  Uiso   1.00
C532   C     0.10382   0.80532   0.01667   0.00000  Uiso   1.00
H533   H     0.15172   0.70592   0.33185   0.00000  Uiso   1.00
H534   H     0.27614   0.88601   0.30042   0.00000  Uiso   1.00
H535   H     0.30312   0.84262   0.48145   0.00000  Uiso   1.00
H536   H     0.09318   0.80323   0.05981   0.00000  Uiso   1.00
N537   N     0.04760   0.83334   0.25002   0.00000  Uiso   1.00
N538   N     0.28573   0.83331   0.25001   0.00000  Uiso   1.00
O539   O     0.12846   0.89442   0.25001   0.00000  Uiso   1.00
O540   O     0.20490   0.89441   0.25001   0.00000  Uiso   1.00
O541   O     0.10947   0.83333   0.32681   0.00000  Uiso   1.00
O542   O     0.18591   0.83332   0.32681   0.00000  Uiso   1.00
O543   O     0.12843   0.77226   0.25000   0.00000  Uiso   1.00
O544   O     0.20488   0.77225   0.25000   0.00000  Uiso   1.00
O545   O     0.14742   0.83335   0.17319   0.00000  Uiso   1.00
O546   O     0.22387   0.83334   0.17319   0.00000  Uiso   1.00
Zn547  Zn    0.11562   0.83334   0.25000   0.00000  Uiso   1.00
Zn548  Zn    0.21771   0.83333   0.25000   0.00000  Uiso   1.00
C549   C     0.29146   0.85347   0.08222   0.00000  Uiso   1.00
N550   N     0.32125   0.86001   0.10038   0.00000  Uiso   1.00
C551   C     0.19744   0.71221   0.14413   0.00000  Uiso   1.00
H552   H     0.17344   0.70628   0.12027   0.00000  Uiso   1.00
H553   H     0.19856   0.74671   0.14914   0.00000  Uiso   1.00
H554   H     0.23356   0.70182   0.12114   0.00000  Uiso   1.00
C555   C     0.19132   0.95174   0.14643   0.00000  Uiso   1.00
H556   H     0.22202   0.93093   0.14377   0.00000  Uiso   1.00
H557   H     0.16088   0.93205   0.14725   0.00000  Uiso   1.00
H558   H     0.19987   0.97054   0.10911   0.00000  Uiso   1.00
C559   C     0.30224   0.76890   0.19195   0.00000  Uiso   1.00
H560   H     0.33151   0.75250   0.16203   0.00000  Uiso   1.00
H561   H     0.28390   0.74466   0.22107   0.00000  Uiso   1.00
H562   H     0.27980   0.78104   0.16901   0.00000  Uiso   1.00
C563   C     0.06664   0.77541   0.18767   0.00000  Uiso   1.00
N564   N     0.09343   0.75185   0.16095   0.00000  Uiso   1.00
C565   C     0.02878   0.89735   0.30934   0.00000  Uiso   1.00
H566   H     0.04860   0.88466   0.33509   0.00000  Uiso   1.00
H567   H     0.04923   0.92127   0.28137   0.00000  Uiso   1.00
H568   H     0.33087   0.91383   0.33620   0.00000  Uiso   1.00
C569   C     0.29655   0.80702   0.39671   0.00000  Uiso   1.00
H570   H     0.30281   0.79564   0.35521   0.00000  Uiso   1.00
H571   H     0.31637   0.83661   0.39376   0.00000  Uiso   1.00
H572   H     0.30905   0.78274   0.41920   0.00000  Uiso   1.00
C573   C     0.12782   0.86593   0.08905   0.00000  Uiso   1.00
N574   N     0.09257   0.88336   0.10877   0.00000  Uiso   1.00
C575   C     0.06388   0.76442   0.40142   0.00000  Uiso   1.00
H576   H     0.03511   0.74493   0.42651   0.00000  Uiso   1.00
H577   H     0.05130   0.78442   0.37418   0.00000  Uiso   1.00
H578   H     0.08974   0.74204   0.37630   0.00000  Uiso   1.00
C579   C     0.02979   0.76681   0.02269   0.00000  Uiso   1.00
H580   H     0.02250   0.77221   0.06623   0.00000  Uiso   1.00
H581   H     0.33262   0.77882   0.01151   0.00000  Uiso   1.00
H582   H     0.03353   0.73237   0.01547   0.00000  Uiso   1.00
C583   C     0.22285   0.76714   0.36650   0.00000  Uiso   1.00
N584   N     0.23286   0.74009   0.33556   0.00000  Uiso   1.00
C585   C     0.14461   0.95616   0.34970   0.00000  Uiso   1.00
H586   H     0.17416   0.93510   0.35089   0.00000  Uiso   1.00
H587   H     0.13763   0.97850   0.38379   0.00000  Uiso   1.00
H588   H     0.11270   0.93707   0.35535   0.00000  Uiso   1.00
C589   C     0.49996   0.91297   0.24929   0.00000  Uiso   1.00
C590   C     0.48314   0.81772   0.48739   0.00000  Uiso   1.00
C591   C     0.49736   0.81109   0.43223   0.00000  Uiso   1.00
C592   C     0.51736   0.83067   0.01105   0.00000  Uiso   1.00
C593   C     0.56567   0.82953   0.48023   0.00000  Uiso   1.00
C594   C     0.57917   0.81406   0.42744   0.00000  Uiso   1.00
C595   C     0.54465   0.80053   0.40621   0.00000  Uiso   1.00
C596   C     0.50553   0.84422   0.06431   0.00000  Uiso   1.00
C597   C     0.58765   0.84540   0.05937   0.00000  Uiso   1.00
C598   C     0.46307   0.80990   0.40605   0.00000  Uiso   1.00
C599   C     0.49012   0.97874   0.29641   0.00000  Uiso   1.00
C600   C     0.47516   0.82549   0.35011   0.00000  Uiso   1.00
C601   C     0.49167   0.68849   0.29499   0.00000  Uiso   1.00
C602   C     0.50233   0.70941   0.24633   0.00000  Uiso   1.00
C603   C     0.51462   0.68838   0.19672   0.00000  Uiso   1.00
C604   C     0.51288   0.97766   0.19749   0.00000  Uiso   1.00
C605   C     0.50009   0.95723   0.24768   0.00000  Uiso   1.00
C606   C     0.65130   0.80376   0.22116   0.00000  Uiso   1.00
C607   C     0.36606   0.80460   0.22048   0.00000  Uiso   1.00
C608   C     0.34844   0.86289   0.27843   0.00000  Uiso   1.00
C609   C     0.63433   0.86259   0.27807   0.00000  Uiso   1.00
C610   C     0.50061   0.75362   0.24898   0.00000  Uiso   1.00
C611   C     0.52551   0.83716   0.14862   0.00000  Uiso   1.00
C612   C     0.59972   0.84065   0.00432   0.00000  Uiso   1.00
C613   C     0.54011   0.84314   0.09035   0.00000  Uiso   1.00
C614   C     0.42056   0.79044   0.43341   0.00000  Uiso   1.00
C615   C     0.40718   0.78842   0.49013   0.00000  Uiso   1.00
C616   C     0.43715   0.80532   0.01667   0.00000  Uiso   1.00
H617   H     0.48506   0.70592   0.33185   0.00000  Uiso   1.00
H618   H     0.60948   0.88601   0.30042   0.00000  Uiso   1.00
H619   H     0.63645   0.84262   0.48145   0.00000  Uiso   1.00
H620   H     0.42652   0.80323   0.05981   0.00000  Uiso   1.00
N621   N     0.38093   0.83334   0.25002   0.00000  Uiso   1.00
N622   N     0.61906   0.83331   0.25001   0.00000  Uiso   1.00
O623   O     0.46179   0.89442   0.25001   0.00000  Uiso   1.00
O624   O     0.53823   0.89441   0.25001   0.00000  Uiso   1.00
O625   O     0.44280   0.83333   0.32681   0.00000  Uiso   1.00
O626   O     0.51924   0.83332   0.32681   0.00000  Uiso   1.00
O627   O     0.46177   0.77226   0.25000   0.00000  Uiso   1.00
O628   O     0.53821   0.77225   0.25000   0.00000  Uiso   1.00
O629   O     0.48076   0.83335   0.17319   0.00000  Uiso   1.00
O630   O     0.55720   0.83334   0.17319   0.00000  Uiso   1.00
Zn631  Zn    0.44896   0.83334   0.25000   0.00000  Uiso   1.00
Zn632  Zn    0.55104   0.83333   0.25000   0.00000  Uiso   1.00
C633   C     0.62479   0.85347   0.08222   0.00000  Uiso   1.00
N634   N     0.65458   0.86001   0.10038   0.00000  Uiso   1.00
C635   C     0.53077   0.71221   0.14413   0.00000  Uiso   1.00
H636   H     0.50677   0.70628   0.12027   0.00000  Uiso   1.00
H637   H     0.53190   0.74671   0.14914   0.00000  Uiso   1.00
H638   H     0.56689   0.70182   0.12114   0.00000  Uiso   1.00
C639   C     0.52466   0.95174   0.14643   0.00000  Uiso   1.00
H640   H     0.55536   0.93093   0.14377   0.00000  Uiso   1.00
H641   H     0.49422   0.93205   0.14725   0.00000  Uiso   1.00
H642   H     0.53320   0.97054   0.10911   0.00000  Uiso   1.00
C643   C     0.63557   0.76890   0.19195   0.00000  Uiso   1.00
H644   H     0.66484   0.75250   0.16203   0.00000  Uiso   1.00
H645   H     0.61723   0.74466   0.22107   0.00000  Uiso   1.00
H646   H     0.61313   0.78104   0.16901   0.00000  Uiso   1.00
C647   C     0.39997   0.77541   0.18767   0.00000  Uiso   1.00
N648   N     0.42677   0.75185   0.16095   0.00000  Uiso   1.00
C649   C     0.36211   0.89735   0.30934   0.00000  Uiso   1.00
H650   H     0.38193   0.88466   0.33509   0.00000  Uiso   1.00
H651   H     0.38257   0.92127   0.28137   0.00000  Uiso   1.00
H652   H     0.66420   0.91383   0.33620   0.00000  Uiso   1.00
C653   C     0.62989   0.80702   0.39671   0.00000  Uiso   1.00
H654   H     0.63615   0.79564   0.35521   0.00000  Uiso   1.00
H655   H     0.64970   0.83661   0.39376   0.00000  Uiso   1.00
H656   H     0.64239   0.78274   0.41920   0.00000  Uiso   1.00
C657   C     0.46115   0.86593   0.08905   0.00000  Uiso   1.00
N658   N     0.42590   0.88336   0.10877   0.00000  Uiso   1.00
C659   C     0.39721   0.76442   0.40142   0.00000  Uiso   1.00
H660   H     0.36844   0.74493   0.42651   0.00000  Uiso   1.00
H661   H     0.38463   0.78442   0.37418   0.00000  Uiso   1.00
H662   H     0.42307   0.74204   0.37630   0.00000  Uiso   1.00
C663   C     0.36312   0.76681   0.02269   0.00000  Uiso   1.00
H664   H     0.35583   0.77221   0.06623   0.00000  Uiso   1.00
H665   H     0.66595   0.77882   0.01151   0.00000  Uiso   1.00
H666   H     0.36687   0.73237   0.01547   0.00000  Uiso   1.00
C667   C     0.55618   0.76714   0.36650   0.00000  Uiso   1.00
N668   N     0.56619   0.74009   0.33556   0.00000  Uiso   1.00
C669   C     0.47794   0.95616   0.34970   0.00000  Uiso   1.00
H670   H     0.50750   0.93510   0.35089   0.00000  Uiso   1.00
H671   H     0.47096   0.97850   0.38379   0.00000  Uiso   1.00
H672   H     0.44603   0.93707   0.35535   0.00000  Uiso   1.00
C673   C     0.83329   0.91297   0.24929   0.00000  Uiso   1.00
C674   C     0.81647   0.81772   0.48739   0.00000  Uiso   1.00
C675   C     0.83070   0.81109   0.43223   0.00000  Uiso   1.00
C676   C     0.85069   0.83067   0.01105   0.00000  Uiso   1.00
C677   C     0.89901   0.82953   0.48023   0.00000  Uiso   1.00
C678   C     0.91250   0.81406   0.42744   0.00000  Uiso   1.00
C679   C     0.87798   0.80053   0.40621   0.00000  Uiso   1.00
C680   C     0.83887   0.84422   0.06431   0.00000  Uiso   1.00
C681   C     0.92098   0.84540   0.05937   0.00000  Uiso   1.00
C682   C     0.79641   0.80990   0.40605   0.00000  Uiso   1.00
C683   C     0.82345   0.97874   0.29641   0.00000  Uiso   1.00
C684   C     0.80849   0.82549   0.35011   0.00000  Uiso   1.00
C685   C     0.82501   0.68849   0.29499   0.00000  Uiso   1.00
C686   C     0.83567   0.70941   0.24633   0.00000  Uiso   1.00
C687   C     0.84796   0.68838   0.19672   0.00000  Uiso   1.00
C688   C     0.84621   0.97766   0.19749   0.00000  Uiso   1.00
C689   C     0.83342   0.95723   0.24768   0.00000  Uiso   1.00
C690   C     0.98464   0.80376   0.22116   0.00000  Uiso   1.00
C691   C     0.69939   0.80460   0.22048   0.00000  Uiso   1.00
C692   C     0.68177   0.86289   0.27843   0.00000  Uiso   1.00
C693   C     0.96766   0.86259   0.27807   0.00000  Uiso   1.00
C694   C     0.83394   0.75362   0.24898   0.00000  Uiso   1.00
C695   C     0.85884   0.83716   0.14862   0.00000  Uiso   1.00
C696   C     0.93306   0.84065   0.00432   0.00000  Uiso   1.00
C697   C     0.87345   0.84314   0.09035   0.00000  Uiso   1.00
C698   C     0.75389   0.79044   0.43341   0.00000  Uiso   1.00
C699   C     0.74052   0.78842   0.49013   0.00000  Uiso   1.00
C700   C     0.77048   0.80532   0.01667   0.00000  Uiso   1.00
H701   H     0.81839   0.70592   0.33185   0.00000  Uiso   1.00
H702   H     0.94281   0.88601   0.30042   0.00000  Uiso   1.00
H703   H     0.96978   0.84262   0.48145   0.00000  Uiso   1.00
H704   H     0.75985   0.80323   0.05981   0.00000  Uiso   1.00
N705   N     0.71426   0.83334   0.25002   0.00000  Uiso   1.00
N706   N     0.95239   0.83331   0.25001   0.00000  Uiso   1.00
O707   O     0.79512   0.89442   0.25001   0.00000  Uiso   1.00
O708   O     0.87157   0.89441   0.25001   0.00000  Uiso   1.00
O709   O     0.77613   0.83333   0.32681   0.00000  Uiso   1.00
O710   O     0.85258   0.83332   0.32681   0.00000  Uiso   1.00
O711   O     0.79510   0.77226   0.25000   0.00000  Uiso   1.00
O712   O     0.87154   0.77225   0.25000   0.00000  Uiso   1.00
O713   O     0.81409   0.83335   0.17319   0.00000  Uiso   1.00
O714   O     0.89053   0.83334   0.17319   0.00000  Uiso   1.00
Zn715  Zn    0.78229   0.83334   0.25000   0.00000  Uiso   1.00
Zn716  Zn    0.88438   0.83333   0.25000   0.00000  Uiso   1.00
C717   C     0.95812   0.85347   0.08222   0.00000  Uiso   1.00
N718   N     0.98791   0.86001   0.10038   0.00000  Uiso   1.00
C719   C     0.86411   0.71221   0.14413   0.00000  Uiso   1.00
H720   H     0.84011   0.70628   0.12027   0.00000  Uiso   1.00
H721   H     0.86523   0.74671   0.14914   0.00000  Uiso   1.00
H722   H     0.90022   0.70182   0.12114   0.00000  Uiso   1.00
C723   C     0.85799   0.95174   0.14643   0.00000  Uiso   1.00
H724   H     0.88869   0.93093   0.14377   0.00000  Uiso   1.00
H725   H     0.82755   0.93205   0.14725   0.00000  Uiso   1.00
H726   H     0.86653   0.97054   0.10911   0.00000  Uiso   1.00
C727   C     0.96891   0.76890   0.19195   0.00000  Uiso   1.00
H728   H     0.99817   0.75250   0.16203   0.00000  Uiso   1.00
H729   H     0.95056   0.74466   0.22107   0.00000  Uiso   1.00
H730   H     0.94647   0.78104   0.16901   0.00000  Uiso   1.00
C731   C     0.73331   0.77541   0.18767   0.00000  Uiso   1.00
N732   N     0.76010   0.75185   0.16095   0.00000  Uiso   1.00
C733   C     0.69544   0.89735   0.30934   0.00000  Uiso   1.00
H734   H     0.71526   0.88466   0.33509   0.00000  Uiso   1.00
H735   H     0.71590   0.92127   0.28137   0.00000  Uiso   1.00
H736   H     0.99753   0.91383   0.33620   0.00000  Uiso   1.00
C737   C     0.96322   0.80702   0.39671   0.00000  Uiso   1.00
H738   H     0.96948   0.79564   0.35521   0.00000  Uiso   1.00
H739   H     0.98303   0.83661   0.39376   0.00000  Uiso   1.00
H740   H     0.97572   0.78274   0.41920   0.00000  Uiso   1.00
C741   C     0.79448   0.86593   0.08905   0.00000  Uiso   1.00
N742   N     0.75923   0.88336   0.10877   0.00000  Uiso   1.00
C743   C     0.73055   0.76442   0.40142   0.00000  Uiso   1.00
H744   H     0.70178   0.74493   0.42651   0.00000  Uiso   1.00
H745   H     0.71796   0.78442   0.37418   0.00000  Uiso   1.00
H746   H     0.75640   0.74204   0.37630   0.00000  Uiso   1.00
C747   C     0.69645   0.76681   0.02269   0.00000  Uiso   1.00
H748   H     0.68917   0.77221   0.06623   0.00000  Uiso   1.00
H749   H     0.99929   0.77882   0.01151   0.00000  Uiso   1.00
H750   H     0.70020   0.73237   0.01547   0.00000  Uiso   1.00
C751   C     0.88952   0.76714   0.36650   0.00000  Uiso   1.00
N752   N     0.89952   0.74009   0.33556   0.00000  Uiso   1.00
C753   C     0.81128   0.95616   0.34970   0.00000  Uiso   1.00
H754   H     0.84083   0.93510   0.35089   0.00000  Uiso   1.00
H755   H     0.80429   0.97850   0.38379   0.00000  Uiso   1.00
H756   H     0.77936   0.93707   0.35535   0.00000  Uiso   1.00
C757   C     0.16663   0.24630   0.74929   0.00000  Uiso   1.00
C758   C     0.14981   0.15106   0.98739   0.00000  Uiso   1.00
C759   C     0.16403   0.14442   0.93223   0.00000  Uiso   1.00
C760   C     0.18403   0.16400   0.51105   0.00000  Uiso   1.00
C761   C     0.23234   0.16287   0.98023   0.00000  Uiso   1.00
C762   C     0.24583   0.14739   0.92744   0.00000  Uiso   1.00
C763   C     0.21132   0.13387   0.90621   0.00000  Uiso   1.00
C764   C     0.17220   0.17755   0.56431   0.00000  Uiso   1.00
C765   C     0.25431   0.17873   0.55937   0.00000  Uiso   1.00
C766   C     0.12974   0.14323   0.90605   0.00000  Uiso   1.00
C767   C     0.15678   0.31207   0.79641   0.00000  Uiso   1.00
C768   C     0.14182   0.15882   0.85011   0.00000  Uiso   1.00
C769   C     0.15834   0.02183   0.79499   0.00000  Uiso   1.00
C770   C     0.16900   0.04275   0.74633   0.00000  Uiso   1.00
C771   C     0.18129   0.02171   0.69672   0.00000  Uiso   1.00
C772   C     0.17955   0.31100   0.69749   0.00000  Uiso   1.00
C773   C     0.16675   0.29057   0.74768   0.00000  Uiso   1.00
C774   C     0.31797   0.13709   0.72116   0.00000  Uiso   1.00
C775   C     0.03273   0.13793   0.72048   0.00000  Uiso   1.00
C776   C     0.01510   0.19623   0.77843   0.00000  Uiso   1.00
C777   C     0.30100   0.19593   0.77807   0.00000  Uiso   1.00
C778   C     0.16728   0.08695   0.74898   0.00000  Uiso   1.00
C779   C     0.19217   0.17049   0.64862   0.00000  Uiso   1.00
C780   C     0.26639   0.17398   0.50432   0.00000  Uiso   1.00
C781   C     0.20678   0.17648   0.59035   0.00000  Uiso   1.00
C782   C     0.08722   0.12377   0.93341   0.00000  Uiso   1.00
C783   C     0.07385   0.12176   0.99013   0.00000  Uiso   1.00
C784   C     0.10382   0.13866   0.51667   0.00000  Uiso   1.00
H785   H     0.15172   0.03926   0.83185   0.00000  Uiso   1.00
H786   H     0.27614   0.21934   0.80042   0.00000  Uiso   1.00
H787   H     0.30312   0.17596   0.98145   0.00000  Uiso   1.00
H788   H     0.09318   0.13656   0.55981   0.00000  Uiso   1.00
N789   N     0.04760   0.16668   0.75002   0.00000  Uiso   1.00
N790   N     0.28573   0.16665   0.75001   0.00000  Uiso   1.00
O791   O     0.12846   0.22775   0.75001   0.00000  Uiso   1.00
O792   O     0.20490   0.22774   0.75001   0.00000  Uiso   1.00
O793   O     0.10947   0.16666   0.82681   0.00000  Uiso   1.00
O794   O     0.18591   0.16665   0.82681   0.00000  Uiso   1.00
O795   O     0.12843   0.10559   0.75000   0.00000  Uiso   1.00
O796   O     0.20488   0.10558   0.75000   0.00000  Uiso   1.00
O797   O     0.14742   0.16668   0.67319   0.00000  Uiso   1.00
O798   O     0.22387   0.16667   0.67319   0.00000  Uiso   1.00
Zn799  Zn    0.11562   0.16667   0.75000   0.00000  Uiso   1.00
Zn800  Zn    0.21771   0.16666   0.75000   0.00000  Uiso   1.00
C801   C     0.29146   0.18680   0.58222   0.00000  Uiso   1.00
N802   N     0.32125   0.19334   0.60038   0.00000  Uiso   1.00
C803   C     0.19744   0.04554   0.64413   0.00000  Uiso   1.00
H804   H     0.17344   0.03961   0.62027   0.00000  Uiso   1.00
H805   H     0.19856   0.08005   0.64914   0.00000  Uiso   1.00
H806   H     0.23356   0.03516   0.62114   0.00000  Uiso   1.00
C807   C     0.19132   0.28508   0.64643   0.00000  Uiso   1.00
H808   H     0.22202   0.26427   0.64377   0.00000  Uiso   1.00
H809   H     0.16088   0.26538   0.64725   0.00000  Uiso   1.00
H810   H     0.19987   0.30387   0.60911   0.00000  Uiso   1.00
C811   C     0.30224   0.10223   0.69195   0.00000  Uiso   1.00
H812   H     0.33151   0.08584   0.66203   0.00000  Uiso   1.00
H813   H     0.28390   0.07799   0.72107   0.00000  Uiso   1.00
H814   H     0.27980   0.11437   0.66901   0.00000  Uiso   1.00
C815   C     0.06664   0.10874   0.68767   0.00000  Uiso   1.00
N816   N     0.09343   0.08518   0.66095   0.00000  Uiso   1.00
C817   C     0.02878   0.23068   0.80934   0.00000  Uiso   1.00
H818   H     0.04860   0.21800   0.83509   0.00000  Uiso   1.00
H819   H     0.04923   0.25460   0.78137   0.00000  Uiso   1.00
H820   H     0.33087   0.24716   0.83620   0.00000  Uiso   1.00
C821   C     0.29655   0.14036   0.89671   0.00000  Uiso   1.00
H822   H     0.30281   0.12898   0.85521   0.00000  Uiso   1.00
H823   H     0.31637   0.16995   0.89376   0.00000  Uiso   1.00
H824   H     0.30905   0.11607   0.91920   0.00000  Uiso   1.00
C825   C     0.12782   0.19926   0.58905   0.00000  Uiso   1.00
N826   N     0.09257   0.21669   0.60877   0.00000  Uiso   1.00
C827   C     0.06388   0.09775   0.90142   0.00000  Uiso   1.00
H828   H     0.03511   0.07826   0.92651   0.00000  Uiso   1.00
H829   H     0.05130   0.11775   0.87418   0.00000  Uiso   1.00
H830   H     0.08974   0.07537   0.87630   0.00000  Uiso   1.00
C831   C     0.02979   0.10015   0.52269   0.00000  Uiso   1.00
H832   H     0.02250   0.10554   0.56623   0.00000  Uiso   1.00
H833   H     0.33262   0.11215   0.51151   0.00000  Uiso   1.00
H834   H     0.03353   0.06571   0.51547   0.00000  Uiso   1.00
C835   C     0.22285   0.10047   0.86650   0.00000  Uiso   1.00
N836   N     0.23286   0.07342   0.83556   0.00000  Uiso   1.00
C837   C     0.14461   0.28949   0.84970   0.00000  Uiso   1.00
H838   H     0.17416   0.26843   0.85089   0.00000  Uiso   1.00
H839   H     0.13763   0.31183   0.88379   0.00000  Uiso   1.00
H840   H     0.11270   0.27040   0.85535   0.00000  Uiso   1.00
C841   C     0.49996   0.24630   0.74929   0.00000  Uiso   1.00
C842   C     0.48314   0.15106   0.98739   0.00000  Uiso   1.00
C843   C     0.49736   0.14442   0.93223   0.00000  Uiso   1.00
C844   C     0.51736   0.16400   0.51105   0.00000  Uiso   1.00
C845   C     0.56567   0.16287   0.98023   0.00000  Uiso   1.00
C846   C     0.57917   0.14739   0.92744   0.00000  Uiso   1.00
C847   C     0.54465   0.13387   0.90621   0.00000  Uiso   1.00
C848   C     0.50553   0.17755   0.56431   0.00000  Uiso   1.00
C849   C     0.58765   0.17873   0.55937   0.00000  Uiso   1.00
C850   C     0.46307   0.14323   0.90605   0.00000  Uiso   1.00
C851   C     0.49012   0.31207   0.79641   0.00000  Uiso   1.00
C852   C     0.47516   0.15882   0.85011   0.00000  Uiso   1.00
C853   C     0.49167   0.02183   0.79499   0.00000  Uiso   1.00
C854   C     0.50233   0.04275   0.74633   0.00000  Uiso   1.00
C855   C     0.51462   0.02171   0.69672   0.00000  Uiso   1.00
C856   C     0.51288   0.31100   0.69749   0.00000  Uiso   1.00
C857   C     0.50009   0.29057   0.74768   0.00000  Uiso   1.00
C858   C     0.65130   0.13709   0.72116   0.00000  Uiso   1.00
C859   C     0.36606   0.13793   0.72048   0.00000  Uiso   1.00
C860   C     0.34844   0.19623   0.77843   0.00000  Uiso   1.00
C861   C     0.63433   0.19593   0.77807   0.00000  Uiso   1.00
C862   C     0.50061   0.08695   0.74898   0.00000  Uiso   1.00
C863   C     0.52551   0.17049   0.64862   0.00000  Uiso   1.00
C864   C     0.59972   0.17398   0.50432   0.00000  Uiso   1.00
C865   C     0.54011   0.17648   0.59035   0.00000  Uiso   1.00
C866   C     0.42056   0.12377   0.93341   0.00000  Uiso   1.00
C867   C     0.40718   0.12176   0.99013   0.00000  Uiso   1.00
C868   C     0.43715   0.13866   0.51667   0.00000  Uiso   1.00
H869   H     0.48506   0.03926   0.83185   0.00000  Uiso   1.00
H870   H     0.60948   0.21934   0.80042   0.00000  Uiso   1.00
H871   H     0.63645   0.17596   0.98145   0.00000  Uiso   1.00
H872   H     0.42652   0.13656   0.55981   0.00000  Uiso   1.00
N873   N     0.38093   0.16668   0.75002   0.00000  Uiso   1.00
N874   N     0.61906   0.16665   0.75001   0.00000  Uiso   1.00
O875   O     0.46179   0.22775   0.75001   0.00000  Uiso   1.00
O876   O     0.53823   0.22774   0.75001   0.00000  Uiso   1.00
O877   O     0.44280   0.16666   0.82681   0.00000  Uiso   1.00
O878   O     0.51924   0.16665   0.82681   0.00000  Uiso   1.00
O879   O     0.46177   0.10559   0.75000   0.00000  Uiso   1.00
O880   O     0.53821   0.10558   0.75000   0.00000  Uiso   1.00
O881   O     0.48076   0.16668   0.67319   0.00000  Uiso   1.00
O882   O     0.55720   0.16667   0.67319   0.00000  Uiso   1.00
Zn883  Zn    0.44896   0.16667   0.75000   0.00000  Uiso   1.00
Zn884  Zn    0.55104   0.16666   0.75000   0.00000  Uiso   1.00
C885   C     0.62479   0.18680   0.58222   0.00000  Uiso   1.00
N886   N     0.65458   0.19334   0.60038   0.00000  Uiso   1.00
C887   C     0.53077   0.04554   0.64413   0.00000  Uiso   1.00
H888   H     0.50677   0.03961   0.62027   0.00000  Uiso   1.00
H889   H     0.53190   0.08005   0.64914   0.00000  Uiso   1.00
H890   H     0.56689   0.03516   0.62114   0.00000  Uiso   1.00
C891   C     0.52466   0.28508   0.64643   0.00000  Uiso   1.00
H892   H     0.55536   0.26427   0.64377   0.00000  Uiso   1.00
H893   H     0.49422   0.26538   0.64725   0.00000  Uiso   1.00
H894   H     0.53320   0.30387   0.60911   0.00000  Uiso   1.00
C895   C     0.63557   0.10223   0.69195   0.00000  Uiso   1.00
H896   H     0.66484   0.08584   0.66203   0.00000  Uiso   1.00
H897   H     0.61723   0.07799   0.72107   0.00000  Uiso   1.00
H898   H     0.61313   0.11437   0.66901   0.00000  Uiso   1.00
C899   C     0.39997   0.10874   0.68767   0.00000  Uiso   1.00
N900   N     0.42677   0.08518   0.66095   0.00000  Uiso   1.00
C901   C     0.36211   0.23068   0.80934   0.00000  Uiso   1.00
H902   H     0.38193   0.21800   0.83509   0.00000  Uiso   1.00
H903   H     0.38257   0.25460   0.78137   0.00000  Uiso   1.00
H904   H     0.66420   0.24716   0.83620   0.00000  Uiso   1.00
C905   C     0.62989   0.14036   0.89671   0.00000  Uiso   1.00
H906   H     0.63615   0.12898   0.85521   0.00000  Uiso   1.00
H907   H     0.64970   0.16995   0.89376   0.00000  Uiso   1.00
H908   H     0.64239   0.11607   0.91920   0.00000  Uiso   1.00
C909   C     0.46115   0.19926   0.58905   0.00000  Uiso   1.00
N910   N     0.42590   0.21669   0.60877   0.00000  Uiso   1.00
C911   C     0.39721   0.09775   0.90142   0.00000  Uiso   1.00
H912   H     0.36844   0.07826   0.92651   0.00000  Uiso   1.00
H913   H     0.38463   0.11775   0.87418   0.00000  Uiso   1.00
H914   H     0.42307   0.07537   0.87630   0.00000  Uiso   1.00
C915   C     0.36312   0.10015   0.52269   0.00000  Uiso   1.00
H916   H     0.35583   0.10554   0.56623   0.00000  Uiso   1.00
H917   H     0.66595   0.11215   0.51151   0.00000  Uiso   1.00
H918   H     0.36687   0.06571   0.51547   0.00000  Uiso   1.00
C919   C     0.55618   0.10047   0.86650   0.00000  Uiso   1.00
N920   N     0.56619   0.07342   0.83556   0.00000  Uiso   1.00
C921   C     0.47794   0.28949   0.84970   0.00000  Uiso   1.00
H922   H     0.50750   0.26843   0.85089   0.00000  Uiso   1.00
H923   H     0.47096   0.31183   0.88379   0.00000  Uiso   1.00
H924   H     0.44603   0.27040   0.85535   0.00000  Uiso   1.00
C925   C     0.83329   0.24630   0.74929   0.00000  Uiso   1.00
C926   C     0.81647   0.15106   0.98739   0.00000  Uiso   1.00
C927   C     0.83070   0.14442   0.93223   0.00000  Uiso   1.00
C928   C     0.85069   0.16400   0.51105   0.00000  Uiso   1.00
C929   C     0.89901   0.16287   0.98023   0.00000  Uiso   1.00
C930   C     0.91250   0.14739   0.92744   0.00000  Uiso   1.00
C931   C     0.87798   0.13387   0.90621   0.00000  Uiso   1.00
C932   C     0.83887   0.17755   0.56431   0.00000  Uiso   1.00
C933   C     0.92098   0.17873   0.55937   0.00000  Uiso   1.00
C934   C     0.79641   0.14323   0.90605   0.00000  Uiso   1.00
C935   C     0.82345   0.31207   0.79641   0.00000  Uiso   1.00
C936   C     0.80849   0.15882   0.85011   0.00000  Uiso   1.00
C937   C     0.82501   0.02183   0.79499   0.00000  Uiso   1.00
C938   C     0.83567   0.04275   0.74633   0.00000  Uiso   1.00
C939   C     0.84796   0.02171   0.69672   0.00000  Uiso   1.00
C940   C     0.84621   0.31100   0.69749   0.00000  Uiso   1.00
C941   C     0.83342   0.29057   0.74768   0.00000  Uiso   1.00
C942   C     0.98464   0.13709   0.72116   0.00000  Uiso   1.00
C943   C     0.69939   0.13793   0.72048   0.00000  Uiso   1.00
C944   C     0.68177   0.19623   0.77843   0.00000  Uiso   1.00
C945   C     0.96766   0.19593   0.77807   0.00000  Uiso   1.00
C946   C     0.83394   0.08695   0.74898   0.00000  Uiso   1.00
C947   C     0.85884   0.17049   0.64862   0.00000  Uiso   1.00
C948   C     0.93306   0.17398   0.50432   0.00000  Uiso   1.00
C949   C     0.87345   0.17648   0.59035   0.00000  Uiso   1.00
C950   C     0.75389   0.12377   0.93341   0.00000  Uiso   1.00
C951   C     0.74052   0.12176   0.99013   0.00000  Uiso   1.00
C952   C     0.77048   0.13866   0.51667   0.00000  Uiso   1.00
H953   H     0.81839   0.03926   0.83185   0.00000  Uiso   1.00
H954   H     0.94281   0.21934   0.80042   0.00000  Uiso   1.00
H955   H     0.96978   0.17596   0.98145   0.00000  Uiso   1.00
H956   H     0.75985   0.13656   0.55981   0.00000  Uiso   1.00
N957   N     0.71426   0.16668   0.75002   0.00000  Uiso   1.00
N958   N     0.95239   0.16665   0.75001   0.00000  Uiso   1.00
O959   O     0.79512   0.22775   0.75001   0.00000  Uiso   1.00
O960   O     0.87157   0.22774   0.75001   0.00000  Uiso   1.00
O961   O     0.77613   0.16666   0.82681   0.00000  Uiso   1.00
O962   O     0.85258   0.16665   0.82681   0.00000  Uiso   1.00
O963   O     0.79510   0.10559   0.75000   0.00000  Uiso   1.00
O964   O     0.87154   0.10558   0.75000   0.00000  Uiso   1.00
O965   O     0.81409   0.16668   0.67319   0.00000  Uiso   1.00
O966   O     0.89053   0.16667   0.67319   0.00000  Uiso   1.00
Zn967  Zn    0.78229   0.16667   0.75000   0.00000  Uiso   1.00
Zn968  Zn    0.88438   0.16666   0.75000   0.00000  Uiso   1.00
C969   C     0.95812   0.18680   0.58222   0.00000  Uiso   1.00
N970   N     0.98791   0.19334   0.60038   0.00000  Uiso   1.00
C971   C     0.86411   0.04554   0.64413   0.00000  Uiso   1.00
H972   H     0.84011   0.03961   0.62027   0.00000  Uiso   1.00
H973   H     0.86523   0.08005   0.64914   0.00000  Uiso   1.00
H974   H     0.90022   0.03516   0.62114   0.00000  Uiso   1.00
C975   C     0.85799   0.28508   0.64643   0.00000  Uiso   1.00
H976   H     0.88869   0.26427   0.64377   0.00000  Uiso   1.00
H977   H     0.82755   0.26538   0.64725   0.00000  Uiso   1.00
H978   H     0.86653   0.30387   0.60911   0.00000  Uiso   1.00
C979   C     0.96891   0.10223   0.69195   0.00000  Uiso   1.00
H980   H     0.99817   0.08584   0.66203   0.00000  Uiso   1.00
H981   H     0.95056   0.07799   0.72107   0.00000  Uiso   1.00
H982   H     0.94647   0.11437   0.66901   0.00000  Uiso   1.00
C983   C     0.73331   0.10874   0.68767   0.00000  Uiso   1.00
N984   N     0.76010   0.08518   0.66095   0.00000  Uiso   1.00
C985   C     0.69544   0.23068   0.80934   0.00000  Uiso   1.00
H986   H     0.71526   0.21800   0.83509   0.00000  Uiso   1.00
H987   H     0.71590   0.25460   0.78137   0.00000  Uiso   1.00
H988   H     0.99753   0.24716   0.83620   0.00000  Uiso   1.00
C989   C     0.96322   0.14036   0.89671   0.00000  Uiso   1.00
H990   H     0.96948   0.12898   0.85521   0.00000  Uiso   1.00
H991   H     0.98303   0.16995   0.89376   0.00000  Uiso   1.00
H992   H     0.97572   0.11607   0.91920   0.00000  Uiso   1.00
C993   C     0.79448   0.19926   0.58905   0.00000  Uiso   1.00
N994   N     0.75923   0.21669   0.60877   0.00000  Uiso   1.00
C995   C     0.73055   0.09775   0.90142   0.00000  Uiso   1.00
H996   H     0.70178   0.07826   0.92651   0.00000  Uiso   1.00
H997   H     0.71796   0.11775   0.87418   0.00000  Uiso   1.00
H998   H     0.75640   0.07537   0.87630   0.00000  Uiso   1.00
C999   C     0.69645   0.10015   0.52269   0.00000  Uiso   1.00
H1000  H     0.68917   0.10554   0.56623   0.00000  Uiso   1.00
H1001  H     0.99929   0.11215   0.51151   0.00000  Uiso   1.00
H1002  H     0.70020   0.06571   0.51547   0.00000  Uiso   1.00
C1003  C     0.88952   0.10047   0.86650   0.00000  Uiso   1.00
N1004  N     0.89952   0.07342   0.83556   0.00000  Uiso   1.00
C1005  C     0.81128   0.28949   0.84970   0.00000  Uiso   1.00
H1006  H     0.84083   0.26843   0.85089   0.00000  Uiso   1.00
H1007  H     0.80429   0.31183   0.88379   0.00000  Uiso   1.00
H1008  H     0.77936   0.27040   0.85535   0.00000  Uiso   1.00
C1009  C     0.16663   0.57964   0.74929   0.00000  Uiso   1.00
C1010  C     0.14981   0.48439   0.98739   0.00000  Uiso   1.00
C1011  C     0.16403   0.47775   0.93223   0.00000  Uiso   1.00
C1012  C     0.18403   0.49734   0.51105   0.00000  Uiso   1.00
C1013  C     0.23234   0.49620   0.98023   0.00000  Uiso   1.00
C1014  C     0.24583   0.48072   0.92744   0.00000  Uiso   1.00
C1015  C     0.21132   0.46720   0.90621   0.00000  Uiso   1.00
C1016  C     0.17220   0.51088   0.56431   0.00000  Uiso   1.00
C1017  C     0.25431   0.51206   0.55937   0.00000  Uiso   1.00
C1018  C     0.12974   0.47656   0.90605   0.00000  Uiso   1.00
C1019  C     0.15678   0.64540   0.79641   0.00000  Uiso   1.00
C1020  C     0.14182   0.49215   0.85011   0.00000  Uiso   1.00
C1021  C     0.15834   0.35516   0.79499   0.00000  Uiso   1.00
C1022  C     0.16900   0.37608   0.74633   0.00000  Uiso   1.00
C1023  C     0.18129   0.35505   0.69672   0.00000  Uiso   1.00
C1024  C     0.17955   0.64433   0.69749   0.00000  Uiso   1.00
C1025  C     0.16675   0.62390   0.74768   0.00000  Uiso   1.00
C1026  C     0.31797   0.47043   0.72116   0.00000  Uiso   1.00
C1027  C     0.03273   0.47127   0.72048   0.00000  Uiso   1.00
C1028  C     0.01510   0.52956   0.77843   0.00000  Uiso   1.00
C1029  C     0.30100   0.52926   0.77807   0.00000  Uiso   1.00
C1030  C     0.16728   0.42028   0.74898   0.00000  Uiso   1.00
C1031  C     0.19217   0.50382   0.64862   0.00000  Uiso   1.00
C1032  C     0.26639   0.50731   0.50432   0.00000  Uiso   1.00
C1033  C     0.20678   0.50981   0.59035   0.00000  Uiso   1.00
C1034  C     0.08722   0.45711   0.93341   0.00000  Uiso   1.00
C1035  C     0.07385   0.45509   0.99013   0.00000  Uiso   1.00
C1036  C     0.10382   0.47199   0.51667   0.00000  Uiso   1.00
H1037  H     0.15172   0.37259   0.83185   0.00000  Uiso   1.00
H1038  H     0.27614   0.55268   0.80042   0.00000  Uiso   1.00
H1039  H     0.30312   0.50929   0.98145   0.00000  Uiso   1.00
H1040  H     0.09318   0.46989   0.55981   0.00000  Uiso   1.00
N1041  N     0.04760   0.50001   0.75002   0.00000  Uiso   1.00
N1042  N     0.28573   0.49998   0.75001   0.00000  Uiso   1.00
O1043  O     0.12846   0.56108   0.75001   0.00000  Uiso   1.00
O1044  O     0.20490   0.56107   0.75001   0.00000  Uiso   1.00
O1045  O     0.10947   0.50000   0.82681   0.00000  Uiso   1.00
O1046  O     0.18591   0.49999   0.82681   0.00000  Uiso   1.00
O1047  O     0.12843   0.43893   0.75000   0.00000  Uiso   1.00
O1048  O     0.20488   0.43892   0.75000   0.00000  Uiso   1.00
O1049  O     0.14742   0.50001   0.67319   0.00000  Uiso   1.00
O1050  O     0.22387   0.50000   0.67319   0.00000  Uiso   1.00
Zn1051 Zn    0.11562   0.50001   0.75000   0.00000  Uiso   1.00
Zn1052 Zn    0.21771   0.49999   0.75000   0.00000  Uiso   1.00
C1053  C     0.29146   0.52013   0.58222   0.00000  Uiso   1.00
N1054  N     0.32125   0.52667   0.60038   0.00000  Uiso   1.00
C1055  C     0.19744   0.37888   0.64413   0.00000  Uiso   1.00
H1056  H     0.17344   0.37294   0.62027   0.00000  Uiso   1.00
H1057  H     0.19856   0.41338   0.64914   0.00000  Uiso   1.00
H1058  H     0.23356   0.36849   0.62114   0.00000  Uiso   1.00
C1059  C     0.19132   0.61841   0.64643   0.00000  Uiso   1.00
H1060  H     0.22202   0.59760   0.64377   0.00000  Uiso   1.00
H1061  H     0.16088   0.59872   0.64725   0.00000  Uiso   1.00
H1062  H     0.19987   0.63720   0.60911   0.00000  Uiso   1.00
C1063  C     0.30224   0.43556   0.69195   0.00000  Uiso   1.00
H1064  H     0.33151   0.41917   0.66203   0.00000  Uiso   1.00
H1065  H     0.28390   0.41133   0.72107   0.00000  Uiso   1.00
H1066  H     0.27980   0.44771   0.66901   0.00000  Uiso   1.00
C1067  C     0.06664   0.44207   0.68767   0.00000  Uiso   1.00
N1068  N     0.09343   0.41852   0.66095   0.00000  Uiso   1.00
C1069  C     0.02878   0.56401   0.80934   0.00000  Uiso   1.00
H1070  H     0.04860   0.55133   0.83509   0.00000  Uiso   1.00
H1071  H     0.04923   0.58794   0.78137   0.00000  Uiso   1.00
H1072  H     0.33087   0.58049   0.83620   0.00000  Uiso   1.00
C1073  C     0.29655   0.47369   0.89671   0.00000  Uiso   1.00
H1074  H     0.30281   0.46231   0.85521   0.00000  Uiso   1.00
H1075  H     0.31637   0.50328   0.89376   0.00000  Uiso   1.00
H1076  H     0.30905   0.44941   0.91920   0.00000  Uiso   1.00
C1077  C     0.12782   0.53259   0.58905   0.00000  Uiso   1.00
N1078  N     0.09257   0.55003   0.60877   0.00000  Uiso   1.00
C1079  C     0.06388   0.43108   0.90142   0.00000  Uiso   1.00
H1080  H     0.03511   0.41159   0.92651   0.00000  Uiso   1.00
H1081  H     0.05130   0.45108   0.87418   0.00000  Uiso   1.00
H1082  H     0.08974   0.40871   0.87630   0.00000  Uiso   1.00
C1083  C     0.02979   0.43348   0.52269   0.00000  Uiso   1.00
H1084  H     0.02250   0.43887   0.56623   0.00000  Uiso   1.00
H1085  H     0.33262   0.44549   0.51151   0.00000  Uiso   1.00
H1086  H     0.03353   0.39904   0.51547   0.00000  Uiso   1.00
C1087  C     0.22285   0.43381   0.86650   0.00000  Uiso   1.00
N1088  N     0.23286   0.40675   0.83556   0.00000  Uiso   1.00
C1089  C     0.14461   0.62282   0.84970   0.00000  Uiso   1.00
H1090  H     0.17416   0.60176   0.85089   0.00000  Uiso   1.00
H1091  H     0.13763   0.64517   0.88379   0.00000  Uiso   1.00
H1092  H     0.11270   0.60374   0.85535   0.00000  Uiso   1.00
C1093  C     0.49996   0.57964   0.74929   0.00000  Uiso   1.00
C1094  C     0.48314   0.48439   0.98739   0.00000  Uiso   1.00
C1095  C     0.49736   0.47775   0.93223   0.00000  Uiso   1.00
C1096  C     0.51736   0.49734   0.51105   0.00000  Uiso   1.00
C1097  C     0.56567   0.49620   0.98023   0.00000  Uiso   1.00
C1098  C     0.57917   0.48072   0.92744   0.00000  Uiso   1.00
C1099  C     0.54465   0.46720   0.90621   0.00000  Uiso   1.00
C1100  C     0.50553   0.51088   0.56431   0.00000  Uiso   1.00
C1101  C     0.58765   0.51206   0.55937   0.00000  Uiso   1.00
C1102  C     0.46307   0.47656   0.90605   0.00000  Uiso   1.00
C1103  C     0.49012   0.64540   0.79641   0.00000  Uiso   1.00
C1104  C     0.47516   0.49215   0.85011   0.00000  Uiso   1.00
C1105  C     0.49167   0.35516   0.79499   0.00000  Uiso   1.00
C1106  C     0.50233   0.37608   0.74633   0.00000  Uiso   1.00
C1107  C     0.51462   0.35505   0.69672   0.00000  Uiso   1.00
C1108  C     0.51288   0.64433   0.69749   0.00000  Uiso   1.00
C1109  C     0.50009   0.62390   0.74768   0.00000  Uiso   1.00
C1110  C     0.65130   0.47043   0.72116   0.00000  Uiso   1.00
C1111  C     0.36606   0.47127   0.72048   0.00000  Uiso   1.00
C1112  C     0.34844   0.52956   0.77843   0.00000  Uiso   1.00
C1113  C     0.63433   0.52926   0.77807   0.00000  Uiso   1.00
C1114  C     0.50061   0.42028   0.74898   0.00000  Uiso   1.00
C1115  C     0.52551   0.50382   0.64862   0.00000  Uiso   1.00
C1116  C     0.59972   0.50731   0.50432   0.00000  Uiso   1.00
C1117  C     0.54011   0.50981   0.59035   0.00000  Uiso   1.00
C1118  C     0.42056   0.45711   0.93341   0.00000  Uiso   1.00
C1119  C     0.40718   0.45509   0.99013   0.00000  Uiso   1.00
C1120  C     0.43715   0.47199   0.51667   0.00000  Uiso   1.00
H1121  H     0.48506   0.37259   0.83185   0.00000  Uiso   1.00
H1122  H     0.60948   0.55268   0.80042   0.00000  Uiso   1.00
H1123  H     0.63645   0.50929   0.98145   0.00000  Uiso   1.00
H1124  H     0.42652   0.46989   0.55981   0.00000  Uiso   1.00
N1125  N     0.38093   0.50001   0.75002   0.00000  Uiso   1.00
N1126  N     0.61906   0.49998   0.75001   0.00000  Uiso   1.00
O1127  O     0.46179   0.56108   0.75001   0.00000  Uiso   1.00
O1128  O     0.53823   0.56107   0.75001   0.00000  Uiso   1.00
O1129  O     0.44280   0.50000   0.82681   0.00000  Uiso   1.00
O1130  O     0.51924   0.49999   0.82681   0.00000  Uiso   1.00
O1131  O     0.46177   0.43893   0.75000   0.00000  Uiso   1.00
O1132  O     0.53821   0.43892   0.75000   0.00000  Uiso   1.00
O1133  O     0.48076   0.50001   0.67319   0.00000  Uiso   1.00
O1134  O     0.55720   0.50000   0.67319   0.00000  Uiso   1.00
Zn1135 Zn    0.44896   0.50001   0.75000   0.00000  Uiso   1.00
Zn1136 Zn    0.55104   0.49999   0.75000   0.00000  Uiso   1.00
C1137  C     0.62479   0.52013   0.58222   0.00000  Uiso   1.00
N1138  N     0.65458   0.52667   0.60038   0.00000  Uiso   1.00
C1139  C     0.53077   0.37888   0.64413   0.00000  Uiso   1.00
H1140  H     0.50677   0.37294   0.62027   0.00000  Uiso   1.00
H1141  H     0.53190   0.41338   0.64914   0.00000  Uiso   1.00
H1142  H     0.56689   0.36849   0.62114   0.00000  Uiso   1.00
C1143  C     0.52466   0.61841   0.64643   0.00000  Uiso   1.00
H1144  H     0.55536   0.59760   0.64377   0.00000  Uiso   1.00
H1145  H     0.49422   0.59872   0.64725   0.00000  Uiso   1.00
H1146  H     0.53320   0.63720   0.60911   0.00000  Uiso   1.00
C1147  C     0.63557   0.43556   0.69195   0.00000  Uiso   1.00
H1148  H     0.66484   0.41917   0.66203   0.00000  Uiso   1.00
H1149  H     0.61723   0.41133   0.72107   0.00000  Uiso   1.00
H1150  H     0.61313   0.44771   0.66901   0.00000  Uiso   1.00
C1151  C     0.39997   0.44207   0.68767   0.00000  Uiso   1.00
N1152  N     0.42677   0.41852   0.66095   0.00000  Uiso   1.00
C1153  C     0.36211   0.56401   0.80934   0.00000  Uiso   1.00
H1154  H     0.38193   0.55133   0.83509   0.00000  Uiso   1.00
H1155  H     0.38257   0.58794   0.78137   0.00000  Uiso   1.00
H1156  H     0.66420   0.58049   0.83620   0.00000  Uiso   1.00
C1157  C     0.62989   0.47369   0.89671   0.00000  Uiso   1.00
H1158  H     0.63615   0.46231   0.85521   0.00000  Uiso   1.00
H1159  H     0.64970   0.50328   0.89376   0.00000  Uiso   1.00
H1160  H     0.64239   0.44941   0.91920   0.00000  Uiso   1.00
C1161  C     0.46115   0.53259   0.58905   0.00000  Uiso   1.00
N1162  N     0.42590   0.55003   0.60877   0.00000  Uiso   1.00
C1163  C     0.39721   0.43108   0.90142   0.00000  Uiso   1.00
H1164  H     0.36844   0.41159   0.92651   0.00000  Uiso   1.00
H1165  H     0.38463   0.45108   0.87418   0.00000  Uiso   1.00
H1166  H     0.42307   0.40871   0.87630   0.00000  Uiso   1.00
C1167  C     0.36312   0.43348   0.52269   0.00000  Uiso   1.00
H1168  H     0.35583   0.43887   0.56623   0.00000  Uiso   1.00
H1169  H     0.66595   0.44549   0.51151   0.00000  Uiso   1.00
H1170  H     0.36687   0.39904   0.51547   0.00000  Uiso   1.00
C1171  C     0.55618   0.43381   0.86650   0.00000  Uiso   1.00
N1172  N     0.56619   0.40675   0.83556   0.00000  Uiso   1.00
C1173  C     0.47794   0.62282   0.84970   0.00000  Uiso   1.00
H1174  H     0.50750   0.60176   0.85089   0.00000  Uiso   1.00
H1175  H     0.47096   0.64517   0.88379   0.00000  Uiso   1.00
H1176  H     0.44603   0.60374   0.85535   0.00000  Uiso   1.00
C1177  C     0.83329   0.57964   0.74929   0.00000  Uiso   1.00
C1178  C     0.81647   0.48439   0.98739   0.00000  Uiso   1.00
C1179  C     0.83070   0.47775   0.93223   0.00000  Uiso   1.00
C1180  C     0.85069   0.49734   0.51105   0.00000  Uiso   1.00
C1181  C     0.89901   0.49620   0.98023   0.00000  Uiso   1.00
C1182  C     0.91250   0.48072   0.92744   0.00000  Uiso   1.00
C1183  C     0.87798   0.46720   0.90621   0.00000  Uiso   1.00
C1184  C     0.83887   0.51088   0.56431   0.00000  Uiso   1.00
C1185  C     0.92098   0.51206   0.55937   0.00000  Uiso   1.00
C1186  C     0.79641   0.47656   0.90605   0.00000  Uiso   1.00
C1187  C     0.82345   0.64540   0.79641   0.00000  Uiso   1.00
C1188  C     0.80849   0.49215   0.85011   0.00000  Uiso   1.00
C1189  C     0.82501   0.35516   0.79499   0.00000  Uiso   1.00
C1190  C     0.83567   0.37608   0.74633   0.00000  Uiso   1.00
C1191  C     0.84796   0.35505   0.69672   0.00000  Uiso   1.00
C1192  C     0.84621   0.64433   0.69749   0.00000  Uiso   1.00
C1193  C     0.83342   0.62390   0.74768   0.00000  Uiso   1.00
C1194  C     0.98464   0.47043   0.72116   0.00000  Uiso   1.00
C1195  C     0.69939   0.47127   0.72048   0.00000  Uiso   1.00
C1196  C     0.68177   0.52956   0.77843   0.00000  Uiso   1.00
C1197  C     0.96766   0.52926   0.77807   0.00000  Uiso   1.00
C1198  C     0.83394   0.42028   0.74898   0.00000  Uiso   1.00
C1199  C     0.85884   0.50382   0.64862   0.00000  Uiso   1.00
C1200  C     0.93306   0.50731   0.50432   0.00000  Uiso   1.00
C1201  C     0.87345   0.50981   0.59035   0.00000  Uiso   1.00
C1202  C     0.75389   0.45711   0.93341   0.00000  Uiso   1.00
C1203  C     0.74052   0.45509   0.99013   0.00000  Uiso   1.00
C1204  C     0.77048   0.47199   0.51667   0.00000  Uiso   1.00
H1205  H     0.81839   0.37259   0.83185   0.00000  Uiso   1.00
H1206  H     0.94281   0.55268   0.80042   0.00000  Uiso   1.00
H1207  H     0.96978   0.50929   0.98145   0.00000  Uiso   1.00
H1208  H     0.75985   0.46989   0.55981   0.00000  Uiso   1.00
N1209  N     0.71426   0.50001   0.75002   0.00000  Uiso   1.00
N1210  N     0.95239   0.49998   0.75001   0.00000  Uiso   1.00
O1211  O     0.79512   0.56108   0.75001   0.00000  Uiso   1.00
O1212  O     0.87157   0.56107   0.75001   0.00000  Uiso   1.00
O1213  O     0.77613   0.50000   0.82681   0.00000  Uiso   1.00
O1214  O     0.85258   0.49999   0.82681   0.00000  Uiso   1.00
O1215  O     0.79510   0.43893   0.75000   0.00000  Uiso   1.00
O1216  O     0.87154   0.43892   0.75000   0.00000  Uiso   1.00
O1217  O     0.81409   0.50001   0.67319   0.00000  Uiso   1.00
O1218  O     0.89053   0.50000   0.67319   0.00000  Uiso   1.00
Zn1219 Zn    0.78229   0.50001   0.75000   0.00000  Uiso   1.00
Zn1220 Zn    0.88438   0.49999   0.75000   0.00000  Uiso   1.00
C1221  C     0.95812   0.52013   0.58222   0.00000  Uiso   1.00
N1222  N     0.98791   0.52667   0.60038   0.00000  Uiso   1.00
C1223  C     0.86411   0.37888   0.64413   0.00000  Uiso   1.00
H1224  H     0.84011   0.37294   0.62027   0.00000  Uiso   1.00
H1225  H     0.86523   0.41338   0.64914   0.00000  Uiso   1.00
H1226  H     0.90022   0.36849   0.62114   0.00000  Uiso   1.00
C1227  C     0.85799   0.61841   0.64643   0.00000  Uiso   1.00
H1228  H     0.88869   0.59760   0.64377   0.00000  Uiso   1.00
H1229  H     0.82755   0.59872   0.64725   0.00000  Uiso   1.00
H1230  H     0.86653   0.63720   0.60911   0.00000  Uiso   1.00
C1231  C     0.96891   0.43556   0.69195   0.00000  Uiso   1.00
H1232  H     0.99817   0.41917   0.66203   0.00000  Uiso   1.00
H1233  H     0.95056   0.41133   0.72107   0.00000  Uiso   1.00
H1234  H     0.94647   0.44771   0.66901   0.00000  Uiso   1.00
C1235  C     0.73331   0.44207   0.68767   0.00000  Uiso   1.00
N1236  N     0.76010   0.41852   0.66095   0.00000  Uiso   1.00
C1237  C     0.69544   0.56401   0.80934   0.00000  Uiso   1.00
H1238  H     0.71526   0.55133   0.83509   0.00000  Uiso   1.00
H1239  H     0.71590   0.58794   0.78137   0.00000  Uiso   1.00
H1240  H     0.99753   0.58049   0.83620   0.00000  Uiso   1.00
C1241  C     0.96322   0.47369   0.89671   0.00000  Uiso   1.00
H1242  H     0.96948   0.46231   0.85521   0.00000  Uiso   1.00
H1243  H     0.98303   0.50328   0.89376   0.00000  Uiso   1.00
H1244  H     0.97572   0.44941   0.91920   0.00000  Uiso   1.00
C1245  C     0.79448   0.53259   0.58905   0.00000  Uiso   1.00
N1246  N     0.75923   0.55003   0.60877   0.00000  Uiso   1.00
C1247  C     0.73055   0.43108   0.90142   0.00000  Uiso   1.00
H1248  H     0.70178   0.41159   0.92651   0.00000  Uiso   1.00
H1249  H     0.71796   0.45108   0.87418   0.00000  Uiso   1.00
H1250  H     0.75640   0.40871   0.87630   0.00000  Uiso   1.00
C1251  C     0.69645   0.43348   0.52269   0.00000  Uiso   1.00
H1252  H     0.68917   0.43887   0.56623   0.00000  Uiso   1.00
H1253  H     0.99929   0.44549   0.51151   0.00000  Uiso   1.00
H1254  H     0.70020   0.39904   0.51547   0.00000  Uiso   1.00
C1255  C     0.88952   0.43381   0.86650   0.00000  Uiso   1.00
N1256  N     0.89952   0.40675   0.83556   0.00000  Uiso   1.00
C1257  C     0.81128   0.62282   0.84970   0.00000  Uiso   1.00
H1258  H     0.84083   0.60176   0.85089   0.00000  Uiso   1.00
H1259  H     0.80429   0.64517   0.88379   0.00000  Uiso   1.00
H1260  H     0.77936   0.60374   0.85535   0.00000  Uiso   1.00
C1261  C     0.16663   0.91297   0.74929   0.00000  Uiso   1.00
C1262  C     0.14981   0.81772   0.98739   0.00000  Uiso   1.00
C1263  C     0.16403   0.81109   0.93223   0.00000  Uiso   1.00
C1264  C     0.18403   0.83067   0.51105   0.00000  Uiso   1.00
C1265  C     0.23234   0.82953   0.98023   0.00000  Uiso   1.00
C1266  C     0.24583   0.81406   0.92744   0.00000  Uiso   1.00
C1267  C     0.21132   0.80053   0.90621   0.00000  Uiso   1.00
C1268  C     0.17220   0.84422   0.56431   0.00000  Uiso   1.00
C1269  C     0.25431   0.84540   0.55937   0.00000  Uiso   1.00
C1270  C     0.12974   0.80990   0.90605   0.00000  Uiso   1.00
C1271  C     0.15678   0.97874   0.79641   0.00000  Uiso   1.00
C1272  C     0.14182   0.82549   0.85011   0.00000  Uiso   1.00
C1273  C     0.15834   0.68849   0.79499   0.00000  Uiso   1.00
C1274  C     0.16900   0.70941   0.74633   0.00000  Uiso   1.00
C1275  C     0.18129   0.68838   0.69672   0.00000  Uiso   1.00
C1276  C     0.17955   0.97766   0.69749   0.00000  Uiso   1.00
C1277  C     0.16675   0.95723   0.74768   0.00000  Uiso   1.00
C1278  C     0.31797   0.80376   0.72116   0.00000  Uiso   1.00
C1279  C     0.03273   0.80460   0.72048   0.00000  Uiso   1.00
C1280  C     0.01510   0.86289   0.77843   0.00000  Uiso   1.00
C1281  C     0.30100   0.86259   0.77807   0.00000  Uiso   1.00
C1282  C     0.16728   0.75362   0.74898   0.00000  Uiso   1.00
C1283  C     0.19217   0.83716   0.64862   0.00000  Uiso   1.00
C1284  C     0.26639   0.84065   0.50432   0.00000  Uiso   1.00
C1285  C     0.20678   0.84314   0.59035   0.00000  Uiso   1.00
C1286  C     0.08722   0.79044   0.93341   0.00000  Uiso   1.00
C1287  C     0.07385   0.78842   0.99013   0.00000  Uiso   1.00
C1288  C     0.10382   0.80532   0.51667   0.00000  Uiso   1.00
H1289  H     0.15172   0.70592   0.83185   0.00000  Uiso   1.00
H1290  H     0.27614   0.88601   0.80042   0.00000  Uiso   1.00
H1291  H     0.30312   0.84262   0.98145   0.00000  Uiso   1.00
H1292  H     0.09318   0.80323   0.55981   0.00000  Uiso   1.00
N1293  N     0.04760   0.83334   0.75002   0.00000  Uiso   1.00
N1294  N     0.28573   0.83331   0.75001   0.00000  Uiso   1.00
O1295  O     0.12846   0.89442   0.75001   0.00000  Uiso   1.00
O1296  O     0.20490   0.89441   0.75001   0.00000  Uiso   1.00
O1297  O     0.10947   0.83333   0.82681   0.00000  Uiso   1.00
O1298  O     0.18591   0.83332   0.82681   0.00000  Uiso   1.00
O1299  O     0.12843   0.77226   0.75000   0.00000  Uiso   1.00
O1300  O     0.20488   0.77225   0.75000   0.00000  Uiso   1.00
O1301  O     0.14742   0.83335   0.67319   0.00000  Uiso   1.00
O1302  O     0.22387   0.83334   0.67319   0.00000  Uiso   1.00
Zn1303 Zn    0.11562   0.83334   0.75000   0.00000  Uiso   1.00
Zn1304 Zn    0.21771   0.83333   0.75000   0.00000  Uiso   1.00
C1305  C     0.29146   0.85347   0.58222   0.00000  Uiso   1.00
N1306  N     0.32125   0.86001   0.60038   0.00000  Uiso   1.00
C1307  C     0.19744   0.71221   0.64413   0.00000  Uiso   1.00
H1308  H     0.17344   0.70628   0.62027   0.00000  Uiso   1.00
H1309  H     0.19856   0.74671   0.64914   0.00000  Uiso   1.00
H1310  H     0.23356   0.70182   0.62114   0.00000  Uiso   1.00
C1311  C     0.19132   0.95174   0.64643   0.00000  Uiso   1.00
H1312  H     0.22202   0.93093   0.64377   0.00000  Uiso   1.00
H1313  H     0.16088   0.93205   0.64725   0.00000  Uiso   1.00
H1314  H     0.19987   0.97054   0.60911   0.00000  Uiso   1.00
C1315  C     0.30224   0.76890   0.69195   0.00000  Uiso   1.00
H1316  H     0.33151   0.75250   0.66203   0.00000  Uiso   1.00
H1317  H     0.28390   0.74466   0.72107   0.00000  Uiso   1.00
H1318  H     0.27980   0.78104   0.66901   0.00000  Uiso   1.00
C1319  C     0.06664   0.77541   0.68767   0.00000  Uiso   1.00
N1320  N     0.09343   0.75185   0.66095   0.00000  Uiso   1.00
C1321  C     0.02878   0.89735   0.80934   0.00000  Uiso   1.00
H1322  H     0.04860   0.88466   0.83509   0.00000  Uiso   1.00
H1323  H     0.04923   0.92127   0.78137   0.00000  Uiso   1.00
H1324  H     0.33087   0.91383   0.83620   0.00000  Uiso   1.00
C1325  C     0.29655   0.80702   0.89671   0.00000  Uiso   1.00
H1326  H     0.30281   0.79564   0.85521   0.00000  Uiso   1.00
H1327  H     0.31637   0.83661   0.89376   0.00000  Uiso   1.00
H1328  H     0.30905   0.78274   0.91920   0.00000  Uiso   1.00
C1329  C     0.12782   0.86593   0.58905   0.00000  Uiso   1.00
N1330  N     0.09257   0.88336   0.60877   0.00000  Uiso   1.00
C1331  C     0.06388   0.76442   0.90142   0.00000  Uiso   1.00
H1332  H     0.03511   0.74493   0.92651   0.00000  Uiso   1.00
H1333  H     0.05130   0.78442   0.87418   0.00000  Uiso   1.00
H1334  H     0.08974   0.74204   0.87630   0.00000  Uiso   1.00
C1335  C     0.02979   0.76681   0.52269   0.00000  Uiso   1.00
H1336  H     0.02250   0.77221   0.56623   0.00000  Uiso   1.00
H1337  H     0.33262   0.77882   0.51151   0.00000  Uiso   1.00
H1338  H     0.03353   0.73237   0.51547   0.00000  Uiso   1.00
C1339  C     0.22285   0.76714   0.86650   0.00000  Uiso   1.00
N1340  N     0.23286   0.74009   0.83556   0.00000  Uiso   1.00
C1341  C     0.14461   0.95616   0.84970   0.00000  Uiso   1.00
H1342  H     0.17416   0.93510   0.85089   0.00000  Uiso   1.00
H1343  H     0.13763   0.97850   0.88379   0.00000  Uiso   1.00
H1344  H     0.11270   0.93707   0.85535   0.00000  Uiso   1.00
C1345  C     0.49996   0.91297   0.74929   0.00000  Uiso   1.00
C1346  C     0.48314   0.81772   0.98739   0.00000  Uiso   1.00
C1347  C     0.49736   0.81109   0.93223   0.00000  Uiso   1.00
C1348  C     0.51736   0.83067   0.51105   0.00000  Uiso   1.00
C1349  C     0.56567   0.82953   0.98023   0.00000  Uiso   1.00
C1350  C     0.57917   0.81406   0.92744   0.00000  Uiso   1.00
C1351  C     0.54465   0.80053   0.90621   0.00000  Uiso   1.00
C1352  C     0.50553   0.84422   0.56431   0.00000  Uiso   1.00
C1353  C     0.58765   0.84540   0.55937   0.00000  Uiso   1.00
C1354  C     0.46307   0.80990   0.90605   0.00000  Uiso   1.00
C1355  C     0.49012   0.97874   0.79641   0.00000  Uiso   1.00
C1356  C     0.47516   0.82549   0.85011   0.00000  Uiso   1.00
C1357  C     0.49167   0.68849   0.79499   0.00000  Uiso   1.00
C1358  C     0.50233   0.70941   0.74633   0.00000  Uiso   1.00
C1359  C     0.51462   0.68838   0.69672   0.00000  Uiso   1.00
C1360  C     0.51288   0.97766   0.69749   0.00000  Uiso   1.00
C1361  C     0.50009   0.95723   0.74768   0.00000  Uiso   1.00
C1362  C     0.65130   0.80376   0.72116   0.00000  Uiso   1.00
C1363  C     0.36606   0.80460   0.72048   0.00000  Uiso   1.00
C1364  C     0.34844   0.86289   0.77843   0.00000  Uiso   1.00
C1365  C     0.63433   0.86259   0.77807   0.00000  Uiso   1.00
C1366  C     0.50061   0.75362   0.74898   0.00000  Uiso   1.00
C1367  C     0.52551   0.83716   0.64862   0.00000  Uiso   1.00
C1368  C     0.59972   0.84065   0.50432   0.00000  Uiso   1.00
C1369  C     0.54011   0.84314   0.59035   0.00000  Uiso   1.00
C1370  C     0.42056   0.79044   0.93341   0.00000  Uiso   1.00
C1371  C     0.40718   0.78842   0.99013   0.00000  Uiso   1.00
C1372  C     0.43715   0.80532   0.51667   0.00000  Uiso   1.00
H1373  H     0.48506   0.70592   0.83185   0.00000  Uiso   1.00
H1374  H     0.60948   0.88601   0.80042   0.00000  Uiso   1.00
H1375  H     0.63645   0.84262   0.98145   0.00000  Uiso   1.00
H1376  H     0.42652   0.80323   0.55981   0.00000  Uiso   1.00
N1377  N     0.38093   0.83334   0.75002   0.00000  Uiso   1.00
N1378  N     0.61906   0.83331   0.75001   0.00000  Uiso   1.00
O1379  O     0.46179   0.89442   0.75001   0.00000  Uiso   1.00
O1380  O     0.53823   0.89441   0.75001   0.00000  Uiso   1.00
O1381  O     0.44280   0.83333   0.82681   0.00000  Uiso   1.00
O1382  O     0.51924   0.83332   0.82681   0.00000  Uiso   1.00
O1383  O     0.46177   0.77226   0.75000   0.00000  Uiso   1.00
O1384  O     0.53821   0.77225   0.75000   0.00000  Uiso   1.00
O1385  O     0.48076   0.83335   0.67319   0.00000  Uiso   1.00
O1386  O     0.55720   0.83334   0.67319   0.00000  Uiso   1.00
Zn1387 Zn    0.44896   0.83334   0.75000   0.00000  Uiso   1.00
Zn1388 Zn    0.55104   0.83333   0.75000   0.00000  Uiso   1.00
C1389  C     0.62479   0.85347   0.58222   0.00000  Uiso   1.00
N1390  N     0.65458   0.86001   0.60038   0.00000  Uiso   1.00
C1391  C     0.53077   0.71221   0.64413   0.00000  Uiso   1.00
H1392  H     0.50677   0.70628   0.62027   0.00000  Uiso   1.00
H1393  H     0.53190   0.74671   0.64914   0.00000  Uiso   1.00
H1394  H     0.56689   0.70182   0.62114   0.00000  Uiso   1.00
C1395  C     0.52466   0.95174   0.64643   0.00000  Uiso   1.00
H1396  H     0.55536   0.93093   0.64377   0.00000  Uiso   1.00
H1397  H     0.49422   0.93205   0.64725   0.00000  Uiso   1.00
H1398  H     0.53320   0.97054   0.60911   0.00000  Uiso   1.00
C1399  C     0.63557   0.76890   0.69195   0.00000  Uiso   1.00
H1400  H     0.66484   0.75250   0.66203   0.00000  Uiso   1.00
H1401  H     0.61723   0.74466   0.72107   0.00000  Uiso   1.00
H1402  H     0.61313   0.78104   0.66901   0.00000  Uiso   1.00
C1403  C     0.39997   0.77541   0.68767   0.00000  Uiso   1.00
N1404  N     0.42677   0.75185   0.66095   0.00000  Uiso   1.00
C1405  C     0.36211   0.89735   0.80934   0.00000  Uiso   1.00
H1406  H     0.38193   0.88466   0.83509   0.00000  Uiso   1.00
H1407  H     0.38257   0.92127   0.78137   0.00000  Uiso   1.00
H1408  H     0.66420   0.91383   0.83620   0.00000  Uiso   1.00
C1409  C     0.62989   0.80702   0.89671   0.00000  Uiso   1.00
H1410  H     0.63615   0.79564   0.85521   0.00000  Uiso   1.00
H1411  H     0.64970   0.83661   0.89376   0.00000  Uiso   1.00
H1412  H     0.64239   0.78274   0.91920   0.00000  Uiso   1.00
C1413  C     0.46115   0.86593   0.58905   0.00000  Uiso   1.00
N1414  N     0.42590   0.88336   0.60877   0.00000  Uiso   1.00
C1415  C     0.39721   0.76442   0.90142   0.00000  Uiso   1.00
H1416  H     0.36844   0.74493   0.92651   0.00000  Uiso   1.00
H1417  H     0.38463   0.78442   0.87418   0.00000  Uiso   1.00
H1418  H     0.42307   0.74204   0.87630   0.00000  Uiso   1.00
C1419  C     0.36312   0.76681   0.52269   0.00000  Uiso   1.00
H1420  H     0.35583   0.77221   0.56623   0.00000  Uiso   1.00
H1421  H     0.66595   0.77882   0.51151   0.00000  Uiso   1.00
H1422  H     0.36687   0.73237   0.51547   0.00000  Uiso   1.00
C1423  C     0.55618   0.76714   0.86650   0.00000  Uiso   1.00
N1424  N     0.56619   0.74009   0.83556   0.00000  Uiso   1.00
C1425  C     0.47794   0.95616   0.84970   0.00000  Uiso   1.00
H1426  H     0.50750   0.93510   0.85089   0.00000  Uiso   1.00
H1427  H     0.47096   0.97850   0.88379   0.00000  Uiso   1.00
H1428  H     0.44603   0.93707   0.85535   0.00000  Uiso   1.00
C1429  C     0.83329   0.91297   0.74929   0.00000  Uiso   1.00
C1430  C     0.81647   0.81772   0.98739   0.00000  Uiso   1.00
C1431  C     0.83070   0.81109   0.93223   0.00000  Uiso   1.00
C1432  C     0.85069   0.83067   0.51105   0.00000  Uiso   1.00
C1433  C     0.89901   0.82953   0.98023   0.00000  Uiso   1.00
C1434  C     0.91250   0.81406   0.92744   0.00000  Uiso   1.00
C1435  C     0.87798   0.80053   0.90621   0.00000  Uiso   1.00
C1436  C     0.83887   0.84422   0.56431   0.00000  Uiso   1.00
C1437  C     0.92098   0.84540   0.55937   0.00000  Uiso   1.00
C1438  C     0.79641   0.80990   0.90605   0.00000  Uiso   1.00
C1439  C     0.82345   0.97874   0.79641   0.00000  Uiso   1.00
C1440  C     0.80849   0.82549   0.85011   0.00000  Uiso   1.00
C1441  C     0.82501   0.68849   0.79499   0.00000  Uiso   1.00
C1442  C     0.83567   0.70941   0.74633   0.00000  Uiso   1.00
C1443  C     0.84796   0.68838   0.69672   0.00000  Uiso   1.00
C1444  C     0.84621   0.97766   0.69749   0.00000  Uiso   1.00
C1445  C     0.83342   0.95723   0.74768   0.00000  Uiso   1.00
C1446  C     0.98464   0.80376   0.72116   0.00000  Uiso   1.00
C1447  C     0.69939   0.80460   0.72048   0.00000  Uiso   1.00
C1448  C     0.68177   0.86289   0.77843   0.00000  Uiso   1.00
C1449  C     0.96766   0.86259   0.77807   0.00000  Uiso   1.00
C1450  C     0.83394   0.75362   0.74898   0.00000  Uiso   1.00
C1451  C     0.85884   0.83716   0.64862   0.00000  Uiso   1.00
C1452  C     0.93306   0.84065   0.50432   0.00000  Uiso   1.00
C1453  C     0.87345   0.84314   0.59035   0.00000  Uiso   1.00
C1454  C     0.75389   0.79044   0.93341   0.00000  Uiso   1.00
C1455  C     0.74052   0.78842   0.99013   0.00000  Uiso   1.00
C1456  C     0.77048   0.80532   0.51667   0.00000  Uiso   1.00
H1457  H     0.81839   0.70592   0.83185   0.00000  Uiso   1.00
H1458  H     0.94281   0.88601   0.80042   0.00000  Uiso   1.00
H1459  H     0.96978   0.84262   0.98145   0.00000  Uiso   1.00
H1460  H     0.75985   0.80323   0.55981   0.00000  Uiso   1.00
N1461  N     0.71426   0.83334   0.75002   0.00000  Uiso   1.00
N1462  N     0.95239   0.83331   0.75001   0.00000  Uiso   1.00
O1463  O     0.79512   0.89442   0.75001   0.00000  Uiso   1.00
O1464  O     0.87157   0.89441   0.75001   0.00000  Uiso   1.00
O1465  O     0.77613   0.83333   0.82681   0.00000  Uiso   1.00
O1466  O     0.85258   0.83332   0.82681   0.00000  Uiso   1.00
O1467  O     0.79510   0.77226   0.75000   0.00000  Uiso   1.00
O1468  O     0.87154   0.77225   0.75000   0.00000  Uiso   1.00
O1469  O     0.81409   0.83335   0.67319   0.00000  Uiso   1.00
O1470  O     0.89053   0.83334   0.67319   0.00000  Uiso   1.00
Zn1471 Zn    0.78229   0.83334   0.75000   0.00000  Uiso   1.00
Zn1472 Zn    0.88438   0.83333   0.75000   0.00000  Uiso   1.00
C1473  C     0.95812   0.85347   0.58222   0.00000  Uiso   1.00
N1474  N     0.98791   0.86001   0.60038   0.00000  Uiso   1.00
C1475  C     0.86411   0.71221   0.64413   0.00000  Uiso   1.00
H1476  H     0.84011   0.70628   0.62027   0.00000  Uiso   1.00
H1477  H     0.86523   0.74671   0.64914   0.00000  Uiso   1.00
H1478  H     0.90022   0.70182   0.62114   0.00000  Uiso   1.00
C1479  C     0.85799   0.95174   0.64643   0.00000  Uiso   1.00
H1480  H     0.88869   0.93093   0.64377   0.00000  Uiso   1.00
H1481  H     0.82755   0.93205   0.64725   0.00000  Uiso   1.00
H1482  H     0.86653   0.97054   0.60911   0.00000  Uiso   1.00
C1483  C     0.96891   0.76890   0.69195   0.00000  Uiso   1.00
H1484  H     0.99817   0.75250   0.66203   0.00000  Uiso   1.00
H1485  H     0.95056   0.74466   0.72107   0.00000  Uiso   1.00
H1486  H     0.94647   0.78104   0.66901   0.00000  Uiso   1.00
C1487  C     0.73331   0.77541   0.68767   0.00000  Uiso   1.00
N1488  N     0.76010   0.75185   0.66095   0.00000  Uiso   1.00
C1489  C     0.69544   0.89735   0.80934   0.00000  Uiso   1.00
H1490  H     0.71526   0.88466   0.83509   0.00000  Uiso   1.00
H1491  H     0.71590   0.92127   0.78137   0.00000  Uiso   1.00
H1492  H     0.99753   0.91383   0.83620   0.00000  Uiso   1.00
C1493  C     0.96322   0.80702   0.89671   0.00000  Uiso   1.00
H1494  H     0.96948   0.79564   0.85521   0.00000  Uiso   1.00
H1495  H     0.98303   0.83661   0.89376   0.00000  Uiso   1.00
H1496  H     0.97572   0.78274   0.91920   0.00000  Uiso   1.00
C1497  C     0.79448   0.86593   0.58905   0.00000  Uiso   1.00
N1498  N     0.75923   0.88336   0.60877   0.00000  Uiso   1.00
C1499  C     0.73055   0.76442   0.90142   0.00000  Uiso   1.00
H1500  H     0.70178   0.74493   0.92651   0.00000  Uiso   1.00
H1501  H     0.71796   0.78442   0.87418   0.00000  Uiso   1.00
H1502  H     0.75640   0.74204   0.87630   0.00000  Uiso   1.00
C1503  C     0.69645   0.76681   0.52269   0.00000  Uiso   1.00
H1504  H     0.68917   0.77221   0.56623   0.00000  Uiso   1.00
H1505  H     0.99929   0.77882   0.51151   0.00000  Uiso   1.00
H1506  H     0.70020   0.73237   0.51547   0.00000  Uiso   1.00
C1507  C     0.88952   0.76714   0.86650   0.00000  Uiso   1.00
N1508  N     0.89952   0.74009   0.83556   0.00000  Uiso   1.00
C1509  C     0.81128   0.95616   0.84970   0.00000  Uiso   1.00
H1510  H     0.84083   0.93510   0.85089   0.00000  Uiso   1.00
H1511  H     0.80429   0.97850   0.88379   0.00000  Uiso   1.00
H1512  H     0.77936   0.93707   0.85535   0.00000  Uiso   1.00
loop_
_geom_bond_atom_site_label_1
_geom_bond_atom_site_label_2
_geom_bond_distance
_geom_bond_site_symmetry_2
_ccdc_geom_bond_type
C1     O35     1.290   .     A
C1     C17     1.407   .     S
C1     O36     1.289   .     A
C2     C3      1.394   .     A
C2     C760    1.421   .     S
C2     C784    1.416   .     S
C3     C7      1.407   .     A
C3     C10     1.404   .     A
C4     C8      1.401   .     A
C4     C758    1.421   1_554 S
C4     C761    1.425   1_554 S
C5     C6      1.408   .     A
C5     C760    1.425   .     S
C5     C780    1.408   .     S
C6     C65     1.499   .     S
C6     C7      1.393   .     A
C7     C79     1.453   .     S
C8     C69     1.454   .     S
C8     C25     1.408   .     A
C9     C45     1.446   .     S
C9     C25     1.409   .     A
C9     C24     1.386   .     A
C10    C26     1.406   .     A
C10    C12     1.485   .     S
C11    C81     1.513   .     S
C11    C17     1.400   .     A
C11    C265    1.371   .     S
C12    O37     1.319   .     A
C12    O38     1.301   .     A
C13    H29     1.080   .     S
C13    C14     1.387   .     A
C13    C515    1.371   1_545 S
C14    C22     1.406   .     S
C14    C15     1.409   .     A
C15    C47     1.517   .     S
C15    C520    1.401   1_545 S
C16    C51     1.520   .     S
C16    C17     1.412   .     A
C16    C267    1.401   .     S
C18    N34     1.385   .     A
C18    C55     1.512   .     S
C18    C103    1.438   .     S
C19    N33     1.367   .     A
C19    C59     1.441   .     S
C19    C186    1.438   1_455 S
C20    C61     1.501   .     S
C20    N33     1.385   .     A
C20    C189    1.426   1_455 S
C21    N34     1.359   .     A
C21    H30     1.083   .     S
C21    C104    1.426   .     S
C22    O40     1.289   .     A
C22    O39     1.293   .     A
C23    O42     1.308   .     A
C23    O41     1.304   .     A
C23    C25     1.468   .     S
C24    C761    1.408   1_554 S
C24    H787    1.082   1_554 S
C26    C71     1.506   .     S
C26    C27     1.419   .     A
C27    C784    1.410   .     S
C27    C831    1.507   .     S
C28    H32     1.080   .     S
C28    C758    1.416   1_554 S
C28    C783    1.410   1_554 S
H31    C780    1.082   .     S
N33    Zn43    2.041   .     S
N34    Zn44    2.041   .     S
O35    Zn43    1.984   .     S
O36    Zn44    1.973   .     S
O37    Zn43    1.968   .     S
O38    Zn44    1.947   .     S
O39    Zn43    1.973   .     S
O40    Zn44    1.984   .     S
O41    Zn43    1.947   .     S
O42    Zn44    1.968   .     S
C45    N46     1.157   .     T
C47    H49     1.107   .     S
C47    H50     1.111   .     S
C47    H48     1.110   .     S
C51    H52     1.111   .     S
C51    H53     1.109   .     S
C51    H54     1.108   .     S
C55    H56     1.106   .     S
C55    H57     1.108   .     S
C55    H58     1.099   .     S
C59    N60     1.157   .     T
C61    H63     1.106   .     S
C61    H62     1.101   .     S
C61    H232    1.109   1_455 S
H64    C145    1.109   .     S
C65    H67     1.109   .     S
C65    H68     1.100   .     S
C65    H66     1.109   .     S
C69    N70     1.158   .     T
C71    H73     1.102   .     S
C71    H74     1.102   .     S
C71    H72     1.105   .     S
C75    H76     1.110   .     S
C75    H78     1.110   .     S
C75    C783    1.507   1_554 S
C75    H245    1.107   1_455 S
H77    C159    1.107   .     S
C79    N80     1.157   .     T
C81    H82     1.111   .     S
C81    H83     1.112   .     S
C81    H84     1.111   .     S
C85    O119    1.290   .     A
C85    C101    1.407   .     S
C85    O120    1.289   .     A
C86    C87     1.394   .     A
C86    C844    1.421   .     S
C86    C868    1.416   .     S
C87    C91     1.407   .     A
C87    C94     1.404   .     A
C88    C92     1.401   .     A
C88    C842    1.421   1_554 S
C88    C845    1.425   1_554 S
C89    C90     1.408   .     A
C89    C844    1.425   .     S
C89    C864    1.408   .     S
C90    C149    1.499   .     S
C90    C91     1.393   .     A
C91    C163    1.453   .     S
C92    C153    1.454   .     S
C92    C109    1.408   .     A
C93    C129    1.446   .     S
C93    C109    1.409   .     A
C93    C108    1.386   .     A
C94    C110    1.406   .     A
C94    C96     1.485   .     S
C95    C165    1.513   .     S
C95    C101    1.400   .     A
C95    C349    1.371   .     S
C96    O121    1.319   .     A
C96    O122    1.301   .     A
C97    H113    1.080   .     S
C97    C98     1.387   .     A
C97    C599    1.371   1_545 S
C98    C106    1.406   .     S
C98    C99     1.409   .     A
C99    C131    1.517   .     S
C99    C604    1.401   1_545 S
C100   C135    1.520   .     S
C100   C101    1.412   .     A
C100   C351    1.401   .     S
C102   N118    1.385   .     A
C102   C139    1.512   .     S
C102   C187    1.438   .     S
C103   N117    1.367   .     A
C103   C143    1.441   .     S
C104   C145    1.501   .     S
C104   N117    1.385   .     A
C105   N118    1.359   .     A
C105   H114    1.083   .     S
C105   C188    1.426   .     S
C106   O124    1.289   .     A
C106   O123    1.293   .     A
C107   O126    1.308   .     A
C107   O125    1.304   .     A
C107   C109    1.468   .     S
C108   C845    1.408   1_554 S
C108   H871    1.082   1_554 S
C110   C155    1.506   .     S
C110   C111    1.419   .     A
C111   C868    1.410   .     S
C111   C915    1.507   .     S
C112   H116    1.080   .     S
C112   C842    1.416   1_554 S
C112   C867    1.410   1_554 S
H115   C864    1.082   .     S
N117   Zn127   2.041   .     S
N118   Zn128   2.041   .     S
O119   Zn127   1.984   .     S
O120   Zn128   1.973   .     S
O121   Zn127   1.968   .     S
O122   Zn128   1.947   .     S
O123   Zn127   1.973   .     S
O124   Zn128   1.984   .     S
O125   Zn127   1.947   .     S
O126   Zn128   1.968   .     S
C129   N130    1.157   .     T
C131   H133    1.107   .     S
C131   H134    1.111   .     S
C131   H132    1.110   .     S
C135   H136    1.111   .     S
C135   H137    1.109   .     S
C135   H138    1.108   .     S
C139   H140    1.106   .     S
C139   H141    1.108   .     S
C139   H142    1.099   .     S
C143   N144    1.157   .     T
C145   H147    1.106   .     S
C145   H146    1.101   .     S
H148   C229    1.109   .     S
C149   H151    1.109   .     S
C149   H152    1.100   .     S
C149   H150    1.109   .     S
C153   N154    1.158   .     T
C155   H157    1.102   .     S
C155   H158    1.102   .     S
C155   H156    1.105   .     S
C159   H160    1.110   .     S
C159   H162    1.110   .     S
C159   C867    1.507   1_554 S
H161   C243    1.107   .     S
C163   N164    1.157   .     T
C165   H166    1.111   .     S
C165   H167    1.112   .     S
C165   H168    1.111   .     S
C169   O203    1.290   .     A
C169   C185    1.407   .     S
C169   O204    1.289   .     A
C170   C171    1.394   .     A
C170   C928    1.421   .     S
C170   C952    1.416   .     S
C171   C175    1.407   .     A
C171   C178    1.404   .     A
C172   C176    1.401   .     A
C172   C926    1.421   1_554 S
C172   C929    1.425   1_554 S
C173   C174    1.408   .     A
C173   C928    1.425   .     S
C173   C948    1.408   .     S
C174   C233    1.499   .     S
C174   C175    1.393   .     A
C175   C247    1.453   .     S
C176   C237    1.454   .     S
C176   C193    1.408   .     A
C177   C213    1.446   .     S
C177   C193    1.409   .     A
C177   C192    1.386   .     A
C178   C194    1.406   .     A
C178   C180    1.485   .     S
C179   C249    1.513   .     S
C179   C185    1.400   .     A
C179   C433    1.371   .     S
C180   O205    1.319   .     A
C180   O206    1.301   .     A
C181   H197    1.080   .     S
C181   C182    1.387   .     A
C181   C683    1.371   1_545 S
C182   C190    1.406   .     S
C182   C183    1.409   .     A
C183   C215    1.517   .     S
C183   C688    1.401   1_545 S
C184   C219    1.520   .     S
C184   C185    1.412   .     A
C184   C435    1.401   .     S
C186   N202    1.385   .     A
C186   C223    1.512   .     S
C186   C19     1.438   1_655 S
C187   N201    1.367   .     A
C187   C227    1.441   .     S
C188   C229    1.501   .     S
C188   N201    1.385   .     A
C189   N202    1.359   .     A
C189   H198    1.083   .     S
C189   C20     1.426   1_655 S
C190   O208    1.289   .     A
C190   O207    1.293   .     A
C191   O210    1.308   .     A
C191   O209    1.304   .     A
C191   C193    1.468   .     S
C192   C929    1.408   1_554 S
C192   H955    1.082   1_554 S
C194   C239    1.506   .     S
C194   C195    1.419   .     A
C195   C952    1.410   .     S
C195   C999    1.507   .     S
C196   H200    1.080   .     S
C196   C926    1.416   1_554 S
C196   C951    1.410   1_554 S
H199   C948    1.082   .     S
N201   Zn211   2.041   .     S
N202   Zn212   2.041   .     S
O203   Zn211   1.984   .     S
O204   Zn212   1.973   .     S
O205   Zn211   1.968   .     S
O206   Zn212   1.947   .     S
O207   Zn211   1.973   .     S
O208   Zn212   1.984   .     S
O209   Zn211   1.947   .     S
O210   Zn212   1.968   .     S
C213   N214    1.157   .     T
C215   H217    1.107   .     S
C215   H218    1.111   .     S
C215   H216    1.110   .     S
C219   H220    1.111   .     S
C219   H221    1.109   .     S
C219   H222    1.108   .     S
C223   H224    1.106   .     S
C223   H225    1.108   .     S
C223   H226    1.099   .     S
C227   N228    1.157   .     T
C229   H231    1.106   .     S
C229   H230    1.101   .     S
H232   C61     1.109   1_655 S
C233   H235    1.109   .     S
C233   H236    1.100   .     S
C233   H234    1.109   .     S
C237   N238    1.158   .     T
C239   H241    1.102   .     S
C239   H242    1.102   .     S
C239   H240    1.105   .     S
C243   H244    1.110   .     S
C243   H246    1.110   .     S
C243   C951    1.507   1_554 S
H245   C75     1.107   1_655 S
C247   N248    1.157   .     T
C249   H250    1.111   .     S
C249   H251    1.112   .     S
C249   H252    1.111   .     S
C253   O287    1.290   .     A
C253   C269    1.407   .     S
C253   O288    1.289   .     A
C254   C255    1.394   .     A
C254   C1012   1.421   .     S
C254   C1036   1.416   .     S
C255   C259    1.407   .     A
C255   C262    1.404   .     A
C256   C260    1.401   .     A
C256   C1010   1.421   1_554 S
C256   C1013   1.425   1_554 S
C257   C258    1.408   .     A
C257   C1012   1.425   .     S
C257   C1032   1.408   .     S
C258   C317    1.499   .     S
C258   C259    1.393   .     A
C259   C331    1.453   .     S
C260   C321    1.454   .     S
C260   C277    1.408   .     A
C261   C297    1.446   .     S
C261   C277    1.409   .     A
C261   C276    1.386   .     A
C262   C278    1.406   .     A
C262   C264    1.485   .     S
C263   C333    1.513   .     S
C263   C269    1.400   .     A
C263   C517    1.371   .     S
C264   O289    1.319   .     A
C264   O290    1.301   .     A
C265   H281    1.080   .     S
C265   C266    1.387   .     A
C266   C274    1.406   .     S
C266   C267    1.409   .     A
C267   C299    1.517   .     S
C268   C303    1.520   .     S
C268   C269    1.412   .     A
C268   C519    1.401   .     S
C270   N286    1.385   .     A
C270   C307    1.512   .     S
C270   C355    1.438   .     S
C271   N285    1.367   .     A
C271   C311    1.441   .     S
C271   C438    1.438   1_455 S
C272   C313    1.501   .     S
C272   N285    1.385   .     A
C272   C441    1.426   1_455 S
C273   N286    1.359   .     A
C273   H282    1.083   .     S
C273   C356    1.426   .     S
C274   O292    1.289   .     A
C274   O291    1.293   .     A
C275   O294    1.308   .     A
C275   O293    1.304   .     A
C275   C277    1.468   .     S
C276   C1013   1.408   1_554 S
C276   H1039   1.082   1_554 S
C278   C323    1.506   .     S
C278   C279    1.419   .     A
C279   C1036   1.410   .     S
C279   C1083   1.507   .     S
C280   H284    1.080   .     S
C280   C1010   1.416   1_554 S
C280   C1035   1.410   1_554 S
H283   C1032   1.082   .     S
N285   Zn295   2.041   .     S
N286   Zn296   2.041   .     S
O287   Zn295   1.984   .     S
O288   Zn296   1.973   .     S
O289   Zn295   1.968   .     S
O290   Zn296   1.947   .     S
O291   Zn295   1.973   .     S
O292   Zn296   1.984   .     S
O293   Zn295   1.947   .     S
O294   Zn296   1.968   .     S
C297   N298    1.157   .     T
C299   H301    1.107   .     S
C299   H302    1.111   .     S
C299   H300    1.110   .     S
C303   H304    1.111   .     S
C303   H305    1.109   .     S
C303   H306    1.108   .     S
C307   H308    1.106   .     S
C307   H309    1.108   .     S
C307   H310    1.099   .     S
C311   N312    1.157   .     T
C313   H315    1.106   .     S
C313   H314    1.101   .     S
C313   H484    1.109   1_455 S
H316   C397    1.109   .     S
C317   H319    1.109   .     S
C317   H320    1.100   .     S
C317   H318    1.109   .     S
C321   N322    1.158   .     T
C323   H325    1.102   .     S
C323   H326    1.102   .     S
C323   H324    1.105   .     S
C327   H328    1.110   .     S
C327   H330    1.110   .     S
C327   C1035   1.507   1_554 S
C327   H497    1.107   1_455 S
H329   C411    1.107   .     S
C331   N332    1.157   .     T
C333   H334    1.111   .     S
C333   H335    1.112   .     S
C333   H336    1.111   .     S
C337   O371    1.290   .     A
C337   C353    1.407   .     S
C337   O372    1.289   .     A
C338   C339    1.394   .     A
C338   C1096   1.421   .     S
C338   C1120   1.416   .     S
C339   C343    1.407   .     A
C339   C346    1.404   .     A
C340   C344    1.401   .     A
C340   C1094   1.421   1_554 S
C340   C1097   1.425   1_554 S
C341   C342    1.408   .     A
C341   C1096   1.425   .     S
C341   C1116   1.408   .     S
C342   C401    1.499   .     S
C342   C343    1.393   .     A
C343   C415    1.453   .     S
C344   C405    1.454   .     S
C344   C361    1.408   .     A
C345   C381    1.446   .     S
C345   C361    1.409   .     A
C345   C360    1.386   .     A
C346   C362    1.406   .     A
C346   C348    1.485   .     S
C347   C417    1.513   .     S
C347   C353    1.400   .     A
C347   C601    1.371   .     S
C348   O373    1.319   .     A
C348   O374    1.301   .     A
C349   H365    1.080   .     S
C349   C350    1.387   .     A
C350   C358    1.406   .     S
C350   C351    1.409   .     A
C351   C383    1.517   .     S
C352   C387    1.520   .     S
C352   C353    1.412   .     A
C352   C603    1.401   .     S
C354   N370    1.385   .     A
C354   C391    1.512   .     S
C354   C439    1.438   .     S
C355   N369    1.367   .     A
C355   C395    1.441   .     S
C356   C397    1.501   .     S
C356   N369    1.385   .     A
C357   N370    1.359   .     A
C357   H366    1.083   .     S
C357   C440    1.426   .     S
C358   O376    1.289   .     A
C358   O375    1.293   .     A
C359   O378    1.308   .     A
C359   O377    1.304   .     A
C359   C361    1.468   .     S
C360   C1097   1.408   1_554 S
C360   H1123   1.082   1_554 S
C362   C407    1.506   .     S
C362   C363    1.419   .     A
C363   C1120   1.410   .     S
C363   C1167   1.507   .     S
C364   H368    1.080   .     S
C364   C1094   1.416   1_554 S
C364   C1119   1.410   1_554 S
H367   C1116   1.082   .     S
N369   Zn379   2.041   .     S
N370   Zn380   2.041   .     S
O371   Zn379   1.984   .     S
O372   Zn380   1.973   .     S
O373   Zn379   1.968   .     S
O374   Zn380   1.947   .     S
O375   Zn379   1.973   .     S
O376   Zn380   1.984   .     S
O377   Zn379   1.947   .     S
O378   Zn380   1.968   .     S
C381   N382    1.157   .     T
C383   H385    1.107   .     S
C383   H386    1.111   .     S
C383   H384    1.110   .     S
C387   H388    1.111   .     S
C387   H389    1.109   .     S
C387   H390    1.108   .     S
C391   H392    1.106   .     S
C391   H393    1.108   .     S
C391   H394    1.099   .     S
C395   N396    1.157   .     T
C397   H399    1.106   .     S
C397   H398    1.101   .     S
H400   C481    1.109   .     S
C401   H403    1.109   .     S
C401   H404    1.100   .     S
C401   H402    1.109   .     S
C405   N406    1.158   .     T
C407   H409    1.102   .     S
C407   H410    1.102   .     S
C407   H408    1.105   .     S
C411   H412    1.110   .     S
C411   H414    1.110   .     S
C411   C1119   1.507   1_554 S
H413   C495    1.107   .     S
C415   N416    1.157   .     T
C417   H418    1.111   .     S
C417   H419    1.112   .     S
C417   H420    1.111   .     S
C421   O455    1.290   .     A
C421   C437    1.407   .     S
C421   O456    1.289   .     A
C422   C423    1.394   .     A
C422   C1180   1.421   .     S
C422   C1204   1.416   .     S
C423   C427    1.407   .     A
C423   C430    1.404   .     A
C424   C428    1.401   .     A
C424   C1178   1.421   1_554 S
C424   C1181   1.425   1_554 S
C425   C426    1.408   .     A
C425   C1180   1.425   .     S
C425   C1200   1.408   .     S
C426   C485    1.499   .     S
C426   C427    1.393   .     A
C427   C499    1.453   .     S
C428   C489    1.454   .     S
C428   C445    1.408   .     A
C429   C465    1.446   .     S
C429   C445    1.409   .     A
C429   C444    1.386   .     A
C430   C446    1.406   .     A
C430   C432    1.485   .     S
C431   C501    1.513   .     S
C431   C437    1.400   .     A
C431   C685    1.371   .     S
C432   O457    1.319   .     A
C432   O458    1.301   .     A
C433   H449    1.080   .     S
C433   C434    1.387   .     A
C434   C442    1.406   .     S
C434   C435    1.409   .     A
C435   C467    1.517   .     S
C436   C471    1.520   .     S
C436   C437    1.412   .     A
C436   C687    1.401   .     S
C438   N454    1.385   .     A
C438   C475    1.512   .     S
C438   C271    1.438   1_655 S
C439   N453    1.367   .     A
C439   C479    1.441   .     S
C440   C481    1.501   .     S
C440   N453    1.385   .     A
C441   N454    1.359   .     A
C441   H450    1.083   .     S
C441   C272    1.426   1_655 S
C442   O460    1.289   .     A
C442   O459    1.293   .     A
C443   O462    1.308   .     A
C443   O461    1.304   .     A
C443   C445    1.468   .     S
C444   C1181   1.408   1_554 S
C444   H1207   1.082   1_554 S
C446   C491    1.506   .     S
C446   C447    1.419   .     A
C447   C1204   1.410   .     S
C447   C1251   1.507   .     S
C448   H452    1.080   .     S
C448   C1178   1.416   1_554 S
C448   C1203   1.410   1_554 S
H451   C1200   1.082   .     S
N453   Zn463   2.041   .     S
N454   Zn464   2.041   .     S
O455   Zn463   1.984   .     S
O456   Zn464   1.973   .     S
O457   Zn463   1.968   .     S
O458   Zn464   1.947   .     S
O459   Zn463   1.973   .     S
O460   Zn464   1.984   .     S
O461   Zn463   1.947   .     S
O462   Zn464   1.968   .     S
C465   N466    1.157   .     T
C467   H469    1.107   .     S
C467   H470    1.111   .     S
C467   H468    1.110   .     S
C471   H472    1.111   .     S
C471   H473    1.109   .     S
C471   H474    1.108   .     S
C475   H476    1.106   .     S
C475   H477    1.108   .     S
C475   H478    1.099   .     S
C479   N480    1.157   .     T
C481   H483    1.106   .     S
C481   H482    1.101   .     S
H484   C313    1.109   1_655 S
C485   H487    1.109   .     S
C485   H488    1.100   .     S
C485   H486    1.109   .     S
C489   N490    1.158   .     T
C491   H493    1.102   .     S
C491   H494    1.102   .     S
C491   H492    1.105   .     S
C495   H496    1.110   .     S
C495   H498    1.110   .     S
C495   C1203   1.507   1_554 S
H497   C327    1.107   1_655 S
C499   N500    1.157   .     T
C501   H502    1.111   .     S
C501   H503    1.112   .     S
C501   H504    1.111   .     S
C505   O539    1.290   .     A
C505   C521    1.407   .     S
C505   O540    1.289   .     A
C506   C507    1.394   .     A
C506   C1264   1.421   .     S
C506   C1288   1.416   .     S
C507   C511    1.407   .     A
C507   C514    1.404   .     A
C508   C512    1.401   .     A
C508   C1262   1.421   1_554 S
C508   C1265   1.425   1_554 S
C509   C510    1.408   .     A
C509   C1264   1.425   .     S
C509   C1284   1.408   .     S
C510   C569    1.499   .     S
C510   C511    1.393   .     A
C511   C583    1.453   .     S
C512   C573    1.454   .     S
C512   C529    1.408   .     A
C513   C549    1.446   .     S
C513   C529    1.409   .     A
C513   C528    1.386   .     A
C514   C530    1.406   .     A
C514   C516    1.485   .     S
C515   C585    1.513   .     S
C515   C521    1.400   .     A
C515   C13     1.371   1_565 S
C516   O541    1.319   .     A
C516   O542    1.301   .     A
C517   H533    1.080   .     S
C517   C518    1.387   .     A
C518   C526    1.406   .     S
C518   C519    1.409   .     A
C519   C551    1.517   .     S
C520   C555    1.520   .     S
C520   C521    1.412   .     A
C520   C15     1.401   1_565 S
C522   N538    1.385   .     A
C522   C559    1.512   .     S
C522   C607    1.438   .     S
C523   N537    1.367   .     A
C523   C563    1.441   .     S
C523   C690    1.438   1_455 S
C524   C565    1.501   .     S
C524   N537    1.385   .     A
C524   C693    1.426   1_455 S
C525   N538    1.359   .     A
C525   H534    1.083   .     S
C525   C608    1.426   .     S
C526   O544    1.289   .     A
C526   O543    1.293   .     A
C527   O546    1.308   .     A
C527   O545    1.304   .     A
C527   C529    1.468   .     S
C528   C1265   1.408   1_554 S
C528   H1291   1.082   1_554 S
C530   C575    1.506   .     S
C530   C531    1.419   .     A
C531   C1288   1.410   .     S
C531   C1335   1.507   .     S
C532   H536    1.080   .     S
C532   C1262   1.416   1_554 S
C532   C1287   1.410   1_554 S
H535   C1284   1.082   .     S
N537   Zn547   2.041   .     S
N538   Zn548   2.041   .     S
O539   Zn547   1.984   .     S
O540   Zn548   1.973   .     S
O541   Zn547   1.968   .     S
O542   Zn548   1.947   .     S
O543   Zn547   1.973   .     S
O544   Zn548   1.984   .     S
O545   Zn547   1.947   .     S
O546   Zn548   1.968   .     S
C549   N550    1.157   .     T
C551   H553    1.107   .     S
C551   H554    1.111   .     S
C551   H552    1.110   .     S
C555   H556    1.111   .     S
C555   H557    1.109   .     S
C555   H558    1.108   .     S
C559   H560    1.106   .     S
C559   H561    1.108   .     S
C559   H562    1.099   .     S
C563   N564    1.157   .     T
C565   H567    1.106   .     S
C565   H566    1.101   .     S
C565   H736    1.109   1_455 S
H568   C649    1.109   .     S
C569   H571    1.109   .     S
C569   H572    1.100   .     S
C569   H570    1.109   .     S
C573   N574    1.158   .     T
C575   H577    1.102   .     S
C575   H578    1.102   .     S
C575   H576    1.105   .     S
C579   H580    1.110   .     S
C579   H582    1.110   .     S
C579   C1287   1.507   1_554 S
C579   H749    1.107   1_455 S
H581   C663    1.107   .     S
C583   N584    1.157   .     T
C585   H586    1.111   .     S
C585   H587    1.112   .     S
C585   H588    1.111   .     S
C589   O623    1.290   .     A
C589   C605    1.407   .     S
C589   O624    1.289   .     A
C590   C591    1.394   .     A
C590   C1348   1.421   .     S
C590   C1372   1.416   .     S
C591   C595    1.407   .     A
C591   C598    1.404   .     A
C592   C596    1.401   .     A
C592   C1346   1.421   1_554 S
C592   C1349   1.425   1_554 S
C593   C594    1.408   .     A
C593   C1348   1.425   .     S
C593   C1368   1.408   .     S
C594   C653    1.499   .     S
C594   C595    1.393   .     A
C595   C667    1.453   .     S
C596   C657    1.454   .     S
C596   C613    1.408   .     A
C597   C633    1.446   .     S
C597   C613    1.409   .     A
C597   C612    1.386   .     A
C598   C614    1.406   .     A
C598   C600    1.485   .     S
C599   C669    1.513   .     S
C599   C605    1.400   .     A
C599   C97     1.371   1_565 S
C600   O625    1.319   .     A
C600   O626    1.301   .     A
C601   H617    1.080   .     S
C601   C602    1.387   .     A
C602   C610    1.406   .     S
C602   C603    1.409   .     A
C603   C635    1.517   .     S
C604   C639    1.520   .     S
C604   C605    1.412   .     A
C604   C99     1.401   1_565 S
C606   N622    1.385   .     A
C606   C643    1.512   .     S
C606   C691    1.438   .     S
C607   N621    1.367   .     A
C607   C647    1.441   .     S
C608   C649    1.501   .     S
C608   N621    1.385   .     A
C609   N622    1.359   .     A
C609   H618    1.083   .     S
C609   C692    1.426   .     S
C610   O628    1.289   .     A
C610   O627    1.293   .     A
C611   O630    1.308   .     A
C611   O629    1.304   .     A
C611   C613    1.468   .     S
C612   C1349   1.408   1_554 S
C612   H1375   1.082   1_554 S
C614   C659    1.506   .     S
C614   C615    1.419   .     A
C615   C1372   1.410   .     S
C615   C1419   1.507   .     S
C616   H620    1.080   .     S
C616   C1346   1.416   1_554 S
C616   C1371   1.410   1_554 S
H619   C1368   1.082   .     S
N621   Zn631   2.041   .     S
N622   Zn632   2.041   .     S
O623   Zn631   1.984   .     S
O624   Zn632   1.973   .     S
O625   Zn631   1.968   .     S
O626   Zn632   1.947   .     S
O627   Zn631   1.973   .     S
O628   Zn632   1.984   .     S
O629   Zn631   1.947   .     S
O630   Zn632   1.968   .     S
C633   N634    1.157   .     T
C635   H637    1.107   .     S
C635   H638    1.111   .     S
C635   H636    1.110   .     S
C639   H640    1.111   .     S
C639   H641    1.109   .     S
C639   H642    1.108   .     S
C643   H644    1.106   .     S
C643   H645    1.108   .     S
C643   H646    1.099   .     S
C647   N648    1.157   .     T
C649   H651    1.106   .     S
C649   H650    1.101   .     S
H652   C733    1.109   .     S
C653   H655    1.109   .     S
C653   H656    1.100   .     S
C653   H654    1.109   .     S
C657   N658    1.158   .     T
C659   H661    1.102   .     S
C659   H662    1.102   .     S
C659   H660    1.105   .     S
C663   H664    1.110   .     S
C663   H666    1.110   .     S
C663   C1371   1.507   1_554 S
H665   C747    1.107   .     S
C667   N668    1.157   .     T
C669   H670    1.111   .     S
C669   H671    1.112   .     S
C669   H672    1.111   .     S
C673   O707    1.290   .     A
C673   C689    1.407   .     S
C673   O708    1.289   .     A
C674   C675    1.394   .     A
C674   C1432   1.421   .     S
C674   C1456   1.416   .     S
C675   C679    1.407   .     A
C675   C682    1.404   .     A
C676   C680    1.401   .     A
C676   C1430   1.421   1_554 S
C676   C1433   1.425   1_554 S
C677   C678    1.408   .     A
C677   C1432   1.425   .     S
C677   C1452   1.408   .     S
C678   C737    1.499   .     S
C678   C679    1.393   .     A
C679   C751    1.453   .     S
C680   C741    1.454   .     S
C680   C697    1.408   .     A
C681   C717    1.446   .     S
C681   C697    1.409   .     A
C681   C696    1.386   .     A
C682   C698    1.406   .     A
C682   C684    1.485   .     S
C683   C753    1.513   .     S
C683   C689    1.400   .     A
C683   C181    1.371   1_565 S
C684   O709    1.319   .     A
C684   O710    1.301   .     A
C685   H701    1.080   .     S
C685   C686    1.387   .     A
C686   C694    1.406   .     S
C686   C687    1.409   .     A
C687   C719    1.517   .     S
C688   C723    1.520   .     S
C688   C689    1.412   .     A
C688   C183    1.401   1_565 S
C690   N706    1.385   .     A
C690   C727    1.512   .     S
C690   C523    1.438   1_655 S
C691   N705    1.367   .     A
C691   C731    1.441   .     S
C692   C733    1.501   .     S
C692   N705    1.385   .     A
C693   N706    1.359   .     A
C693   H702    1.083   .     S
C693   C524    1.426   1_655 S
C694   O712    1.289   .     A
C694   O711    1.293   .     A
C695   O714    1.308   .     A
C695   O713    1.304   .     A
C695   C697    1.468   .     S
C696   C1433   1.408   1_554 S
C696   H1459   1.082   1_554 S
C698   C743    1.506   .     S
C698   C699    1.419   .     A
C699   C1456   1.410   .     S
C699   C1503   1.507   .     S
C700   H704    1.080   .     S
C700   C1430   1.416   1_554 S
C700   C1455   1.410   1_554 S
H703   C1452   1.082   .     S
N705   Zn715   2.041   .     S
N706   Zn716   2.041   .     S
O707   Zn715   1.984   .     S
O708   Zn716   1.973   .     S
O709   Zn715   1.968   .     S
O710   Zn716   1.947   .     S
O711   Zn715   1.973   .     S
O712   Zn716   1.984   .     S
O713   Zn715   1.947   .     S
O714   Zn716   1.968   .     S
C717   N718    1.157   .     T
C719   H721    1.107   .     S
C719   H722    1.111   .     S
C719   H720    1.110   .     S
C723   H724    1.111   .     S
C723   H725    1.109   .     S
C723   H726    1.108   .     S
C727   H728    1.106   .     S
C727   H729    1.108   .     S
C727   H730    1.099   .     S
C731   N732    1.157   .     T
C733   H735    1.106   .     S
C733   H734    1.101   .     S
H736   C565    1.109   1_655 S
C737   H739    1.109   .     S
C737   H740    1.100   .     S
C737   H738    1.109   .     S
C741   N742    1.158   .     T
C743   H745    1.102   .     S
C743   H746    1.102   .     S
C743   H744    1.105   .     S
C747   H748    1.110   .     S
C747   H750    1.110   .     S
C747   C1455   1.507   1_554 S
H749   C579    1.107   1_655 S
C751   N752    1.157   .     T
C753   H754    1.111   .     S
C753   H755    1.112   .     S
C753   H756    1.111   .     S
C757   O791    1.290   .     A
C757   C773    1.407   .     S
C757   O792    1.289   .     A
C758   C759    1.394   .     A
C758   C4      1.421   1_556 S
C758   C28     1.416   1_556 S
C759   C763    1.407   .     A
C759   C766    1.404   .     A
C760   C764    1.401   .     A
C761   C762    1.408   .     A
C761   C4      1.425   1_556 S
C761   C24     1.408   1_556 S
C762   C821    1.499   .     S
C762   C763    1.393   .     A
C763   C835    1.453   .     S
C764   C825    1.454   .     S
C764   C781    1.408   .     A
C765   C801    1.446   .     S
C765   C781    1.409   .     A
C765   C780    1.386   .     A
C766   C782    1.406   .     A
C766   C768    1.485   .     S
C767   C837    1.513   .     S
C767   C773    1.400   .     A
C767   C1021   1.371   .     S
C768   O793    1.319   .     A
C768   O794    1.301   .     A
C769   H785    1.080   .     S
C769   C770    1.387   .     A
C769   C1271   1.371   1_545 S
C770   C778    1.406   .     S
C770   C771    1.409   .     A
C771   C803    1.517   .     S
C771   C1276   1.401   1_545 S
C772   C807    1.520   .     S
C772   C773    1.412   .     A
C772   C1023   1.401   .     S
C774   N790    1.385   .     A
C774   C811    1.512   .     S
C774   C859    1.438   .     S
C775   N789    1.367   .     A
C775   C815    1.441   .     S
C775   C942    1.438   1_455 S
C776   C817    1.501   .     S
C776   N789    1.385   .     A
C776   C945    1.426   1_455 S
C777   N790    1.359   .     A
C777   H786    1.083   .     S
C777   C860    1.426   .     S
C778   O796    1.289   .     A
C778   O795    1.293   .     A
C779   O798    1.308   .     A
C779   O797    1.304   .     A
C779   C781    1.468   .     S
C782   C827    1.506   .     S
C782   C783    1.419   .     A
C783   C28     1.410   1_556 S
C783   C75     1.507   1_556 S
C784   H788    1.080   .     S
H787   C24     1.082   1_556 S
N789   Zn799   2.041   .     S
N790   Zn800   2.041   .     S
O791   Zn799   1.984   .     S
O792   Zn800   1.973   .     S
O793   Zn799   1.968   .     S
O794   Zn800   1.947   .     S
O795   Zn799   1.973   .     S
O796   Zn800   1.984   .     S
O797   Zn799   1.947   .     S
O798   Zn800   1.968   .     S
C801   N802    1.157   .     T
C803   H805    1.107   .     S
C803   H806    1.111   .     S
C803   H804    1.110   .     S
C807   H808    1.111   .     S
C807   H809    1.109   .     S
C807   H810    1.108   .     S
C811   H812    1.106   .     S
C811   H813    1.108   .     S
C811   H814    1.099   .     S
C815   N816    1.157   .     T
C817   H819    1.106   .     S
C817   H818    1.101   .     S
C817   H988    1.109   1_455 S
H820   C901    1.109   .     S
C821   H823    1.109   .     S
C821   H824    1.100   .     S
C821   H822    1.109   .     S
C825   N826    1.158   .     T
C827   H829    1.102   .     S
C827   H830    1.102   .     S
C827   H828    1.105   .     S
C831   H832    1.110   .     S
C831   H834    1.110   .     S
C831   H1001   1.107   1_455 S
H833   C915    1.107   .     S
C835   N836    1.157   .     T
C837   H838    1.111   .     S
C837   H839    1.112   .     S
C837   H840    1.111   .     S
C841   O875    1.290   .     A
C841   C857    1.407   .     S
C841   O876    1.289   .     A
C842   C843    1.394   .     A
C842   C88     1.421   1_556 S
C842   C112    1.416   1_556 S
C843   C847    1.407   .     A
C843   C850    1.404   .     A
C844   C848    1.401   .     A
C845   C846    1.408   .     A
C845   C88     1.425   1_556 S
C845   C108    1.408   1_556 S
C846   C905    1.499   .     S
C846   C847    1.393   .     A
C847   C919    1.453   .     S
C848   C909    1.454   .     S
C848   C865    1.408   .     A
C849   C885    1.446   .     S
C849   C865    1.409   .     A
C849   C864    1.386   .     A
C850   C866    1.406   .     A
C850   C852    1.485   .     S
C851   C921    1.513   .     S
C851   C857    1.400   .     A
C851   C1105   1.371   .     S
C852   O877    1.319   .     A
C852   O878    1.301   .     A
C853   H869    1.080   .     S
C853   C854    1.387   .     A
C853   C1355   1.371   1_545 S
C854   C862    1.406   .     S
C854   C855    1.409   .     A
C855   C887    1.517   .     S
C855   C1360   1.401   1_545 S
C856   C891    1.520   .     S
C856   C857    1.412   .     A
C856   C1107   1.401   .     S
C858   N874    1.385   .     A
C858   C895    1.512   .     S
C858   C943    1.438   .     S
C859   N873    1.367   .     A
C859   C899    1.441   .     S
C860   C901    1.501   .     S
C860   N873    1.385   .     A
C861   N874    1.359   .     A
C861   H870    1.083   .     S
C861   C944    1.426   .     S
C862   O880    1.289   .     A
C862   O879    1.293   .     A
C863   O882    1.308   .     A
C863   O881    1.304   .     A
C863   C865    1.468   .     S
C866   C911    1.506   .     S
C866   C867    1.419   .     A
C867   C112    1.410   1_556 S
C867   C159    1.507   1_556 S
C868   H872    1.080   .     S
H871   C108    1.082   1_556 S
N873   Zn883   2.041   .     S
N874   Zn884   2.041   .     S
O875   Zn883   1.984   .     S
O876   Zn884   1.973   .     S
O877   Zn883   1.968   .     S
O878   Zn884   1.947   .     S
O879   Zn883   1.973   .     S
O880   Zn884   1.984   .     S
O881   Zn883   1.947   .     S
O882   Zn884   1.968   .     S
C885   N886    1.157   .     T
C887   H889    1.107   .     S
C887   H890    1.111   .     S
C887   H888    1.110   .     S
C891   H892    1.111   .     S
C891   H893    1.109   .     S
C891   H894    1.108   .     S
C895   H896    1.106   .     S
C895   H897    1.108   .     S
C895   H898    1.099   .     S
C899   N900    1.157   .     T
C901   H903    1.106   .     S
C901   H902    1.101   .     S
H904   C985    1.109   .     S
C905   H907    1.109   .     S
C905   H908    1.100   .     S
C905   H906    1.109   .     S
C909   N910    1.158   .     T
C911   H913    1.102   .     S
C911   H914    1.102   .     S
C911   H912    1.105   .     S
C915   H916    1.110   .     S
C915   H918    1.110   .     S
H917   C999    1.107   .     S
C919   N920    1.157   .     T
C921   H922    1.111   .     S
C921   H923    1.112   .     S
C921   H924    1.111   .     S
C925   O959    1.290   .     A
C925   C941    1.407   .     S
C925   O960    1.289   .     A
C926   C927    1.394   .     A
C926   C172    1.421   1_556 S
C926   C196    1.416   1_556 S
C927   C931    1.407   .     A
C927   C934    1.404   .     A
C928   C932    1.401   .     A
C929   C930    1.408   .     A
C929   C172    1.425   1_556 S
C929   C192    1.408   1_556 S
C930   C989    1.499   .     S
C930   C931    1.393   .     A
C931   C1003   1.453   .     S
C932   C993    1.454   .     S
C932   C949    1.408   .     A
C933   C969    1.446   .     S
C933   C949    1.409   .     A
C933   C948    1.386   .     A
C934   C950    1.406   .     A
C934   C936    1.485   .     S
C935   C1005   1.513   .     S
C935   C941    1.400   .     A
C935   C1189   1.371   .     S
C936   O961    1.319   .     A
C936   O962    1.301   .     A
C937   H953    1.080   .     S
C937   C938    1.387   .     A
C937   C1439   1.371   1_545 S
C938   C946    1.406   .     S
C938   C939    1.409   .     A
C939   C971    1.517   .     S
C939   C1444   1.401   1_545 S
C940   C975    1.520   .     S
C940   C941    1.412   .     A
C940   C1191   1.401   .     S
C942   N958    1.385   .     A
C942   C979    1.512   .     S
C942   C775    1.438   1_655 S
C943   N957    1.367   .     A
C943   C983    1.441   .     S
C944   C985    1.501   .     S
C944   N957    1.385   .     A
C945   N958    1.359   .     A
C945   H954    1.083   .     S
C945   C776    1.426   1_655 S
C946   O964    1.289   .     A
C946   O963    1.293   .     A
C947   O966    1.308   .     A
C947   O965    1.304   .     A
C947   C949    1.468   .     S
C950   C995    1.506   .     S
C950   C951    1.419   .     A
C951   C196    1.410   1_556 S
C951   C243    1.507   1_556 S
C952   H956    1.080   .     S
H955   C192    1.082   1_556 S
N957   Zn967   2.041   .     S
N958   Zn968   2.041   .     S
O959   Zn967   1.984   .     S
O960   Zn968   1.973   .     S
O961   Zn967   1.968   .     S
O962   Zn968   1.947   .     S
O963   Zn967   1.973   .     S
O964   Zn968   1.984   .     S
O965   Zn967   1.947   .     S
O966   Zn968   1.968   .     S
C969   N970    1.157   .     T
C971   H973    1.107   .     S
C971   H974    1.111   .     S
C971   H972    1.110   .     S
C975   H976    1.111   .     S
C975   H977    1.109   .     S
C975   H978    1.108   .     S
C979   H980    1.106   .     S
C979   H981    1.108   .     S
C979   H982    1.099   .     S
C983   N984    1.157   .     T
C985   H987    1.106   .     S
C985   H986    1.101   .     S
H988   C817    1.109   1_655 S
C989   H991    1.109   .     S
C989   H992    1.100   .     S
C989   H990    1.109   .     S
C993   N994    1.158   .     T
C995   H997    1.102   .     S
C995   H998    1.102   .     S
C995   H996    1.105   .     S
C999   H1000   1.110   .     S
C999   H1002   1.110   .     S
H1001  C831    1.107   1_655 S
C1003  N1004   1.157   .     T
C1005  H1006   1.111   .     S
C1005  H1007   1.112   .     S
C1005  H1008   1.111   .     S
C1009  O1043   1.290   .     A
C1009  C1025   1.407   .     S
C1009  O1044   1.289   .     A
C1010  C1011   1.394   .     A
C1010  C256    1.421   1_556 S
C1010  C280    1.416   1_556 S
C1011  C1015   1.407   .     A
C1011  C1018   1.404   .     A
C1012  C1016   1.401   .     A
C1013  C1014   1.408   .     A
C1013  C256    1.425   1_556 S
C1013  C276    1.408   1_556 S
C1014  C1073   1.499   .     S
C1014  C1015   1.393   .     A
C1015  C1087   1.453   .     S
C1016  C1077   1.454   .     S
C1016  C1033   1.408   .     A
C1017  C1053   1.446   .     S
C1017  C1033   1.409   .     A
C1017  C1032   1.386   .     A
C1018  C1034   1.406   .     A
C1018  C1020   1.485   .     S
C1019  C1089   1.513   .     S
C1019  C1025   1.400   .     A
C1019  C1273   1.371   .     S
C1020  O1045   1.319   .     A
C1020  O1046   1.301   .     A
C1021  H1037   1.080   .     S
C1021  C1022   1.387   .     A
C1022  C1030   1.406   .     S
C1022  C1023   1.409   .     A
C1023  C1055   1.517   .     S
C1024  C1059   1.520   .     S
C1024  C1025   1.412   .     A
C1024  C1275   1.401   .     S
C1026  N1042   1.385   .     A
C1026  C1063   1.512   .     S
C1026  C1111   1.438   .     S
C1027  N1041   1.367   .     A
C1027  C1067   1.441   .     S
C1027  C1194   1.438   1_455 S
C1028  C1069   1.501   .     S
C1028  N1041   1.385   .     A
C1028  C1197   1.426   1_455 S
C1029  N1042   1.359   .     A
C1029  H1038   1.083   .     S
C1029  C1112   1.426   .     S
C1030  O1048   1.289   .     A
C1030  O1047   1.293   .     A
C1031  O1050   1.308   .     A
C1031  O1049   1.304   .     A
C1031  C1033   1.468   .     S
C1034  C1079   1.506   .     S
C1034  C1035   1.419   .     A
C1035  C280    1.410   1_556 S
C1035  C327    1.507   1_556 S
C1036  H1040   1.080   .     S
H1039  C276    1.082   1_556 S
N1041  Zn1051  2.041   .     S
N1042  Zn1052  2.041   .     S
O1043  Zn1051  1.984   .     S
O1044  Zn1052  1.973   .     S
O1045  Zn1051  1.968   .     S
O1046  Zn1052  1.947   .     S
O1047  Zn1051  1.973   .     S
O1048  Zn1052  1.984   .     S
O1049  Zn1051  1.947   .     S
O1050  Zn1052  1.968   .     S
C1053  N1054   1.157   .     T
C1055  H1057   1.107   .     S
C1055  H1058   1.111   .     S
C1055  H1056   1.110   .     S
C1059  H1060   1.111   .     S
C1059  H1061   1.109   .     S
C1059  H1062   1.108   .     S
C1063  H1064   1.106   .     S
C1063  H1065   1.108   .     S
C1063  H1066   1.099   .     S
C1067  N1068   1.157   .     T
C1069  H1071   1.106   .     S
C1069  H1070   1.101   .     S
C1069  H1240   1.109   1_455 S
H1072  C1153   1.109   .     S
C1073  H1075   1.109   .     S
C1073  H1076   1.100   .     S
C1073  H1074   1.109   .     S
C1077  N1078   1.158   .     T
C1079  H1081   1.102   .     S
C1079  H1082   1.102   .     S
C1079  H1080   1.105   .     S
C1083  H1084   1.110   .     S
C1083  H1086   1.110   .     S
C1083  H1253   1.107   1_455 S
H1085  C1167   1.107   .     S
C1087  N1088   1.157   .     T
C1089  H1090   1.111   .     S
C1089  H1091   1.112   .     S
C1089  H1092   1.111   .     S
C1093  O1127   1.290   .     A
C1093  C1109   1.407   .     S
C1093  O1128   1.289   .     A
C1094  C1095   1.394   .     A
C1094  C340    1.421   1_556 S
C1094  C364    1.416   1_556 S
C1095  C1099   1.407   .     A
C1095  C1102   1.404   .     A
C1096  C1100   1.401   .     A
C1097  C1098   1.408   .     A
C1097  C340    1.425   1_556 S
C1097  C360    1.408   1_556 S
C1098  C1157   1.499   .     S
C1098  C1099   1.393   .     A
C1099  C1171   1.453   .     S
C1100  C1161   1.454   .     S
C1100  C1117   1.408   .     A
C1101  C1137   1.446   .     S
C1101  C1117   1.409   .     A
C1101  C1116   1.386   .     A
C1102  C1118   1.406   .     A
C1102  C1104   1.485   .     S
C1103  C1173   1.513   .     S
C1103  C1109   1.400   .     A
C1103  C1357   1.371   .     S
C1104  O1129   1.319   .     A
C1104  O1130   1.301   .     A
C1105  H1121   1.080   .     S
C1105  C1106   1.387   .     A
C1106  C1114   1.406   .     S
C1106  C1107   1.409   .     A
C1107  C1139   1.517   .     S
C1108  C1143   1.520   .     S
C1108  C1109   1.412   .     A
C1108  C1359   1.401   .     S
C1110  N1126   1.385   .     A
C1110  C1147   1.512   .     S
C1110  C1195   1.438   .     S
C1111  N1125   1.367   .     A
C1111  C1151   1.441   .     S
C1112  C1153   1.501   .     S
C1112  N1125   1.385   .     A
C1113  N1126   1.359   .     A
C1113  H1122   1.083   .     S
C1113  C1196   1.426   .     S
C1114  O1132   1.289   .     A
C1114  O1131   1.293   .     A
C1115  O1134   1.308   .     A
C1115  O1133   1.304   .     A
C1115  C1117   1.468   .     S
C1118  C1163   1.506   .     S
C1118  C1119   1.419   .     A
C1119  C364    1.410   1_556 S
C1119  C411    1.507   1_556 S
C1120  H1124   1.080   .     S
H1123  C360    1.082   1_556 S
N1125  Zn1135  2.041   .     S
N1126  Zn1136  2.041   .     S
O1127  Zn1135  1.984   .     S
O1128  Zn1136  1.973   .     S
O1129  Zn1135  1.968   .     S
O1130  Zn1136  1.947   .     S
O1131  Zn1135  1.973   .     S
O1132  Zn1136  1.984   .     S
O1133  Zn1135  1.947   .     S
O1134  Zn1136  1.968   .     S
C1137  N1138   1.157   .     T
C1139  H1141   1.107   .     S
C1139  H1142   1.111   .     S
C1139  H1140   1.110   .     S
C1143  H1144   1.111   .     S
C1143  H1145   1.109   .     S
C1143  H1146   1.108   .     S
C1147  H1148   1.106   .     S
C1147  H1149   1.108   .     S
C1147  H1150   1.099   .     S
C1151  N1152   1.157   .     T
C1153  H1155   1.106   .     S
C1153  H1154   1.101   .     S
H1156  C1237   1.109   .     S
C1157  H1159   1.109   .     S
C1157  H1160   1.100   .     S
C1157  H1158   1.109   .     S
C1161  N1162   1.158   .     T
C1163  H1165   1.102   .     S
C1163  H1166   1.102   .     S
C1163  H1164   1.105   .     S
C1167  H1168   1.110   .     S
C1167  H1170   1.110   .     S
H1169  C1251   1.107   .     S
C1171  N1172   1.157   .     T
C1173  H1174   1.111   .     S
C1173  H1175   1.112   .     S
C1173  H1176   1.111   .     S
C1177  O1211   1.290   .     A
C1177  C1193   1.407   .     S
C1177  O1212   1.289   .     A
C1178  C1179   1.394   .     A
C1178  C424    1.421   1_556 S
C1178  C448    1.416   1_556 S
C1179  C1183   1.407   .     A
C1179  C1186   1.404   .     A
C1180  C1184   1.401   .     A
C1181  C1182   1.408   .     A
C1181  C424    1.425   1_556 S
C1181  C444    1.408   1_556 S
C1182  C1241   1.499   .     S
C1182  C1183   1.393   .     A
C1183  C1255   1.453   .     S
C1184  C1245   1.454   .     S
C1184  C1201   1.408   .     A
C1185  C1221   1.446   .     S
C1185  C1201   1.409   .     A
C1185  C1200   1.386   .     A
C1186  C1202   1.406   .     A
C1186  C1188   1.485   .     S
C1187  C1257   1.513   .     S
C1187  C1193   1.400   .     A
C1187  C1441   1.371   .     S
C1188  O1213   1.319   .     A
C1188  O1214   1.301   .     A
C1189  H1205   1.080   .     S
C1189  C1190   1.387   .     A
C1190  C1198   1.406   .     S
C1190  C1191   1.409   .     A
C1191  C1223   1.517   .     S
C1192  C1227   1.520   .     S
C1192  C1193   1.412   .     A
C1192  C1443   1.401   .     S
C1194  N1210   1.385   .     A
C1194  C1231   1.512   .     S
C1194  C1027   1.438   1_655 S
C1195  N1209   1.367   .     A
C1195  C1235   1.441   .     S
C1196  C1237   1.501   .     S
C1196  N1209   1.385   .     A
C1197  N1210   1.359   .     A
C1197  H1206   1.083   .     S
C1197  C1028   1.426   1_655 S
C1198  O1216   1.289   .     A
C1198  O1215   1.293   .     A
C1199  O1218   1.308   .     A
C1199  O1217   1.304   .     A
C1199  C1201   1.468   .     S
C1202  C1247   1.506   .     S
C1202  C1203   1.419   .     A
C1203  C448    1.410   1_556 S
C1203  C495    1.507   1_556 S
C1204  H1208   1.080   .     S
H1207  C444    1.082   1_556 S
N1209  Zn1219  2.041   .     S
N1210  Zn1220  2.041   .     S
O1211  Zn1219  1.984   .     S
O1212  Zn1220  1.973   .     S
O1213  Zn1219  1.968   .     S
O1214  Zn1220  1.947   .     S
O1215  Zn1219  1.973   .     S
O1216  Zn1220  1.984   .     S
O1217  Zn1219  1.947   .     S
O1218  Zn1220  1.968   .     S
C1221  N1222   1.157   .     T
C1223  H1225   1.107   .     S
C1223  H1226   1.111   .     S
C1223  H1224   1.110   .     S
C1227  H1228   1.111   .     S
C1227  H1229   1.109   .     S
C1227  H1230   1.108   .     S
C1231  H1232   1.106   .     S
C1231  H1233   1.108   .     S
C1231  H1234   1.099   .     S
C1235  N1236   1.157   .     T
C1237  H1239   1.106   .     S
C1237  H1238   1.101   .     S
H1240  C1069   1.109   1_655 S
C1241  H1243   1.109   .     S
C1241  H1244   1.100   .     S
C1241  H1242   1.109   .     S
C1245  N1246   1.158   .     T
C1247  H1249   1.102   .     S
C1247  H1250   1.102   .     S
C1247  H1248   1.105   .     S
C1251  H1252   1.110   .     S
C1251  H1254   1.110   .     S
H1253  C1083   1.107   1_655 S
C1255  N1256   1.157   .     T
C1257  H1258   1.111   .     S
C1257  H1259   1.112   .     S
C1257  H1260   1.111   .     S
C1261  O1295   1.290   .     A
C1261  C1277   1.407   .     S
C1261  O1296   1.289   .     A
C1262  C1263   1.394   .     A
C1262  C508    1.421   1_556 S
C1262  C532    1.416   1_556 S
C1263  C1267   1.407   .     A
C1263  C1270   1.404   .     A
C1264  C1268   1.401   .     A
C1265  C1266   1.408   .     A
C1265  C508    1.425   1_556 S
C1265  C528    1.408   1_556 S
C1266  C1325   1.499   .     S
C1266  C1267   1.393   .     A
C1267  C1339   1.453   .     S
C1268  C1329   1.454   .     S
C1268  C1285   1.408   .     A
C1269  C1305   1.446   .     S
C1269  C1285   1.409   .     A
C1269  C1284   1.386   .     A
C1270  C1286   1.406   .     A
C1270  C1272   1.485   .     S
C1271  C1341   1.513   .     S
C1271  C1277   1.400   .     A
C1271  C769    1.371   1_565 S
C1272  O1297   1.319   .     A
C1272  O1298   1.301   .     A
C1273  H1289   1.080   .     S
C1273  C1274   1.387   .     A
C1274  C1282   1.406   .     S
C1274  C1275   1.409   .     A
C1275  C1307   1.517   .     S
C1276  C1311   1.520   .     S
C1276  C1277   1.412   .     A
C1276  C771    1.401   1_565 S
C1278  N1294   1.385   .     A
C1278  C1315   1.512   .     S
C1278  C1363   1.438   .     S
C1279  N1293   1.367   .     A
C1279  C1319   1.441   .     S
C1279  C1446   1.438   1_455 S
C1280  C1321   1.501   .     S
C1280  N1293   1.385   .     A
C1280  C1449   1.426   1_455 S
C1281  N1294   1.359   .     A
C1281  H1290   1.083   .     S
C1281  C1364   1.426   .     S
C1282  O1300   1.289   .     A
C1282  O1299   1.293   .     A
C1283  O1302   1.308   .     A
C1283  O1301   1.304   .     A
C1283  C1285   1.468   .     S
C1286  C1331   1.506   .     S
C1286  C1287   1.419   .     A
C1287  C532    1.410   1_556 S
C1287  C579    1.507   1_556 S
C1288  H1292   1.080   .     S
H1291  C528    1.082   1_556 S
N1293  Zn1303  2.041   .     S
N1294  Zn1304  2.041   .     S
O1295  Zn1303  1.984   .     S
O1296  Zn1304  1.973   .     S
O1297  Zn1303  1.968   .     S
O1298  Zn1304  1.947   .     S
O1299  Zn1303  1.973   .     S
O1300  Zn1304  1.984   .     S
O1301  Zn1303  1.947   .     S
O1302  Zn1304  1.968   .     S
C1305  N1306   1.157   .     T
C1307  H1309   1.107   .     S
C1307  H1310   1.111   .     S
C1307  H1308   1.110   .     S
C1311  H1312   1.111   .     S
C1311  H1313   1.109   .     S
C1311  H1314   1.108   .     S
C1315  H1316   1.106   .     S
C1315  H1317   1.108   .     S
C1315  H1318   1.099   .     S
C1319  N1320   1.157   .     T
C1321  H1323   1.106   .     S
C1321  H1322   1.101   .     S
C1321  H1492   1.109   1_455 S
H1324  C1405   1.109   .     S
C1325  H1327   1.109   .     S
C1325  H1328   1.100   .     S
C1325  H1326   1.109   .     S
C1329  N1330   1.158   .     T
C1331  H1333   1.102   .     S
C1331  H1334   1.102   .     S
C1331  H1332   1.105   .     S
C1335  H1336   1.110   .     S
C1335  H1338   1.110   .     S
C1335  H1505   1.107   1_455 S
H1337  C1419   1.107   .     S
C1339  N1340   1.157   .     T
C1341  H1342   1.111   .     S
C1341  H1343   1.112   .     S
C1341  H1344   1.111   .     S
C1345  O1379   1.290   .     A
C1345  C1361   1.407   .     S
C1345  O1380   1.289   .     A
C1346  C1347   1.394   .     A
C1346  C592    1.421   1_556 S
C1346  C616    1.416   1_556 S
C1347  C1351   1.407   .     A
C1347  C1354   1.404   .     A
C1348  C1352   1.401   .     A
C1349  C1350   1.408   .     A
C1349  C592    1.425   1_556 S
C1349  C612    1.408   1_556 S
C1350  C1409   1.499   .     S
C1350  C1351   1.393   .     A
C1351  C1423   1.453   .     S
C1352  C1413   1.454   .     S
C1352  C1369   1.408   .     A
C1353  C1389   1.446   .     S
C1353  C1369   1.409   .     A
C1353  C1368   1.386   .     A
C1354  C1370   1.406   .     A
C1354  C1356   1.485   .     S
C1355  C1425   1.513   .     S
C1355  C1361   1.400   .     A
C1355  C853    1.371   1_565 S
C1356  O1381   1.319   .     A
C1356  O1382   1.301   .     A
C1357  H1373   1.080   .     S
C1357  C1358   1.387   .     A
C1358  C1366   1.406   .     S
C1358  C1359   1.409   .     A
C1359  C1391   1.517   .     S
C1360  C1395   1.520   .     S
C1360  C1361   1.412   .     A
C1360  C855    1.401   1_565 S
C1362  N1378   1.385   .     A
C1362  C1399   1.512   .     S
C1362  C1447   1.438   .     S
C1363  N1377   1.367   .     A
C1363  C1403   1.441   .     S
C1364  C1405   1.501   .     S
C1364  N1377   1.385   .     A
C1365  N1378   1.359   .     A
C1365  H1374   1.083   .     S
C1365  C1448   1.426   .     S
C1366  O1384   1.289   .     A
C1366  O1383   1.293   .     A
C1367  O1386   1.308   .     A
C1367  O1385   1.304   .     A
C1367  C1369   1.468   .     S
C1370  C1415   1.506   .     S
C1370  C1371   1.419   .     A
C1371  C616    1.410   1_556 S
C1371  C663    1.507   1_556 S
C1372  H1376   1.080   .     S
H1375  C612    1.082   1_556 S
N1377  Zn1387  2.041   .     S
N1378  Zn1388  2.041   .     S
O1379  Zn1387  1.984   .     S
O1380  Zn1388  1.973   .     S
O1381  Zn1387  1.968   .     S
O1382  Zn1388  1.947   .     S
O1383  Zn1387  1.973   .     S
O1384  Zn1388  1.984   .     S
O1385  Zn1387  1.947   .     S
O1386  Zn1388  1.968   .     S
C1389  N1390   1.157   .     T
C1391  H1393   1.107   .     S
C1391  H1394   1.111   .     S
C1391  H1392   1.110   .     S
C1395  H1396   1.111   .     S
C1395  H1397   1.109   .     S
C1395  H1398   1.108   .     S
C1399  H1400   1.106   .     S
C1399  H1401   1.108   .     S
C1399  H1402   1.099   .     S
C1403  N1404   1.157   .     T
C1405  H1407   1.106   .     S
C1405  H1406   1.101   .     S
H1408  C1489   1.109   .     S
C1409  H1411   1.109   .     S
C1409  H1412   1.100   .     S
C1409  H1410   1.109   .     S
C1413  N1414   1.158   .     T
C1415  H1417   1.102   .     S
C1415  H1418   1.102   .     S
C1415  H1416   1.105   .     S
C1419  H1420   1.110   .     S
C1419  H1422   1.110   .     S
H1421  C1503   1.107   .     S
C1423  N1424   1.157   .     T
C1425  H1426   1.111   .     S
C1425  H1427   1.112   .     S
C1425  H1428   1.111   .     S
C1429  O1463   1.290   .     A
C1429  C1445   1.407   .     S
C1429  O1464   1.289   .     A
C1430  C1431   1.394   .     A
C1430  C676    1.421   1_556 S
C1430  C700    1.416   1_556 S
C1431  C1435   1.407   .     A
C1431  C1438   1.404   .     A
C1432  C1436   1.401   .     A
C1433  C1434   1.408   .     A
C1433  C676    1.425   1_556 S
C1433  C696    1.408   1_556 S
C1434  C1493   1.499   .     S
C1434  C1435   1.393   .     A
C1435  C1507   1.453   .     S
C1436  C1497   1.454   .     S
C1436  C1453   1.408   .     A
C1437  C1473   1.446   .     S
C1437  C1453   1.409   .     A
C1437  C1452   1.386   .     A
C1438  C1454   1.406   .     A
C1438  C1440   1.485   .     S
C1439  C1509   1.513   .     S
C1439  C1445   1.400   .     A
C1439  C937    1.371   1_565 S
C1440  O1465   1.319   .     A
C1440  O1466   1.301   .     A
C1441  H1457   1.080   .     S
C1441  C1442   1.387   .     A
C1442  C1450   1.406   .     S
C1442  C1443   1.409   .     A
C1443  C1475   1.517   .     S
C1444  C1479   1.520   .     S
C1444  C1445   1.412   .     A
C1444  C939    1.401   1_565 S
C1446  N1462   1.385   .     A
C1446  C1483   1.512   .     S
C1446  C1279   1.438   1_655 S
C1447  N1461   1.367   .     A
C1447  C1487   1.441   .     S
C1448  C1489   1.501   .     S
C1448  N1461   1.385   .     A
C1449  N1462   1.359   .     A
C1449  H1458   1.083   .     S
C1449  C1280   1.426   1_655 S
C1450  O1468   1.289   .     A
C1450  O1467   1.293   .     A
C1451  O1470   1.308   .     A
C1451  O1469   1.304   .     A
C1451  C1453   1.468   .     S
C1454  C1499   1.506   .     S
C1454  C1455   1.419   .     A
C1455  C700    1.410   1_556 S
C1455  C747    1.507   1_556 S
C1456  H1460   1.080   .     S
H1459  C696    1.082   1_556 S
N1461  Zn1471  2.041   .     S
N1462  Zn1472  2.041   .     S
O1463  Zn1471  1.984   .     S
O1464  Zn1472  1.973   .     S
O1465  Zn1471  1.968   .     S
O1466  Zn1472  1.947   .     S
O1467  Zn1471  1.973   .     S
O1468  Zn1472  1.984   .     S
O1469  Zn1471  1.947   .     S
O1470  Zn1472  1.968   .     S
C1473  N1474   1.157   .     T
C1475  H1477   1.107   .     S
C1475  H1478   1.111   .     S
C1475  H1476   1.110   .     S
C1479  H1480   1.111   .     S
C1479  H1481   1.109   .     S
C1479  H1482   1.108   .     S
C1483  H1484   1.106   .     S
C1483  H1485   1.108   .     S
C1483  H1486   1.099   .     S
C1487  N1488   1.157   .     T
C1489  H1491   1.106   .     S
C1489  H1490   1.101   .     S
H1492  C1321   1.109   1_655 S
C1493  H1495   1.109   .     S
C1493  H1496   1.100   .     S
C1493  H1494   1.109   .     S
C1497  N1498   1.158   .     T
C1499  H1501   1.102   .     S
C1499  H1502   1.102   .     S
C1499  H1500   1.105   .     S
C1503  H1504   1.110   .     S
C1503  H1506   1.110   .     S
H1505  C1335   1.107   1_655 S
C1507  N1508   1.157   .     T
C1509  H1510   1.111   .     S
C1509  H1511   1.112   .     S
C1509  H1512   1.111   .     S
