data_str_m1_o1_o2_pcu_sym.76
_audit_creation_date              2020-01-03
_audit_creation_method            'Materials Studio'
_symmetry_space_group_name_H-M    'P1'
_symmetry_Int_Tables_number       1
_symmetry_cell_setting            triclinic
loop_
_symmetry_equiv_pos_as_xyz
  x,y,z
_cell_length_a                    36.8319
_cell_length_b                    36.7825
_cell_length_c                    34.7813
_cell_angle_alpha                 90.1379
_cell_angle_beta                  89.9715
_cell_angle_gamma                 89.9711
loop_
_atom_site_label
_atom_site_type_symbol
_atom_site_fract_x
_atom_site_fract_y
_atom_site_fract_z
_atom_site_U_iso_or_equiv
_atom_site_adp_type
_atom_site_occupancy
C1     C     0.21779   0.49108   0.04171   0.00000  Uiso   1.00
C2     C     0.03095   0.26057   0.45798   0.00000  Uiso   1.00
C3     C     0.34919   0.40278   0.74744   0.00000  Uiso   1.00
C4     C     0.40313   0.15043   0.25163   0.00000  Uiso   1.00
C5     C     0.09898   0.34744   0.75090   0.00000  Uiso   1.00
C6     C     0.34811   0.40158   0.25013   0.00000  Uiso   1.00
C7     C     0.15132   0.09772   0.74878   0.00000  Uiso   1.00
C8     C     0.09732   0.15123   0.74886   0.00000  Uiso   1.00
C9     C     0.40275   0.34905   0.25230   0.00000  Uiso   1.00
C10    C     0.15302   0.40062   0.75204   0.00000  Uiso   1.00
C11    C     0.35039   0.09605   0.25397   0.00000  Uiso   1.00
C12    C     0.40276   0.34906   0.74831   0.00000  Uiso   1.00
C13    C     0.26312   0.46551   0.54254   0.00000  Uiso   1.00
C14    C     0.09586   0.14955   0.25454   0.00000  Uiso   1.00
C15    C     0.34650   0.09990   0.75338   0.00000  Uiso   1.00
C16    C     0.15394   0.39969   0.24553   0.00000  Uiso   1.00
C17    C     0.25102   0.49535   0.10221   0.00000  Uiso   1.00
C18    C     0.24948   0.48827   0.89637   0.00000  Uiso   1.00
C19    C     0.00858   0.24944   0.10254   0.00000  Uiso   1.00
C20    C     0.00226   0.25110   0.89805   0.00000  Uiso   1.00
C21    C     0.49940   0.25334   0.60260   0.00000  Uiso   1.00
C22    C     0.00063   0.24606   0.39776   0.00000  Uiso   1.00
C23    C     0.25781   0.49938   0.60270   0.00000  Uiso   1.00
C24    C     0.26845   0.03102   0.45778   0.00000  Uiso   1.00
C25    C     0.25600   0.49963   0.39752   0.00000  Uiso   1.00
C26    C     0.03028   0.26652   0.54251   0.00000  Uiso   1.00
C27    C     0.46753   0.24591   0.45836   0.00000  Uiso   1.00
C28    C     0.27275   0.03022   0.54281   0.00000  Uiso   1.00
C29    C     0.26110   0.46594   0.45745   0.00000  Uiso   1.00
C30    C     0.21760   0.49289   0.08191   0.00000  Uiso   1.00
C31    C     0.28288   0.48563   0.91640   0.00000  Uiso   1.00
C32    C     0.01748   0.21676   0.08197   0.00000  Uiso   1.00
C33    C     0.28258   0.48504   0.95660   0.00000  Uiso   1.00
C34    C     0.00265   0.28454   0.91930   0.00000  Uiso   1.00
C35    C     0.28436   0.49464   0.08093   0.00000  Uiso   1.00
C36    C     0.21641   0.48231   0.91689   0.00000  Uiso   1.00
C37    C     0.00939   0.28309   0.08243   0.00000  Uiso   1.00
C38    C     0.00692   0.21796   0.91855   0.00000  Uiso   1.00
C39    C     0.46622   0.24980   0.58208   0.00000  Uiso   1.00
C40    C     0.03336   0.25226   0.41892   0.00000  Uiso   1.00
C41    C     0.25703   0.46573   0.58223   0.00000  Uiso   1.00
C42    C     0.26426   0.03216   0.41775   0.00000  Uiso   1.00
C43    C     0.03164   0.26192   0.58240   0.00000  Uiso   1.00
C44    C     0.02449   0.21895   0.04233   0.00000  Uiso   1.00
C45    C     0.46769   0.24055   0.41867   0.00000  Uiso   1.00
C46    C     0.26725   0.03167   0.58239   0.00000  Uiso   1.00
C47    C     0.25432   0.46627   0.41790   0.00000  Uiso   1.00
C48    C     0.25017   0.49049   0.02059   0.00000  Uiso   1.00
C49    C     0.25000   0.48633   0.97756   0.00000  Uiso   1.00
C50    C     0.02113   0.25152   0.02172   0.00000  Uiso   1.00
C51    C     0.01702   0.25138   0.97878   0.00000  Uiso   1.00
C52    C     0.49806   0.26101   0.52162   0.00000  Uiso   1.00
C53    C     0.49852   0.25723   0.47873   0.00000  Uiso   1.00
C54    C     0.26854   0.49783   0.52171   0.00000  Uiso   1.00
C55    C     0.01102   0.28381   0.95850   0.00000  Uiso   1.00
C56    C     0.26705   0.49815   0.47840   0.00000  Uiso   1.00
C57    C     0.25086   0.49999   0.35519   0.00000  Uiso   1.00
C58    C     0.25133   0.49993   0.64477   0.00000  Uiso   1.00
C59    C     0.00014   0.24833   0.35528   0.00000  Uiso   1.00
C60    C     0.49991   0.25017   0.64485   0.00000  Uiso   1.00
C61    C     0.49971   0.25027   0.85544   0.00000  Uiso   1.00
C62    C     0.00132   0.24976   0.14462   0.00000  Uiso   1.00
C63    C     0.24983   0.49687   0.85485   0.00000  Uiso   1.00
C64    C     0.25026   0.49896   0.14473   0.00000  Uiso   1.00
C65    C     0.17938   0.06946   0.25106   0.00000  Uiso   1.00
C66    C     0.28282   0.49426   0.04074   0.00000  Uiso   1.00
C67    C     0.32032   0.43023   0.74935   0.00000  Uiso   1.00
C68    C     0.43016   0.17974   0.25015   0.00000  Uiso   1.00
C69    C     0.07014   0.31995   0.75016   0.00000  Uiso   1.00
C70    C     0.31990   0.42980   0.24980   0.00000  Uiso   1.00
C71    C     0.17982   0.06990   0.74967   0.00000  Uiso   1.00
C72    C     0.07053   0.31954   0.24907   0.00000  Uiso   1.00
C73    C     0.42945   0.18049   0.75088   0.00000  Uiso   1.00
C74    C     0.18031   0.42962   0.75041   0.00000  Uiso   1.00
C75    C     0.32066   0.06944   0.25107   0.00000  Uiso   1.00
C76    C     0.43018   0.32022   0.74972   0.00000  Uiso   1.00
C77    C     0.21742   0.48236   0.95712   0.00000  Uiso   1.00
C78    C     0.06945   0.17937   0.25102   0.00000  Uiso   1.00
C79    C     0.31967   0.07041   0.75070   0.00000  Uiso   1.00
C80    C     0.18054   0.42938   0.24895   0.00000  Uiso   1.00
C81    C     0.06978   0.17982   0.74972   0.00000  Uiso   1.00
C82    C     0.43034   0.32036   0.25071   0.00000  Uiso   1.00
C83    C     0.12149   0.40549   0.22428   0.00000  Uiso   1.00
C84    C     0.37719   0.09586   0.77775   0.00000  Uiso   1.00
C85    C     0.08934   0.11625   0.23525   0.00000  Uiso   1.00
C86    C     0.41111   0.38414   0.76248   0.00000  Uiso   1.00
C87    C     0.38426   0.08846   0.23589   0.00000  Uiso   1.00
C88    C     0.01707   0.28366   0.04326   0.00000  Uiso   1.00
C89    C     0.12520   0.40171   0.77962   0.00000  Uiso   1.00
C90    C     0.40726   0.38019   0.22919   0.00000  Uiso   1.00
C91    C     0.09701   0.12393   0.77753   0.00000  Uiso   1.00
C92    C     0.12383   0.09712   0.77733   0.00000  Uiso   1.00
C93    C     0.37884   0.40511   0.22556   0.00000  Uiso   1.00
C94    C     0.09695   0.37619   0.77832   0.00000  Uiso   1.00
C95    C     0.41129   0.11581   0.23540   0.00000  Uiso   1.00
C96    C     0.38402   0.41112   0.76227   0.00000  Uiso   1.00
C97    C     0.11622   0.08919   0.23536   0.00000  Uiso   1.00
C98    C     0.40413   0.12287   0.77774   0.00000  Uiso   1.00
C99    C     0.01442   0.21866   0.95779   0.00000  Uiso   1.00
C100   C     0.09451   0.37855   0.22429   0.00000  Uiso   1.00
C101   C     0.36741   0.15947   0.73246   0.00000  Uiso   1.00
C102   C     0.13408   0.33883   0.26326   0.00000  Uiso   1.00
C103   C     0.34179   0.36841   0.73075   0.00000  Uiso   1.00
C104   C     0.15428   0.12740   0.27753   0.00000  Uiso   1.00
C105   C     0.12880   0.34443   0.72538   0.00000  Uiso   1.00
C106   C     0.36999   0.15699   0.27073   0.00000  Uiso   1.00
C107   C     0.15091   0.12472   0.71956   0.00000  Uiso   1.00
C108   C     0.34470   0.37170   0.27580   0.00000  Uiso   1.00
C109   C     0.37183   0.34488   0.27623   0.00000  Uiso   1.00
C110   C     0.46593   0.25553   0.54247   0.00000  Uiso   1.00
C111   C     0.12357   0.15093   0.71926   0.00000  Uiso   1.00
C112   C     0.34478   0.12889   0.27477   0.00000  Uiso   1.00
C113   C     0.15518   0.37176   0.72467   0.00000  Uiso   1.00
C114   C     0.12727   0.15430   0.27765   0.00000  Uiso   1.00
C115   C     0.36838   0.34112   0.73189   0.00000  Uiso   1.00
C116   C     0.16130   0.36563   0.26293   0.00000  Uiso   1.00
C117   C     0.34095   0.13210   0.73195   0.00000  Uiso   1.00
C118   C     0.10018   0.34617   0.24569   0.00000  Uiso   1.00
C119   C     0.39987   0.15377   0.75364   0.00000  Uiso   1.00
C120   C     0.14952   0.09585   0.25452   0.00000  Uiso   1.00
H121   H     0.19169   0.49077   0.02807   0.00000  Uiso   1.00
H122   H     0.05605   0.26852   0.47123   0.00000  Uiso   1.00
H123   H     0.08581   0.23633   0.42211   0.00000  Uiso   1.00
H124   H     0.27077   0.42453   0.61820   0.00000  Uiso   1.00
H125   H     0.24625   0.41026   0.58122   0.00000  Uiso   1.00
H126   H     0.28892   0.06444   0.37847   0.00000  Uiso   1.00
H127   H     0.27695   0.08692   0.41740   0.00000  Uiso   1.00
H128   H     0.06579   0.28810   0.61870   0.00000  Uiso   1.00
H129   H     0.08748   0.26827   0.58216   0.00000  Uiso   1.00
H130   H     0.43724   0.21464   0.37691   0.00000  Uiso   1.00
H131   H     0.41980   0.21290   0.41927   0.00000  Uiso   1.00
H132   H     0.28880   0.06526   0.62398   0.00000  Uiso   1.00
H133   H     0.26260   0.43929   0.52889   0.00000  Uiso   1.00
H134   H     0.24650   0.07800   0.60753   0.00000  Uiso   1.00
H135   H     0.26735   0.42357   0.38365   0.00000  Uiso   1.00
H136   H     0.23915   0.41197   0.41903   0.00000  Uiso   1.00
H137   H     0.27215   0.05679   0.47177   0.00000  Uiso   1.00
H138   H     0.05539   0.27386   0.52903   0.00000  Uiso   1.00
H139   H     0.44211   0.24067   0.47249   0.00000  Uiso   1.00
H140   H     0.27994   0.05562   0.52958   0.00000  Uiso   1.00
H141   H     0.26053   0.43970   0.47081   0.00000  Uiso   1.00
H142   H     0.10871   0.45975   0.22432   0.00000  Uiso   1.00
H143   H     0.09894   0.43967   0.18095   0.00000  Uiso   1.00
H144   H     0.38945   0.04181   0.78335   0.00000  Uiso   1.00
H145   H     0.30869   0.48391   0.97017   0.00000  Uiso   1.00
H146   H     0.39677   0.06488   0.82533   0.00000  Uiso   1.00
H147   H     0.05887   0.11376   0.18587   0.00000  Uiso   1.00
H148   H     0.04334   0.08582   0.22258   0.00000  Uiso   1.00
H149   H     0.44867   0.38452   0.80583   0.00000  Uiso   1.00
H150   H     0.45568   0.41824   0.77271   0.00000  Uiso   1.00
H151   H     0.38873   0.03341   0.24139   0.00000  Uiso   1.00
H152   H     0.41383   0.04809   0.20443   0.00000  Uiso   1.00
H153   H     0.11514   0.45304   0.80039   0.00000  Uiso   1.00
H154   H     0.11489   0.42105   0.83602   0.00000  Uiso   1.00
H155   H     0.43957   0.37939   0.18106   0.00000  Uiso   1.00
H156   H     0.03140   0.19391   0.02813   0.00000  Uiso   1.00
H157   H     0.44981   0.41363   0.21393   0.00000  Uiso   1.00
H158   H     0.07997   0.12899   0.83348   0.00000  Uiso   1.00
H159   H     0.05586   0.09803   0.80651   0.00000  Uiso   1.00
H160   H     0.12864   0.07995   0.83320   0.00000  Uiso   1.00
H161   H     0.09787   0.05585   0.80605   0.00000  Uiso   1.00
H162   H     0.35995   0.43073   0.17788   0.00000  Uiso   1.00
H163   H     0.40424   0.43319   0.18066   0.00000  Uiso   1.00
H164   H     0.04459   0.39307   0.78865   0.00000  Uiso   1.00
H165   H     0.06977   0.38954   0.83032   0.00000  Uiso   1.00
H166   H     0.46626   0.11115   0.24100   0.00000  Uiso   1.00
H167   H     0.01184   0.30992   0.97232   0.00000  Uiso   1.00
H168   H     0.45148   0.08612   0.20380   0.00000  Uiso   1.00
H169   H     0.38835   0.44761   0.80691   0.00000  Uiso   1.00
H170   H     0.41577   0.45793   0.76767   0.00000  Uiso   1.00
H171   H     0.11880   0.05669   0.18746   0.00000  Uiso   1.00
H172   H     0.08372   0.04560   0.21803   0.00000  Uiso   1.00
H173   H     0.45811   0.11072   0.78321   0.00000  Uiso   1.00
H174   H     0.43528   0.10302   0.82506   0.00000  Uiso   1.00
H175   H     0.04032   0.39133   0.22419   0.00000  Uiso   1.00
H176   H     0.06039   0.40126   0.18098   0.00000  Uiso   1.00
H177   H     0.37498   0.19153   0.68498   0.00000  Uiso   1.00
H178   H     0.30849   0.49725   0.02650   0.00000  Uiso   1.00
H179   H     0.33503   0.20033   0.70796   0.00000  Uiso   1.00
H180   H     0.13415   0.30651   0.31144   0.00000  Uiso   1.00
H181   H     0.16506   0.29273   0.27634   0.00000  Uiso   1.00
H182   H     0.28767   0.35591   0.73357   0.00000  Uiso   1.00
H183   H     0.30739   0.34144   0.69164   0.00000  Uiso   1.00
H184   H     0.20779   0.14353   0.28301   0.00000  Uiso   1.00
H185   H     0.18431   0.14385   0.32663   0.00000  Uiso   1.00
H186   H     0.11478   0.31714   0.67606   0.00000  Uiso   1.00
H187   H     0.15800   0.30853   0.68964   0.00000  Uiso   1.00
H188   H     0.36723   0.19411   0.31469   0.00000  Uiso   1.00
H189   H     0.19159   0.47904   0.97108   0.00000  Uiso   1.00
H190   H     0.33510   0.20045   0.27866   0.00000  Uiso   1.00
H191   H     0.20330   0.13037   0.69924   0.00000  Uiso   1.00
H192   H     0.17525   0.10178   0.67243   0.00000  Uiso   1.00
H193   H     0.29079   0.36015   0.28316   0.00000  Uiso   1.00
H194   H     0.31467   0.35317   0.32451   0.00000  Uiso   1.00
H195   H     0.36003   0.29088   0.28328   0.00000  Uiso   1.00
H196   H     0.35305   0.31484   0.32485   0.00000  Uiso   1.00
H197   H     0.13403   0.20118   0.69728   0.00000  Uiso   1.00
H198   H     0.13487   0.16829   0.66280   0.00000  Uiso   1.00
H199   H     0.31458   0.11397   0.32092   0.00000  Uiso   1.00
H200   H     0.01832   0.31004   0.03010   0.00000  Uiso   1.00
H201   H     0.31325   0.15791   0.31441   0.00000  Uiso   1.00
H202   H     0.17477   0.37566   0.66930   0.00000  Uiso   1.00
H203   H     0.19939   0.34671   0.69925   0.00000  Uiso   1.00
H204   H     0.14145   0.20805   0.28339   0.00000  Uiso   1.00
H205   H     0.14624   0.18431   0.32569   0.00000  Uiso   1.00
H206   H     0.34463   0.29104   0.73921   0.00000  Uiso   1.00
H207   H     0.34961   0.30347   0.69173   0.00000  Uiso   1.00
H208   H     0.19635   0.36793   0.30870   0.00000  Uiso   1.00
H209   H     0.20519   0.33228   0.27798   0.00000  Uiso   1.00
H210   H     0.31393   0.12883   0.68001   0.00000  Uiso   1.00
H211   H     0.01747   0.19266   0.97148   0.00000  Uiso   1.00
H212   H     0.29539   0.16066   0.71226   0.00000  Uiso   1.00
H213   H     0.18167   0.46828   0.11724   0.00000  Uiso   1.00
H214   H     0.16140   0.49064   0.08217   0.00000  Uiso   1.00
H215   H     0.31730   0.46166   0.87870   0.00000  Uiso   1.00
H216   H     0.33877   0.47964   0.91581   0.00000  Uiso   1.00
H217   H     0.02530   0.17875   0.12566   0.00000  Uiso   1.00
H218   H     0.03434   0.16404   0.08345   0.00000  Uiso   1.00
H219   H     0.47981   0.31977   0.87906   0.00000  Uiso   1.00
H220   H     0.47948   0.33454   0.92231   0.00000  Uiso   1.00
H221   H     0.32265   0.48267   0.12333   0.00000  Uiso   1.00
H222   H     0.43977   0.25520   0.52881   0.00000  Uiso   1.00
H223   H     0.33744   0.47961   0.08067   0.00000  Uiso   1.00
H224   H     0.18271   0.46591   0.87225   0.00000  Uiso   1.00
H225   H     0.16733   0.45732   0.91431   0.00000  Uiso   1.00
H226   H     0.02269   0.32542   0.11693   0.00000  Uiso   1.00
H227   H     0.49502   0.33747   0.08121   0.00000  Uiso   1.00
H228   H     0.02723   0.17865   0.88389   0.00000  Uiso   1.00
H229   H     0.00195   0.16194   0.91935   0.00000  Uiso   1.00
H230   H     0.43665   0.21632   0.61616   0.00000  Uiso   1.00
H231   H     0.41303   0.23276   0.58056   0.00000  Uiso   1.00
H232   H     0.07216   0.23577   0.37864   0.00000  Uiso   1.00
N233   N     0.11622   0.43969   0.20465   0.00000  Uiso   1.00
N234   N     0.38101   0.43423   0.19761   0.00000  Uiso   1.00
N235   N     0.06544   0.37927   0.80281   0.00000  Uiso   1.00
N236   N     0.44698   0.11001   0.21889   0.00000  Uiso   1.00
N237   N     0.39108   0.44714   0.77695   0.00000  Uiso   1.00
N238   N     0.11039   0.05485   0.21617   0.00000  Uiso   1.00
N239   N     0.43671   0.11928   0.80067   0.00000  Uiso   1.00
N240   N     0.06037   0.38384   0.20456   0.00000  Uiso   1.00
N241   N     0.36208   0.19311   0.71180   0.00000  Uiso   1.00
N242   N     0.13978   0.30435   0.28198   0.00000  Uiso   1.00
N243   N     0.30709   0.36176   0.71268   0.00000  Uiso   1.00
N244   N     0.38079   0.06330   0.80069   0.00000  Uiso   1.00
N245   N     0.18724   0.13182   0.29957   0.00000  Uiso   1.00
N246   N     0.13185   0.31341   0.69958   0.00000  Uiso   1.00
N247   N     0.36180   0.19287   0.28507   0.00000  Uiso   1.00
N248   N     0.17709   0.12569   0.68866   0.00000  Uiso   1.00
N249   N     0.31272   0.36885   0.29976   0.00000  Uiso   1.00
N250   N     0.36866   0.31280   0.30000   0.00000  Uiso   1.00
N251   N     0.12161   0.17694   0.68814   0.00000  Uiso   1.00
N252   N     0.31321   0.13351   0.29918   0.00000  Uiso   1.00
N253   N     0.18431   0.37073   0.69743   0.00000  Uiso   1.00
N254   N     0.13132   0.18701   0.30041   0.00000  Uiso   1.00
N255   N     0.05538   0.11061   0.21555   0.00000  Uiso   1.00
N256   N     0.36053   0.30463   0.71942   0.00000  Uiso   1.00
N257   N     0.19644   0.35914   0.27997   0.00000  Uiso   1.00
N258   N     0.30874   0.13587   0.70873   0.00000  Uiso   1.00
N259   N     0.18308   0.49237   0.10151   0.00000  Uiso   1.00
N260   N     0.31733   0.48442   0.89670   0.00000  Uiso   1.00
N261   N     0.01550   0.18045   0.09796   0.00000  Uiso   1.00
N262   N     0.49624   0.32021   0.90310   0.00000  Uiso   1.00
N263   N     0.32046   0.49623   0.09748   0.00000  Uiso   1.00
N264   N     0.18111   0.47766   0.89926   0.00000  Uiso   1.00
N265   N     0.00012   0.31688   0.10122   0.00000  Uiso   1.00
N266   N     0.44717   0.39152   0.77665   0.00000  Uiso   1.00
N267   N     0.00345   0.18322   0.89946   0.00000  Uiso   1.00
N268   N     0.43259   0.24036   0.60099   0.00000  Uiso   1.00
N269   N     0.06973   0.25157   0.40309   0.00000  Uiso   1.00
N270   N     0.24860   0.43171   0.60105   0.00000  Uiso   1.00
N271   N     0.26784   0.06669   0.39837   0.00000  Uiso   1.00
N272   N     0.06616   0.26468   0.60167   0.00000  Uiso   1.00
N273   N     0.43345   0.23093   0.40088   0.00000  Uiso   1.00
N274   N     0.27170   0.06682   0.60018   0.00000  Uiso   1.00
N275   N     0.24466   0.43259   0.39913   0.00000  Uiso   1.00
N276   N     0.38990   0.05271   0.21930   0.00000  Uiso   1.00
N277   N     0.12658   0.42881   0.81013   0.00000  Uiso   1.00
N278   N     0.44143   0.38668   0.21018   0.00000  Uiso   1.00
N279   N     0.06899   0.12323   0.80640   0.00000  Uiso   1.00
N280   N     0.12305   0.06897   0.80610   0.00000  Uiso   1.00
O281   O     0.25000  -0.00000   0.25000   0.00000  Uiso   1.00
O282   O     0.25000   0.46964   0.66317   0.00000  Uiso   1.00
O283   O     0.46964   0.25000   0.33683   0.00000  Uiso   1.00
O284   O     0.03036   0.25000   0.66317   0.00000  Uiso   1.00
O285   O     0.00000   0.21964   0.83683   0.00000  Uiso   1.00
O286   O     0.00000   0.28036   0.16317   0.00000  Uiso   1.00
O287   O     0.28036  -0.00000   0.83683   0.00000  Uiso   1.00
O288   O     0.21964  -0.00000   0.16317   0.00000  Uiso   1.00
O289   O     0.00000   0.28036   0.83683   0.00000  Uiso   1.00
O290   O     0.00000   0.21964   0.16317   0.00000  Uiso   1.00
O291   O     0.21964  -0.00000   0.83683   0.00000  Uiso   1.00
O292   O     0.25000  -0.00000   0.75000   0.00000  Uiso   1.00
O293   O     0.28036  -0.00000   0.16317   0.00000  Uiso   1.00
O294   O     0.20725   0.07307   0.27282   0.00000  Uiso   1.00
O295   O     0.29274   0.42693   0.72718   0.00000  Uiso   1.00
O296   O     0.42693   0.20725   0.27282   0.00000  Uiso   1.00
O297   O     0.07307   0.29274   0.72718   0.00000  Uiso   1.00
O298   O     0.29274   0.42693   0.27282   0.00000  Uiso   1.00
O299   O     0.20725   0.07307   0.72718   0.00000  Uiso   1.00
O300   O     0.07307   0.29274   0.27282   0.00000  Uiso   1.00
O301   O     0.42693   0.20725   0.72718   0.00000  Uiso   1.00
O302   O     0.20725   0.42693   0.72718   0.00000  Uiso   1.00
O303   O    -0.00000   0.25000   0.25000   0.00000  Uiso   1.00
O304   O     0.29274   0.07307   0.27282   0.00000  Uiso   1.00
O305   O     0.42693   0.29274   0.72718   0.00000  Uiso   1.00
O306   O     0.07307   0.20725   0.27282   0.00000  Uiso   1.00
O307   O     0.29274   0.07307   0.72718   0.00000  Uiso   1.00
O308   O     0.20725   0.42693   0.27282   0.00000  Uiso   1.00
O309   O     0.07307   0.20725   0.72718   0.00000  Uiso   1.00
O310   O     0.42693   0.29274   0.27282   0.00000  Uiso   1.00
O311   O     0.45725   0.32307   0.77282   0.00000  Uiso   1.00
O312   O     0.04274   0.17693   0.22718   0.00000  Uiso   1.00
O313   O     0.17693   0.45725   0.77282   0.00000  Uiso   1.00
O314   O     0.00000   0.25000   0.75000   0.00000  Uiso   1.00
O315   O     0.32307   0.04274   0.22718   0.00000  Uiso   1.00
O316   O     0.04274   0.17693   0.77282   0.00000  Uiso   1.00
O317   O     0.45725   0.32307   0.22718   0.00000  Uiso   1.00
O318   O     0.32307   0.04274   0.77282   0.00000  Uiso   1.00
O319   O     0.17693   0.45725   0.22718   0.00000  Uiso   1.00
O320   O     0.45725   0.17693   0.22718   0.00000  Uiso   1.00
O321   O     0.04274   0.32307   0.77282   0.00000  Uiso   1.00
O322   O     0.17693   0.04274   0.22718   0.00000  Uiso   1.00
O323   O     0.32307   0.45725   0.77282   0.00000  Uiso   1.00
O324   O     0.04274   0.32307   0.22718   0.00000  Uiso   1.00
O325   O     0.25000   0.46964   0.33683   0.00000  Uiso   1.00
O326   O     0.45725   0.17693   0.77282   0.00000  Uiso   1.00
O327   O     0.32307   0.45725   0.22718   0.00000  Uiso   1.00
O328   O     0.17693   0.04274   0.77282   0.00000  Uiso   1.00
O329   O     0.25000   0.03036   0.66317   0.00000  Uiso   1.00
O330   O     0.03036   0.25000   0.33683   0.00000  Uiso   1.00
O331   O     0.46964   0.25000   0.66317   0.00000  Uiso   1.00
O332   O     0.25000   0.03036   0.33683   0.00000  Uiso   1.00
Zn333  Zn    0.20660  -0.00000   0.21760   0.00000  Uiso   1.00
Zn334  Zn    0.04340   0.25000   0.28240   0.00000  Uiso   1.00
Zn335  Zn    0.25000   0.45660   0.71760   0.00000  Uiso   1.00
Zn336  Zn    0.25000   0.04340   0.28240   0.00000  Uiso   1.00
Zn337  Zn    0.04340   0.25000   0.71760   0.00000  Uiso   1.00
Zn338  Zn    0.45660   0.25000   0.28240   0.00000  Uiso   1.00
Zn339  Zn    0.25000   0.04340   0.71760   0.00000  Uiso   1.00
Zn340  Zn    0.25000   0.45660   0.28240   0.00000  Uiso   1.00
Zn341  Zn    0.29340  -0.00000   0.78240   0.00000  Uiso   1.00
Zn342  Zn    0.00000   0.20660   0.21760   0.00000  Uiso   1.00
Zn343  Zn    0.00000   0.29340   0.78240   0.00000  Uiso   1.00
Zn344  Zn    0.29340  -0.00000   0.21760   0.00000  Uiso   1.00
Zn345  Zn    0.20660  -0.00000   0.78240   0.00000  Uiso   1.00
Zn346  Zn    0.00000   0.29340   0.21760   0.00000  Uiso   1.00
Zn347  Zn   -0.00000   0.20660   0.78240   0.00000  Uiso   1.00
Zn348  Zn    0.45660   0.25000   0.71760   0.00000  Uiso   1.00
C349   C     0.71779   0.49108   0.04171   0.00000  Uiso   1.00
C350   C     0.53095   0.26057   0.45798   0.00000  Uiso   1.00
C351   C     0.84919   0.40278   0.74744   0.00000  Uiso   1.00
C352   C     0.90313   0.15043   0.25163   0.00000  Uiso   1.00
C353   C     0.59898   0.34744   0.75090   0.00000  Uiso   1.00
C354   C     0.84811   0.40158   0.25013   0.00000  Uiso   1.00
C355   C     0.65132   0.09772   0.74878   0.00000  Uiso   1.00
C356   C     0.59732   0.15123   0.74886   0.00000  Uiso   1.00
C357   C     0.90275   0.34905   0.25230   0.00000  Uiso   1.00
C358   C     0.65302   0.40062   0.75204   0.00000  Uiso   1.00
C359   C     0.85039   0.09605   0.25397   0.00000  Uiso   1.00
C360   C     0.90276   0.34906   0.74831   0.00000  Uiso   1.00
C361   C     0.76312   0.46551   0.54254   0.00000  Uiso   1.00
C362   C     0.59586   0.14955   0.25454   0.00000  Uiso   1.00
C363   C     0.84650   0.09990   0.75338   0.00000  Uiso   1.00
C364   C     0.65394   0.39969   0.24553   0.00000  Uiso   1.00
C365   C     0.75102   0.49535   0.10221   0.00000  Uiso   1.00
C366   C     0.74948   0.48827   0.89637   0.00000  Uiso   1.00
C367   C     0.50858   0.24944   0.10254   0.00000  Uiso   1.00
C368   C     0.50226   0.25110   0.89805   0.00000  Uiso   1.00
C369   C     0.99940   0.25334   0.60260   0.00000  Uiso   1.00
C370   C     0.50063   0.24606   0.39776   0.00000  Uiso   1.00
C371   C     0.75781   0.49938   0.60270   0.00000  Uiso   1.00
C372   C     0.76845   0.03102   0.45778   0.00000  Uiso   1.00
C373   C     0.75600   0.49963   0.39752   0.00000  Uiso   1.00
C374   C     0.53028   0.26652   0.54251   0.00000  Uiso   1.00
C375   C     0.96753   0.24591   0.45836   0.00000  Uiso   1.00
C376   C     0.77275   0.03022   0.54281   0.00000  Uiso   1.00
C377   C     0.76110   0.46594   0.45745   0.00000  Uiso   1.00
C378   C     0.71760   0.49289   0.08191   0.00000  Uiso   1.00
C379   C     0.78288   0.48563   0.91640   0.00000  Uiso   1.00
C380   C     0.51748   0.21676   0.08197   0.00000  Uiso   1.00
C381   C     0.78258   0.48504   0.95660   0.00000  Uiso   1.00
C382   C     0.50265   0.28454   0.91930   0.00000  Uiso   1.00
C383   C     0.78436   0.49464   0.08093   0.00000  Uiso   1.00
C384   C     0.71641   0.48231   0.91689   0.00000  Uiso   1.00
C385   C     0.50939   0.28309   0.08243   0.00000  Uiso   1.00
C386   C     0.50692   0.21796   0.91855   0.00000  Uiso   1.00
C387   C     0.96622   0.24980   0.58208   0.00000  Uiso   1.00
C388   C     0.53336   0.25226   0.41892   0.00000  Uiso   1.00
C389   C     0.75703   0.46573   0.58223   0.00000  Uiso   1.00
C390   C     0.76426   0.03216   0.41775   0.00000  Uiso   1.00
C391   C     0.53164   0.26192   0.58240   0.00000  Uiso   1.00
C392   C     0.52449   0.21895   0.04233   0.00000  Uiso   1.00
C393   C     0.96769   0.24055   0.41867   0.00000  Uiso   1.00
C394   C     0.76725   0.03167   0.58239   0.00000  Uiso   1.00
C395   C     0.75432   0.46627   0.41790   0.00000  Uiso   1.00
C396   C     0.75017   0.49049   0.02059   0.00000  Uiso   1.00
C397   C     0.75000   0.48633   0.97756   0.00000  Uiso   1.00
C398   C     0.52113   0.25152   0.02172   0.00000  Uiso   1.00
C399   C     0.51702   0.25138   0.97878   0.00000  Uiso   1.00
C400   C     0.99806   0.26101   0.52162   0.00000  Uiso   1.00
C401   C     0.99852   0.25723   0.47873   0.00000  Uiso   1.00
C402   C     0.76854   0.49783   0.52171   0.00000  Uiso   1.00
C403   C     0.51102   0.28381   0.95850   0.00000  Uiso   1.00
C404   C     0.76705   0.49815   0.47840   0.00000  Uiso   1.00
C405   C     0.75086   0.49999   0.35519   0.00000  Uiso   1.00
C406   C     0.75133   0.49993   0.64477   0.00000  Uiso   1.00
C407   C     0.50014   0.24833   0.35528   0.00000  Uiso   1.00
C408   C     0.99991   0.25017   0.64485   0.00000  Uiso   1.00
C409   C     0.99971   0.25027   0.85544   0.00000  Uiso   1.00
C410   C     0.50132   0.24976   0.14462   0.00000  Uiso   1.00
C411   C     0.74983   0.49687   0.85485   0.00000  Uiso   1.00
C412   C     0.75026   0.49896   0.14473   0.00000  Uiso   1.00
C413   C     0.67938   0.06946   0.25106   0.00000  Uiso   1.00
C414   C     0.78282   0.49426   0.04074   0.00000  Uiso   1.00
C415   C     0.82032   0.43023   0.74935   0.00000  Uiso   1.00
C416   C     0.93016   0.17974   0.25015   0.00000  Uiso   1.00
C417   C     0.57014   0.31995   0.75016   0.00000  Uiso   1.00
C418   C     0.81990   0.42980   0.24980   0.00000  Uiso   1.00
C419   C     0.67982   0.06990   0.74967   0.00000  Uiso   1.00
C420   C     0.57053   0.31954   0.24907   0.00000  Uiso   1.00
C421   C     0.92945   0.18049   0.75088   0.00000  Uiso   1.00
C422   C     0.68031   0.42962   0.75041   0.00000  Uiso   1.00
C423   C     0.82066   0.06944   0.25107   0.00000  Uiso   1.00
C424   C     0.93018   0.32022   0.74972   0.00000  Uiso   1.00
C425   C     0.71742   0.48236   0.95712   0.00000  Uiso   1.00
C426   C     0.56945   0.17937   0.25102   0.00000  Uiso   1.00
C427   C     0.81967   0.07041   0.75070   0.00000  Uiso   1.00
C428   C     0.68054   0.42938   0.24895   0.00000  Uiso   1.00
C429   C     0.56978   0.17982   0.74972   0.00000  Uiso   1.00
C430   C     0.93034   0.32036   0.25071   0.00000  Uiso   1.00
C431   C     0.62149   0.40549   0.22428   0.00000  Uiso   1.00
C432   C     0.87719   0.09586   0.77775   0.00000  Uiso   1.00
C433   C     0.58934   0.11625   0.23525   0.00000  Uiso   1.00
C434   C     0.91111   0.38414   0.76248   0.00000  Uiso   1.00
C435   C     0.88426   0.08846   0.23589   0.00000  Uiso   1.00
C436   C     0.51707   0.28366   0.04326   0.00000  Uiso   1.00
C437   C     0.62520   0.40171   0.77962   0.00000  Uiso   1.00
C438   C     0.90726   0.38019   0.22919   0.00000  Uiso   1.00
C439   C     0.59701   0.12393   0.77753   0.00000  Uiso   1.00
C440   C     0.62383   0.09712   0.77733   0.00000  Uiso   1.00
C441   C     0.87884   0.40511   0.22556   0.00000  Uiso   1.00
C442   C     0.59695   0.37619   0.77832   0.00000  Uiso   1.00
C443   C     0.91129   0.11581   0.23540   0.00000  Uiso   1.00
C444   C     0.88402   0.41112   0.76227   0.00000  Uiso   1.00
C445   C     0.61622   0.08919   0.23536   0.00000  Uiso   1.00
C446   C     0.90413   0.12287   0.77774   0.00000  Uiso   1.00
C447   C     0.51442   0.21866   0.95779   0.00000  Uiso   1.00
C448   C     0.59451   0.37855   0.22429   0.00000  Uiso   1.00
C449   C     0.86741   0.15947   0.73246   0.00000  Uiso   1.00
C450   C     0.63408   0.33883   0.26326   0.00000  Uiso   1.00
C451   C     0.84179   0.36841   0.73075   0.00000  Uiso   1.00
C452   C     0.65428   0.12740   0.27753   0.00000  Uiso   1.00
C453   C     0.62880   0.34443   0.72538   0.00000  Uiso   1.00
C454   C     0.86999   0.15699   0.27073   0.00000  Uiso   1.00
C455   C     0.65091   0.12472   0.71956   0.00000  Uiso   1.00
C456   C     0.84470   0.37170   0.27580   0.00000  Uiso   1.00
C457   C     0.87183   0.34488   0.27623   0.00000  Uiso   1.00
C458   C     0.96593   0.25553   0.54247   0.00000  Uiso   1.00
C459   C     0.62357   0.15093   0.71926   0.00000  Uiso   1.00
C460   C     0.84478   0.12889   0.27477   0.00000  Uiso   1.00
C461   C     0.65518   0.37176   0.72467   0.00000  Uiso   1.00
C462   C     0.62727   0.15430   0.27765   0.00000  Uiso   1.00
C463   C     0.86838   0.34112   0.73189   0.00000  Uiso   1.00
C464   C     0.66130   0.36563   0.26293   0.00000  Uiso   1.00
C465   C     0.84095   0.13210   0.73195   0.00000  Uiso   1.00
C466   C     0.60018   0.34617   0.24569   0.00000  Uiso   1.00
C467   C     0.89987   0.15377   0.75364   0.00000  Uiso   1.00
C468   C     0.64952   0.09585   0.25452   0.00000  Uiso   1.00
H469   H     0.69169   0.49077   0.02807   0.00000  Uiso   1.00
H470   H     0.55605   0.26852   0.47123   0.00000  Uiso   1.00
H471   H     0.58581   0.23633   0.42211   0.00000  Uiso   1.00
H472   H     0.77077   0.42453   0.61820   0.00000  Uiso   1.00
H473   H     0.74625   0.41026   0.58122   0.00000  Uiso   1.00
H474   H     0.78892   0.06444   0.37847   0.00000  Uiso   1.00
H475   H     0.77695   0.08692   0.41740   0.00000  Uiso   1.00
H476   H     0.56579   0.28810   0.61870   0.00000  Uiso   1.00
H477   H     0.58748   0.26827   0.58216   0.00000  Uiso   1.00
H478   H     0.93724   0.21464   0.37691   0.00000  Uiso   1.00
H479   H     0.91980   0.21290   0.41927   0.00000  Uiso   1.00
H480   H     0.78880   0.06526   0.62398   0.00000  Uiso   1.00
H481   H     0.76260   0.43929   0.52889   0.00000  Uiso   1.00
H482   H     0.74650   0.07800   0.60753   0.00000  Uiso   1.00
H483   H     0.76735   0.42357   0.38365   0.00000  Uiso   1.00
H484   H     0.73915   0.41197   0.41903   0.00000  Uiso   1.00
H485   H     0.77215   0.05679   0.47177   0.00000  Uiso   1.00
H486   H     0.55539   0.27386   0.52903   0.00000  Uiso   1.00
H487   H     0.94211   0.24067   0.47249   0.00000  Uiso   1.00
H488   H     0.77994   0.05562   0.52958   0.00000  Uiso   1.00
H489   H     0.76053   0.43970   0.47081   0.00000  Uiso   1.00
H490   H     0.60871   0.45975   0.22432   0.00000  Uiso   1.00
H491   H     0.59894   0.43967   0.18095   0.00000  Uiso   1.00
H492   H     0.88945   0.04181   0.78335   0.00000  Uiso   1.00
H493   H     0.80869   0.48391   0.97017   0.00000  Uiso   1.00
H494   H     0.89677   0.06488   0.82533   0.00000  Uiso   1.00
H495   H     0.55887   0.11376   0.18587   0.00000  Uiso   1.00
H496   H     0.54334   0.08582   0.22258   0.00000  Uiso   1.00
H497   H     0.94867   0.38452   0.80583   0.00000  Uiso   1.00
H498   H     0.95568   0.41824   0.77271   0.00000  Uiso   1.00
H499   H     0.88873   0.03341   0.24139   0.00000  Uiso   1.00
H500   H     0.91383   0.04809   0.20443   0.00000  Uiso   1.00
H501   H     0.61514   0.45304   0.80039   0.00000  Uiso   1.00
H502   H     0.61489   0.42105   0.83602   0.00000  Uiso   1.00
H503   H     0.93957   0.37939   0.18106   0.00000  Uiso   1.00
H504   H     0.53140   0.19391   0.02813   0.00000  Uiso   1.00
H505   H     0.94981   0.41363   0.21393   0.00000  Uiso   1.00
H506   H     0.57997   0.12899   0.83348   0.00000  Uiso   1.00
H507   H     0.55586   0.09803   0.80651   0.00000  Uiso   1.00
H508   H     0.62864   0.07995   0.83320   0.00000  Uiso   1.00
H509   H     0.59787   0.05585   0.80605   0.00000  Uiso   1.00
H510   H     0.85995   0.43073   0.17788   0.00000  Uiso   1.00
H511   H     0.90424   0.43319   0.18066   0.00000  Uiso   1.00
H512   H     0.54459   0.39307   0.78865   0.00000  Uiso   1.00
H513   H     0.56977   0.38954   0.83032   0.00000  Uiso   1.00
H514   H     0.96626   0.11115   0.24100   0.00000  Uiso   1.00
H515   H     0.51184   0.30992   0.97232   0.00000  Uiso   1.00
H516   H     0.95148   0.08612   0.20380   0.00000  Uiso   1.00
H517   H     0.88835   0.44761   0.80691   0.00000  Uiso   1.00
H518   H     0.91577   0.45793   0.76767   0.00000  Uiso   1.00
H519   H     0.61880   0.05669   0.18746   0.00000  Uiso   1.00
H520   H     0.58372   0.04560   0.21803   0.00000  Uiso   1.00
H521   H     0.95811   0.11072   0.78321   0.00000  Uiso   1.00
H522   H     0.93528   0.10302   0.82506   0.00000  Uiso   1.00
H523   H     0.54032   0.39133   0.22419   0.00000  Uiso   1.00
H524   H     0.56039   0.40126   0.18098   0.00000  Uiso   1.00
H525   H     0.87498   0.19153   0.68498   0.00000  Uiso   1.00
H526   H     0.80849   0.49725   0.02650   0.00000  Uiso   1.00
H527   H     0.83503   0.20033   0.70796   0.00000  Uiso   1.00
H528   H     0.63415   0.30651   0.31144   0.00000  Uiso   1.00
H529   H     0.66506   0.29273   0.27634   0.00000  Uiso   1.00
H530   H     0.78767   0.35591   0.73357   0.00000  Uiso   1.00
H531   H     0.80739   0.34144   0.69164   0.00000  Uiso   1.00
H532   H     0.70779   0.14353   0.28301   0.00000  Uiso   1.00
H533   H     0.68431   0.14385   0.32663   0.00000  Uiso   1.00
H534   H     0.61478   0.31714   0.67606   0.00000  Uiso   1.00
H535   H     0.65800   0.30853   0.68964   0.00000  Uiso   1.00
H536   H     0.86723   0.19411   0.31469   0.00000  Uiso   1.00
H537   H     0.69159   0.47904   0.97108   0.00000  Uiso   1.00
H538   H     0.83510   0.20045   0.27866   0.00000  Uiso   1.00
H539   H     0.70330   0.13037   0.69924   0.00000  Uiso   1.00
H540   H     0.67525   0.10178   0.67243   0.00000  Uiso   1.00
H541   H     0.79079   0.36015   0.28316   0.00000  Uiso   1.00
H542   H     0.81467   0.35317   0.32451   0.00000  Uiso   1.00
H543   H     0.86003   0.29088   0.28328   0.00000  Uiso   1.00
H544   H     0.85305   0.31484   0.32485   0.00000  Uiso   1.00
H545   H     0.63403   0.20118   0.69728   0.00000  Uiso   1.00
H546   H     0.63487   0.16829   0.66280   0.00000  Uiso   1.00
H547   H     0.81458   0.11397   0.32092   0.00000  Uiso   1.00
H548   H     0.51832   0.31004   0.03010   0.00000  Uiso   1.00
H549   H     0.81325   0.15791   0.31441   0.00000  Uiso   1.00
H550   H     0.67477   0.37566   0.66930   0.00000  Uiso   1.00
H551   H     0.69939   0.34671   0.69925   0.00000  Uiso   1.00
H552   H     0.64145   0.20805   0.28339   0.00000  Uiso   1.00
H553   H     0.64624   0.18431   0.32569   0.00000  Uiso   1.00
H554   H     0.84463   0.29104   0.73921   0.00000  Uiso   1.00
H555   H     0.84961   0.30347   0.69173   0.00000  Uiso   1.00
H556   H     0.69635   0.36793   0.30870   0.00000  Uiso   1.00
H557   H     0.70519   0.33228   0.27798   0.00000  Uiso   1.00
H558   H     0.81393   0.12883   0.68001   0.00000  Uiso   1.00
H559   H     0.51747   0.19266   0.97148   0.00000  Uiso   1.00
H560   H     0.79539   0.16066   0.71226   0.00000  Uiso   1.00
H561   H     0.68167   0.46828   0.11724   0.00000  Uiso   1.00
H562   H     0.66140   0.49064   0.08217   0.00000  Uiso   1.00
H563   H     0.81730   0.46166   0.87870   0.00000  Uiso   1.00
H564   H     0.83877   0.47964   0.91581   0.00000  Uiso   1.00
H565   H     0.52530   0.17875   0.12566   0.00000  Uiso   1.00
H566   H     0.53434   0.16404   0.08345   0.00000  Uiso   1.00
H567   H     0.97981   0.31977   0.87906   0.00000  Uiso   1.00
H568   H     0.97948   0.33454   0.92231   0.00000  Uiso   1.00
H569   H     0.82265   0.48267   0.12333   0.00000  Uiso   1.00
H570   H     0.93977   0.25520   0.52881   0.00000  Uiso   1.00
H571   H     0.83744   0.47961   0.08067   0.00000  Uiso   1.00
H572   H     0.68271   0.46591   0.87225   0.00000  Uiso   1.00
H573   H     0.66733   0.45732   0.91431   0.00000  Uiso   1.00
H574   H     0.52269   0.32542   0.11693   0.00000  Uiso   1.00
H575   H     0.99502   0.33747   0.08121   0.00000  Uiso   1.00
H576   H     0.52723   0.17865   0.88389   0.00000  Uiso   1.00
H577   H     0.50195   0.16194   0.91935   0.00000  Uiso   1.00
H578   H     0.93665   0.21632   0.61616   0.00000  Uiso   1.00
H579   H     0.91303   0.23276   0.58056   0.00000  Uiso   1.00
H580   H     0.57216   0.23577   0.37864   0.00000  Uiso   1.00
N581   N     0.61622   0.43969   0.20465   0.00000  Uiso   1.00
N582   N     0.88101   0.43423   0.19761   0.00000  Uiso   1.00
N583   N     0.56544   0.37927   0.80281   0.00000  Uiso   1.00
N584   N     0.94698   0.11001   0.21889   0.00000  Uiso   1.00
N585   N     0.89108   0.44714   0.77695   0.00000  Uiso   1.00
N586   N     0.61039   0.05485   0.21617   0.00000  Uiso   1.00
N587   N     0.93671   0.11928   0.80067   0.00000  Uiso   1.00
N588   N     0.56037   0.38384   0.20456   0.00000  Uiso   1.00
N589   N     0.86208   0.19311   0.71180   0.00000  Uiso   1.00
N590   N     0.63978   0.30435   0.28198   0.00000  Uiso   1.00
N591   N     0.80709   0.36176   0.71268   0.00000  Uiso   1.00
N592   N     0.88079   0.06330   0.80069   0.00000  Uiso   1.00
N593   N     0.68724   0.13182   0.29957   0.00000  Uiso   1.00
N594   N     0.63185   0.31341   0.69958   0.00000  Uiso   1.00
N595   N     0.86180   0.19287   0.28507   0.00000  Uiso   1.00
N596   N     0.67709   0.12569   0.68866   0.00000  Uiso   1.00
N597   N     0.81272   0.36885   0.29976   0.00000  Uiso   1.00
N598   N     0.86866   0.31280   0.30000   0.00000  Uiso   1.00
N599   N     0.62161   0.17694   0.68814   0.00000  Uiso   1.00
N600   N     0.81321   0.13351   0.29918   0.00000  Uiso   1.00
N601   N     0.68431   0.37073   0.69743   0.00000  Uiso   1.00
N602   N     0.63132   0.18701   0.30041   0.00000  Uiso   1.00
N603   N     0.55538   0.11061   0.21555   0.00000  Uiso   1.00
N604   N     0.86053   0.30463   0.71942   0.00000  Uiso   1.00
N605   N     0.69644   0.35914   0.27997   0.00000  Uiso   1.00
N606   N     0.80874   0.13587   0.70873   0.00000  Uiso   1.00
N607   N     0.68308   0.49237   0.10151   0.00000  Uiso   1.00
N608   N     0.81733   0.48442   0.89670   0.00000  Uiso   1.00
N609   N     0.51550   0.18045   0.09796   0.00000  Uiso   1.00
N610   N     0.99624   0.32021   0.90310   0.00000  Uiso   1.00
N611   N     0.82046   0.49623   0.09748   0.00000  Uiso   1.00
N612   N     0.68111   0.47766   0.89926   0.00000  Uiso   1.00
N613   N     0.50012   0.31688   0.10122   0.00000  Uiso   1.00
N614   N     0.94717   0.39152   0.77665   0.00000  Uiso   1.00
N615   N     0.50345   0.18322   0.89946   0.00000  Uiso   1.00
N616   N     0.93259   0.24036   0.60099   0.00000  Uiso   1.00
N617   N     0.56973   0.25157   0.40309   0.00000  Uiso   1.00
N618   N     0.74860   0.43171   0.60105   0.00000  Uiso   1.00
N619   N     0.76784   0.06669   0.39837   0.00000  Uiso   1.00
N620   N     0.56616   0.26468   0.60167   0.00000  Uiso   1.00
N621   N     0.93345   0.23093   0.40088   0.00000  Uiso   1.00
N622   N     0.77170   0.06682   0.60018   0.00000  Uiso   1.00
N623   N     0.74466   0.43259   0.39913   0.00000  Uiso   1.00
N624   N     0.88990   0.05271   0.21930   0.00000  Uiso   1.00
N625   N     0.62658   0.42881   0.81013   0.00000  Uiso   1.00
N626   N     0.94143   0.38668   0.21018   0.00000  Uiso   1.00
N627   N     0.56899   0.12323   0.80640   0.00000  Uiso   1.00
N628   N     0.62305   0.06897   0.80610   0.00000  Uiso   1.00
O629   O     0.75000  -0.00000   0.25000   0.00000  Uiso   1.00
O630   O     0.75000   0.46964   0.66317   0.00000  Uiso   1.00
O631   O     0.96964   0.25000   0.33683   0.00000  Uiso   1.00
O632   O     0.53036   0.25000   0.66317   0.00000  Uiso   1.00
O633   O     0.50000   0.21964   0.83683   0.00000  Uiso   1.00
O634   O     0.50000   0.28036   0.16317   0.00000  Uiso   1.00
O635   O     0.78036  -0.00000   0.83683   0.00000  Uiso   1.00
O636   O     0.71964  -0.00000   0.16317   0.00000  Uiso   1.00
O637   O     0.50000   0.28036   0.83683   0.00000  Uiso   1.00
O638   O     0.50000   0.21964   0.16317   0.00000  Uiso   1.00
O639   O     0.71964  -0.00000   0.83683   0.00000  Uiso   1.00
O640   O     0.75000  -0.00000   0.75000   0.00000  Uiso   1.00
O641   O     0.78036  -0.00000   0.16317   0.00000  Uiso   1.00
O642   O     0.70725   0.07307   0.27282   0.00000  Uiso   1.00
O643   O     0.79274   0.42693   0.72718   0.00000  Uiso   1.00
O644   O     0.92693   0.20725   0.27282   0.00000  Uiso   1.00
O645   O     0.57307   0.29274   0.72718   0.00000  Uiso   1.00
O646   O     0.79274   0.42693   0.27282   0.00000  Uiso   1.00
O647   O     0.70725   0.07307   0.72718   0.00000  Uiso   1.00
O648   O     0.57307   0.29274   0.27282   0.00000  Uiso   1.00
O649   O     0.92693   0.20725   0.72718   0.00000  Uiso   1.00
O650   O     0.70725   0.42693   0.72718   0.00000  Uiso   1.00
O651   O     0.50000   0.25000   0.25000   0.00000  Uiso   1.00
O652   O     0.79274   0.07307   0.27282   0.00000  Uiso   1.00
O653   O     0.92693   0.29274   0.72718   0.00000  Uiso   1.00
O654   O     0.57307   0.20725   0.27282   0.00000  Uiso   1.00
O655   O     0.79274   0.07307   0.72718   0.00000  Uiso   1.00
O656   O     0.70725   0.42693   0.27282   0.00000  Uiso   1.00
O657   O     0.57307   0.20725   0.72718   0.00000  Uiso   1.00
O658   O     0.92693   0.29274   0.27282   0.00000  Uiso   1.00
O659   O     0.95725   0.32307   0.77282   0.00000  Uiso   1.00
O660   O     0.54274   0.17693   0.22718   0.00000  Uiso   1.00
O661   O     0.67693   0.45725   0.77282   0.00000  Uiso   1.00
O662   O     0.50000   0.25000   0.75000   0.00000  Uiso   1.00
O663   O     0.82307   0.04274   0.22718   0.00000  Uiso   1.00
O664   O     0.54274   0.17693   0.77282   0.00000  Uiso   1.00
O665   O     0.95725   0.32307   0.22718   0.00000  Uiso   1.00
O666   O     0.82307   0.04274   0.77282   0.00000  Uiso   1.00
O667   O     0.67693   0.45725   0.22718   0.00000  Uiso   1.00
O668   O     0.95725   0.17693   0.22718   0.00000  Uiso   1.00
O669   O     0.54274   0.32307   0.77282   0.00000  Uiso   1.00
O670   O     0.67693   0.04274   0.22718   0.00000  Uiso   1.00
O671   O     0.82307   0.45725   0.77282   0.00000  Uiso   1.00
O672   O     0.54274   0.32307   0.22718   0.00000  Uiso   1.00
O673   O     0.75000   0.46964   0.33683   0.00000  Uiso   1.00
O674   O     0.95725   0.17693   0.77282   0.00000  Uiso   1.00
O675   O     0.82307   0.45725   0.22718   0.00000  Uiso   1.00
O676   O     0.67693   0.04274   0.77282   0.00000  Uiso   1.00
O677   O     0.75000   0.03036   0.66317   0.00000  Uiso   1.00
O678   O     0.53036   0.25000   0.33683   0.00000  Uiso   1.00
O679   O     0.96964   0.25000   0.66317   0.00000  Uiso   1.00
O680   O     0.75000   0.03036   0.33683   0.00000  Uiso   1.00
Zn681  Zn    0.70660  -0.00000   0.21760   0.00000  Uiso   1.00
Zn682  Zn    0.54340   0.25000   0.28240   0.00000  Uiso   1.00
Zn683  Zn    0.75000   0.45660   0.71760   0.00000  Uiso   1.00
Zn684  Zn    0.75000   0.04340   0.28240   0.00000  Uiso   1.00
Zn685  Zn    0.54340   0.25000   0.71760   0.00000  Uiso   1.00
Zn686  Zn    0.95660   0.25000   0.28240   0.00000  Uiso   1.00
Zn687  Zn    0.75000   0.04340   0.71760   0.00000  Uiso   1.00
Zn688  Zn    0.75000   0.45660   0.28240   0.00000  Uiso   1.00
Zn689  Zn    0.79340  -0.00000   0.78240   0.00000  Uiso   1.00
Zn690  Zn    0.50000   0.20660   0.21760   0.00000  Uiso   1.00
Zn691  Zn    0.50000   0.29340   0.78240   0.00000  Uiso   1.00
Zn692  Zn    0.79340  -0.00000   0.21760   0.00000  Uiso   1.00
Zn693  Zn    0.70660  -0.00000   0.78240   0.00000  Uiso   1.00
Zn694  Zn    0.50000   0.29340   0.21760   0.00000  Uiso   1.00
Zn695  Zn    0.50000   0.20660   0.78240   0.00000  Uiso   1.00
Zn696  Zn    0.95660   0.25000   0.71760   0.00000  Uiso   1.00
C697   C     0.21779   0.99108   0.04171   0.00000  Uiso   1.00
C698   C     0.03095   0.76057   0.45798   0.00000  Uiso   1.00
C699   C     0.34919   0.90278   0.74744   0.00000  Uiso   1.00
C700   C     0.40313   0.65043   0.25163   0.00000  Uiso   1.00
C701   C     0.09898   0.84744   0.75090   0.00000  Uiso   1.00
C702   C     0.34811   0.90158   0.25013   0.00000  Uiso   1.00
C703   C     0.15132   0.59772   0.74878   0.00000  Uiso   1.00
C704   C     0.09732   0.65123   0.74886   0.00000  Uiso   1.00
C705   C     0.40275   0.84905   0.25230   0.00000  Uiso   1.00
C706   C     0.15302   0.90062   0.75204   0.00000  Uiso   1.00
C707   C     0.35039   0.59605   0.25397   0.00000  Uiso   1.00
C708   C     0.40276   0.84906   0.74831   0.00000  Uiso   1.00
C709   C     0.26312   0.96551   0.54254   0.00000  Uiso   1.00
C710   C     0.09586   0.64955   0.25454   0.00000  Uiso   1.00
C711   C     0.34650   0.59990   0.75338   0.00000  Uiso   1.00
C712   C     0.15394   0.89969   0.24553   0.00000  Uiso   1.00
C713   C     0.25102   0.99535   0.10221   0.00000  Uiso   1.00
C714   C     0.24948   0.98827   0.89637   0.00000  Uiso   1.00
C715   C     0.00858   0.74944   0.10254   0.00000  Uiso   1.00
C716   C     0.00226   0.75110   0.89805   0.00000  Uiso   1.00
C717   C     0.49940   0.75334   0.60260   0.00000  Uiso   1.00
C718   C     0.00063   0.74606   0.39776   0.00000  Uiso   1.00
C719   C     0.25781   0.99938   0.60270   0.00000  Uiso   1.00
C720   C     0.26845   0.53102   0.45778   0.00000  Uiso   1.00
C721   C     0.25600   0.99963   0.39752   0.00000  Uiso   1.00
C722   C     0.03028   0.76652   0.54251   0.00000  Uiso   1.00
C723   C     0.46753   0.74591   0.45836   0.00000  Uiso   1.00
C724   C     0.27275   0.53022   0.54281   0.00000  Uiso   1.00
C725   C     0.26110   0.96594   0.45745   0.00000  Uiso   1.00
C726   C     0.21760   0.99289   0.08191   0.00000  Uiso   1.00
C727   C     0.28288   0.98563   0.91640   0.00000  Uiso   1.00
C728   C     0.01748   0.71676   0.08197   0.00000  Uiso   1.00
C729   C     0.28258   0.98504   0.95660   0.00000  Uiso   1.00
C730   C     0.00265   0.78454   0.91930   0.00000  Uiso   1.00
C731   C     0.28436   0.99464   0.08093   0.00000  Uiso   1.00
C732   C     0.21641   0.98231   0.91689   0.00000  Uiso   1.00
C733   C     0.00939   0.78309   0.08243   0.00000  Uiso   1.00
C734   C     0.00692   0.71796   0.91855   0.00000  Uiso   1.00
C735   C     0.46622   0.74980   0.58208   0.00000  Uiso   1.00
C736   C     0.03336   0.75226   0.41892   0.00000  Uiso   1.00
C737   C     0.25703   0.96573   0.58223   0.00000  Uiso   1.00
C738   C     0.26426   0.53216   0.41775   0.00000  Uiso   1.00
C739   C     0.03164   0.76192   0.58240   0.00000  Uiso   1.00
C740   C     0.02449   0.71895   0.04233   0.00000  Uiso   1.00
C741   C     0.46769   0.74055   0.41867   0.00000  Uiso   1.00
C742   C     0.26725   0.53167   0.58239   0.00000  Uiso   1.00
C743   C     0.25432   0.96627   0.41790   0.00000  Uiso   1.00
C744   C     0.25017   0.99049   0.02059   0.00000  Uiso   1.00
C745   C     0.25000   0.98633   0.97756   0.00000  Uiso   1.00
C746   C     0.02113   0.75152   0.02172   0.00000  Uiso   1.00
C747   C     0.01702   0.75138   0.97878   0.00000  Uiso   1.00
C748   C     0.49806   0.76101   0.52162   0.00000  Uiso   1.00
C749   C     0.49852   0.75723   0.47873   0.00000  Uiso   1.00
C750   C     0.26854   0.99783   0.52171   0.00000  Uiso   1.00
C751   C     0.01102   0.78381   0.95850   0.00000  Uiso   1.00
C752   C     0.26705   0.99815   0.47840   0.00000  Uiso   1.00
C753   C     0.25086   0.99999   0.35519   0.00000  Uiso   1.00
C754   C     0.25133   0.99993   0.64477   0.00000  Uiso   1.00
C755   C     0.00014   0.74833   0.35528   0.00000  Uiso   1.00
C756   C     0.49991   0.75017   0.64485   0.00000  Uiso   1.00
C757   C     0.49971   0.75027   0.85544   0.00000  Uiso   1.00
C758   C     0.00132   0.74976   0.14462   0.00000  Uiso   1.00
C759   C     0.24983   0.99687   0.85485   0.00000  Uiso   1.00
C760   C     0.25026   0.99896   0.14473   0.00000  Uiso   1.00
C761   C     0.17938   0.56946   0.25106   0.00000  Uiso   1.00
C762   C     0.28282   0.99426   0.04074   0.00000  Uiso   1.00
C763   C     0.32032   0.93023   0.74935   0.00000  Uiso   1.00
C764   C     0.43016   0.67974   0.25015   0.00000  Uiso   1.00
C765   C     0.07014   0.81995   0.75016   0.00000  Uiso   1.00
C766   C     0.31990   0.92980   0.24980   0.00000  Uiso   1.00
C767   C     0.17982   0.56990   0.74967   0.00000  Uiso   1.00
C768   C     0.07053   0.81954   0.24907   0.00000  Uiso   1.00
C769   C     0.42945   0.68049   0.75088   0.00000  Uiso   1.00
C770   C     0.18031   0.92962   0.75041   0.00000  Uiso   1.00
C771   C     0.32066   0.56944   0.25107   0.00000  Uiso   1.00
C772   C     0.43018   0.82022   0.74972   0.00000  Uiso   1.00
C773   C     0.21742   0.98236   0.95712   0.00000  Uiso   1.00
C774   C     0.06945   0.67937   0.25102   0.00000  Uiso   1.00
C775   C     0.31967   0.57041   0.75070   0.00000  Uiso   1.00
C776   C     0.18054   0.92938   0.24895   0.00000  Uiso   1.00
C777   C     0.06978   0.67982   0.74972   0.00000  Uiso   1.00
C778   C     0.43034   0.82036   0.25071   0.00000  Uiso   1.00
C779   C     0.12149   0.90549   0.22428   0.00000  Uiso   1.00
C780   C     0.37719   0.59586   0.77775   0.00000  Uiso   1.00
C781   C     0.08934   0.61625   0.23525   0.00000  Uiso   1.00
C782   C     0.41111   0.88414   0.76248   0.00000  Uiso   1.00
C783   C     0.38426   0.58846   0.23589   0.00000  Uiso   1.00
C784   C     0.01707   0.78366   0.04326   0.00000  Uiso   1.00
C785   C     0.12520   0.90171   0.77962   0.00000  Uiso   1.00
C786   C     0.40726   0.88019   0.22919   0.00000  Uiso   1.00
C787   C     0.09701   0.62393   0.77753   0.00000  Uiso   1.00
C788   C     0.12383   0.59712   0.77733   0.00000  Uiso   1.00
C789   C     0.37884   0.90511   0.22556   0.00000  Uiso   1.00
C790   C     0.09695   0.87619   0.77832   0.00000  Uiso   1.00
C791   C     0.41129   0.61581   0.23540   0.00000  Uiso   1.00
C792   C     0.38402   0.91112   0.76227   0.00000  Uiso   1.00
C793   C     0.11622   0.58919   0.23536   0.00000  Uiso   1.00
C794   C     0.40413   0.62287   0.77774   0.00000  Uiso   1.00
C795   C     0.01442   0.71866   0.95779   0.00000  Uiso   1.00
C796   C     0.09451   0.87855   0.22429   0.00000  Uiso   1.00
C797   C     0.36741   0.65947   0.73246   0.00000  Uiso   1.00
C798   C     0.13408   0.83883   0.26326   0.00000  Uiso   1.00
C799   C     0.34179   0.86841   0.73075   0.00000  Uiso   1.00
C800   C     0.15428   0.62740   0.27753   0.00000  Uiso   1.00
C801   C     0.12880   0.84443   0.72538   0.00000  Uiso   1.00
C802   C     0.36999   0.65699   0.27073   0.00000  Uiso   1.00
C803   C     0.15091   0.62472   0.71956   0.00000  Uiso   1.00
C804   C     0.34470   0.87170   0.27580   0.00000  Uiso   1.00
C805   C     0.37183   0.84488   0.27623   0.00000  Uiso   1.00
C806   C     0.46593   0.75553   0.54247   0.00000  Uiso   1.00
C807   C     0.12357   0.65093   0.71926   0.00000  Uiso   1.00
C808   C     0.34478   0.62889   0.27477   0.00000  Uiso   1.00
C809   C     0.15518   0.87176   0.72467   0.00000  Uiso   1.00
C810   C     0.12727   0.65430   0.27765   0.00000  Uiso   1.00
C811   C     0.36838   0.84112   0.73189   0.00000  Uiso   1.00
C812   C     0.16130   0.86563   0.26293   0.00000  Uiso   1.00
C813   C     0.34095   0.63210   0.73195   0.00000  Uiso   1.00
C814   C     0.10018   0.84617   0.24569   0.00000  Uiso   1.00
C815   C     0.39987   0.65377   0.75364   0.00000  Uiso   1.00
C816   C     0.14952   0.59585   0.25452   0.00000  Uiso   1.00
H817   H     0.19169   0.99077   0.02807   0.00000  Uiso   1.00
H818   H     0.05605   0.76852   0.47123   0.00000  Uiso   1.00
H819   H     0.08581   0.73633   0.42211   0.00000  Uiso   1.00
H820   H     0.27077   0.92453   0.61820   0.00000  Uiso   1.00
H821   H     0.24625   0.91026   0.58122   0.00000  Uiso   1.00
H822   H     0.28892   0.56444   0.37847   0.00000  Uiso   1.00
H823   H     0.27695   0.58692   0.41740   0.00000  Uiso   1.00
H824   H     0.06579   0.78810   0.61870   0.00000  Uiso   1.00
H825   H     0.08748   0.76827   0.58216   0.00000  Uiso   1.00
H826   H     0.43724   0.71464   0.37691   0.00000  Uiso   1.00
H827   H     0.41980   0.71290   0.41927   0.00000  Uiso   1.00
H828   H     0.28880   0.56526   0.62398   0.00000  Uiso   1.00
H829   H     0.26260   0.93929   0.52889   0.00000  Uiso   1.00
H830   H     0.24650   0.57800   0.60753   0.00000  Uiso   1.00
H831   H     0.26735   0.92357   0.38365   0.00000  Uiso   1.00
H832   H     0.23915   0.91197   0.41903   0.00000  Uiso   1.00
H833   H     0.27215   0.55679   0.47177   0.00000  Uiso   1.00
H834   H     0.05539   0.77386   0.52903   0.00000  Uiso   1.00
H835   H     0.44211   0.74067   0.47249   0.00000  Uiso   1.00
H836   H     0.27994   0.55562   0.52958   0.00000  Uiso   1.00
H837   H     0.26053   0.93970   0.47081   0.00000  Uiso   1.00
H838   H     0.10871   0.95975   0.22432   0.00000  Uiso   1.00
H839   H     0.09894   0.93967   0.18095   0.00000  Uiso   1.00
H840   H     0.38945   0.54181   0.78335   0.00000  Uiso   1.00
H841   H     0.30869   0.98391   0.97017   0.00000  Uiso   1.00
H842   H     0.39677   0.56488   0.82533   0.00000  Uiso   1.00
H843   H     0.05887   0.61376   0.18587   0.00000  Uiso   1.00
H844   H     0.04334   0.58582   0.22258   0.00000  Uiso   1.00
H845   H     0.44867   0.88452   0.80583   0.00000  Uiso   1.00
H846   H     0.45568   0.91824   0.77271   0.00000  Uiso   1.00
H847   H     0.38873   0.53341   0.24139   0.00000  Uiso   1.00
H848   H     0.41383   0.54809   0.20443   0.00000  Uiso   1.00
H849   H     0.11514   0.95304   0.80039   0.00000  Uiso   1.00
H850   H     0.11489   0.92105   0.83602   0.00000  Uiso   1.00
H851   H     0.43957   0.87939   0.18106   0.00000  Uiso   1.00
H852   H     0.03140   0.69391   0.02813   0.00000  Uiso   1.00
H853   H     0.44981   0.91363   0.21393   0.00000  Uiso   1.00
H854   H     0.07997   0.62899   0.83348   0.00000  Uiso   1.00
H855   H     0.05586   0.59803   0.80651   0.00000  Uiso   1.00
H856   H     0.12864   0.57995   0.83320   0.00000  Uiso   1.00
H857   H     0.09787   0.55585   0.80605   0.00000  Uiso   1.00
H858   H     0.35995   0.93073   0.17788   0.00000  Uiso   1.00
H859   H     0.40424   0.93319   0.18066   0.00000  Uiso   1.00
H860   H     0.04459   0.89307   0.78865   0.00000  Uiso   1.00
H861   H     0.06977   0.88954   0.83032   0.00000  Uiso   1.00
H862   H     0.46626   0.61115   0.24100   0.00000  Uiso   1.00
H863   H     0.01184   0.80992   0.97232   0.00000  Uiso   1.00
H864   H     0.45148   0.58612   0.20380   0.00000  Uiso   1.00
H865   H     0.38835   0.94761   0.80691   0.00000  Uiso   1.00
H866   H     0.41577   0.95793   0.76767   0.00000  Uiso   1.00
H867   H     0.11880   0.55669   0.18746   0.00000  Uiso   1.00
H868   H     0.08372   0.54560   0.21803   0.00000  Uiso   1.00
H869   H     0.45811   0.61072   0.78321   0.00000  Uiso   1.00
H870   H     0.43528   0.60302   0.82506   0.00000  Uiso   1.00
H871   H     0.04032   0.89133   0.22419   0.00000  Uiso   1.00
H872   H     0.06039   0.90126   0.18098   0.00000  Uiso   1.00
H873   H     0.37498   0.69153   0.68498   0.00000  Uiso   1.00
H874   H     0.30849   0.99725   0.02650   0.00000  Uiso   1.00
H875   H     0.33503   0.70033   0.70796   0.00000  Uiso   1.00
H876   H     0.13415   0.80651   0.31144   0.00000  Uiso   1.00
H877   H     0.16506   0.79273   0.27634   0.00000  Uiso   1.00
H878   H     0.28767   0.85591   0.73357   0.00000  Uiso   1.00
H879   H     0.30739   0.84144   0.69164   0.00000  Uiso   1.00
H880   H     0.20779   0.64353   0.28301   0.00000  Uiso   1.00
H881   H     0.18431   0.64385   0.32663   0.00000  Uiso   1.00
H882   H     0.11478   0.81714   0.67606   0.00000  Uiso   1.00
H883   H     0.15800   0.80853   0.68964   0.00000  Uiso   1.00
H884   H     0.36723   0.69411   0.31469   0.00000  Uiso   1.00
H885   H     0.19159   0.97904   0.97108   0.00000  Uiso   1.00
H886   H     0.33510   0.70045   0.27866   0.00000  Uiso   1.00
H887   H     0.20330   0.63037   0.69924   0.00000  Uiso   1.00
H888   H     0.17525   0.60178   0.67243   0.00000  Uiso   1.00
H889   H     0.29079   0.86015   0.28316   0.00000  Uiso   1.00
H890   H     0.31467   0.85317   0.32451   0.00000  Uiso   1.00
H891   H     0.36003   0.79088   0.28328   0.00000  Uiso   1.00
H892   H     0.35305   0.81484   0.32485   0.00000  Uiso   1.00
H893   H     0.13403   0.70118   0.69728   0.00000  Uiso   1.00
H894   H     0.13487   0.66829   0.66280   0.00000  Uiso   1.00
H895   H     0.31458   0.61397   0.32092   0.00000  Uiso   1.00
H896   H     0.01832   0.81004   0.03010   0.00000  Uiso   1.00
H897   H     0.31325   0.65791   0.31441   0.00000  Uiso   1.00
H898   H     0.17477   0.87566   0.66930   0.00000  Uiso   1.00
H899   H     0.19939   0.84671   0.69925   0.00000  Uiso   1.00
H900   H     0.14145   0.70805   0.28339   0.00000  Uiso   1.00
H901   H     0.14624   0.68431   0.32569   0.00000  Uiso   1.00
H902   H     0.34463   0.79104   0.73921   0.00000  Uiso   1.00
H903   H     0.34961   0.80347   0.69173   0.00000  Uiso   1.00
H904   H     0.19635   0.86793   0.30870   0.00000  Uiso   1.00
H905   H     0.20519   0.83228   0.27798   0.00000  Uiso   1.00
H906   H     0.31393   0.62883   0.68001   0.00000  Uiso   1.00
H907   H     0.01747   0.69266   0.97148   0.00000  Uiso   1.00
H908   H     0.29539   0.66066   0.71226   0.00000  Uiso   1.00
H909   H     0.18167   0.96828   0.11724   0.00000  Uiso   1.00
H910   H     0.16140   0.99064   0.08217   0.00000  Uiso   1.00
H911   H     0.31730   0.96166   0.87870   0.00000  Uiso   1.00
H912   H     0.33877   0.97964   0.91581   0.00000  Uiso   1.00
H913   H     0.02530   0.67875   0.12566   0.00000  Uiso   1.00
H914   H     0.03434   0.66404   0.08345   0.00000  Uiso   1.00
H915   H     0.47981   0.81977   0.87906   0.00000  Uiso   1.00
H916   H     0.47948   0.83454   0.92231   0.00000  Uiso   1.00
H917   H     0.32265   0.98267   0.12333   0.00000  Uiso   1.00
H918   H     0.43977   0.75520   0.52881   0.00000  Uiso   1.00
H919   H     0.33744   0.97961   0.08067   0.00000  Uiso   1.00
H920   H     0.18271   0.96591   0.87225   0.00000  Uiso   1.00
H921   H     0.16733   0.95732   0.91431   0.00000  Uiso   1.00
H922   H     0.02269   0.82542   0.11693   0.00000  Uiso   1.00
H923   H     0.49502   0.83747   0.08121   0.00000  Uiso   1.00
H924   H     0.02723   0.67865   0.88389   0.00000  Uiso   1.00
H925   H     0.00195   0.66194   0.91935   0.00000  Uiso   1.00
H926   H     0.43665   0.71632   0.61616   0.00000  Uiso   1.00
H927   H     0.41303   0.73276   0.58056   0.00000  Uiso   1.00
H928   H     0.07216   0.73577   0.37864   0.00000  Uiso   1.00
N929   N     0.11622   0.93969   0.20465   0.00000  Uiso   1.00
N930   N     0.38101   0.93423   0.19761   0.00000  Uiso   1.00
N931   N     0.06544   0.87927   0.80281   0.00000  Uiso   1.00
N932   N     0.44698   0.61001   0.21889   0.00000  Uiso   1.00
N933   N     0.39108   0.94714   0.77695   0.00000  Uiso   1.00
N934   N     0.11039   0.55485   0.21617   0.00000  Uiso   1.00
N935   N     0.43671   0.61928   0.80067   0.00000  Uiso   1.00
N936   N     0.06037   0.88384   0.20456   0.00000  Uiso   1.00
N937   N     0.36208   0.69311   0.71180   0.00000  Uiso   1.00
N938   N     0.13978   0.80435   0.28198   0.00000  Uiso   1.00
N939   N     0.30709   0.86176   0.71268   0.00000  Uiso   1.00
N940   N     0.38079   0.56330   0.80069   0.00000  Uiso   1.00
N941   N     0.18724   0.63182   0.29957   0.00000  Uiso   1.00
N942   N     0.13185   0.81341   0.69958   0.00000  Uiso   1.00
N943   N     0.36180   0.69287   0.28507   0.00000  Uiso   1.00
N944   N     0.17709   0.62569   0.68866   0.00000  Uiso   1.00
N945   N     0.31272   0.86885   0.29976   0.00000  Uiso   1.00
N946   N     0.36866   0.81280   0.30000   0.00000  Uiso   1.00
N947   N     0.12161   0.67694   0.68814   0.00000  Uiso   1.00
N948   N     0.31321   0.63351   0.29918   0.00000  Uiso   1.00
N949   N     0.18431   0.87073   0.69743   0.00000  Uiso   1.00
N950   N     0.13132   0.68701   0.30041   0.00000  Uiso   1.00
N951   N     0.05538   0.61061   0.21555   0.00000  Uiso   1.00
N952   N     0.36053   0.80463   0.71942   0.00000  Uiso   1.00
N953   N     0.19644   0.85914   0.27997   0.00000  Uiso   1.00
N954   N     0.30874   0.63587   0.70873   0.00000  Uiso   1.00
N955   N     0.18308   0.99237   0.10151   0.00000  Uiso   1.00
N956   N     0.31733   0.98442   0.89670   0.00000  Uiso   1.00
N957   N     0.01550   0.68045   0.09796   0.00000  Uiso   1.00
N958   N     0.49624   0.82021   0.90310   0.00000  Uiso   1.00
N959   N     0.32046   0.99623   0.09748   0.00000  Uiso   1.00
N960   N     0.18111   0.97766   0.89926   0.00000  Uiso   1.00
N961   N     0.00012   0.81688   0.10122   0.00000  Uiso   1.00
N962   N     0.44717   0.89152   0.77665   0.00000  Uiso   1.00
N963   N     0.00345   0.68322   0.89946   0.00000  Uiso   1.00
N964   N     0.43259   0.74036   0.60099   0.00000  Uiso   1.00
N965   N     0.06973   0.75157   0.40309   0.00000  Uiso   1.00
N966   N     0.24860   0.93171   0.60105   0.00000  Uiso   1.00
N967   N     0.26784   0.56669   0.39837   0.00000  Uiso   1.00
N968   N     0.06616   0.76468   0.60167   0.00000  Uiso   1.00
N969   N     0.43345   0.73093   0.40088   0.00000  Uiso   1.00
N970   N     0.27170   0.56682   0.60018   0.00000  Uiso   1.00
N971   N     0.24466   0.93259   0.39913   0.00000  Uiso   1.00
N972   N     0.38990   0.55271   0.21930   0.00000  Uiso   1.00
N973   N     0.12658   0.92881   0.81013   0.00000  Uiso   1.00
N974   N     0.44143   0.88668   0.21018   0.00000  Uiso   1.00
N975   N     0.06899   0.62323   0.80640   0.00000  Uiso   1.00
N976   N     0.12305   0.56897   0.80610   0.00000  Uiso   1.00
O977   O     0.25000   0.50000   0.25000   0.00000  Uiso   1.00
O978   O     0.25000   0.96964   0.66317   0.00000  Uiso   1.00
O979   O     0.46964   0.75000   0.33683   0.00000  Uiso   1.00
O980   O     0.03036   0.75000   0.66317   0.00000  Uiso   1.00
O981   O     0.00000   0.71964   0.83683   0.00000  Uiso   1.00
O982   O     0.00000   0.78036   0.16317   0.00000  Uiso   1.00
O983   O     0.28036   0.50000   0.83683   0.00000  Uiso   1.00
O984   O     0.21964   0.50000   0.16317   0.00000  Uiso   1.00
O985   O     0.00000   0.78036   0.83683   0.00000  Uiso   1.00
O986   O     0.00000   0.71964   0.16317   0.00000  Uiso   1.00
O987   O     0.21964   0.50000   0.83683   0.00000  Uiso   1.00
O988   O     0.25000   0.50000   0.75000   0.00000  Uiso   1.00
O989   O     0.28036   0.50000   0.16317   0.00000  Uiso   1.00
O990   O     0.20725   0.57307   0.27282   0.00000  Uiso   1.00
O991   O     0.29274   0.92693   0.72718   0.00000  Uiso   1.00
O992   O     0.42693   0.70725   0.27282   0.00000  Uiso   1.00
O993   O     0.07307   0.79274   0.72718   0.00000  Uiso   1.00
O994   O     0.29274   0.92693   0.27282   0.00000  Uiso   1.00
O995   O     0.20725   0.57307   0.72718   0.00000  Uiso   1.00
O996   O     0.07307   0.79274   0.27282   0.00000  Uiso   1.00
O997   O     0.42693   0.70725   0.72718   0.00000  Uiso   1.00
O998   O     0.20725   0.92693   0.72718   0.00000  Uiso   1.00
O999   O    -0.00000   0.75000   0.25000   0.00000  Uiso   1.00
O1000  O     0.29274   0.57307   0.27282   0.00000  Uiso   1.00
O1001  O     0.42693   0.79274   0.72718   0.00000  Uiso   1.00
O1002  O     0.07307   0.70725   0.27282   0.00000  Uiso   1.00
O1003  O     0.29274   0.57307   0.72718   0.00000  Uiso   1.00
O1004  O     0.20725   0.92693   0.27282   0.00000  Uiso   1.00
O1005  O     0.07307   0.70725   0.72718   0.00000  Uiso   1.00
O1006  O     0.42693   0.79274   0.27282   0.00000  Uiso   1.00
O1007  O     0.45725   0.82307   0.77282   0.00000  Uiso   1.00
O1008  O     0.04274   0.67693   0.22718   0.00000  Uiso   1.00
O1009  O     0.17693   0.95725   0.77282   0.00000  Uiso   1.00
O1010  O     0.00000   0.75000   0.75000   0.00000  Uiso   1.00
O1011  O     0.32307   0.54274   0.22718   0.00000  Uiso   1.00
O1012  O     0.04274   0.67693   0.77282   0.00000  Uiso   1.00
O1013  O     0.45725   0.82307   0.22718   0.00000  Uiso   1.00
O1014  O     0.32307   0.54274   0.77282   0.00000  Uiso   1.00
O1015  O     0.17693   0.95725   0.22718   0.00000  Uiso   1.00
O1016  O     0.45725   0.67693   0.22718   0.00000  Uiso   1.00
O1017  O     0.04274   0.82307   0.77282   0.00000  Uiso   1.00
O1018  O     0.17693   0.54274   0.22718   0.00000  Uiso   1.00
O1019  O     0.32307   0.95725   0.77282   0.00000  Uiso   1.00
O1020  O     0.04274   0.82307   0.22718   0.00000  Uiso   1.00
O1021  O     0.25000   0.96964   0.33683   0.00000  Uiso   1.00
O1022  O     0.45725   0.67693   0.77282   0.00000  Uiso   1.00
O1023  O     0.32307   0.95725   0.22718   0.00000  Uiso   1.00
O1024  O     0.17693   0.54274   0.77282   0.00000  Uiso   1.00
O1025  O     0.25000   0.53036   0.66317   0.00000  Uiso   1.00
O1026  O     0.03036   0.75000   0.33683   0.00000  Uiso   1.00
O1027  O     0.46964   0.75000   0.66317   0.00000  Uiso   1.00
O1028  O     0.25000   0.53036   0.33683   0.00000  Uiso   1.00
Zn1029 Zn    0.20660   0.50000   0.21760   0.00000  Uiso   1.00
Zn1030 Zn    0.04340   0.75000   0.28240   0.00000  Uiso   1.00
Zn1031 Zn    0.25000   0.95660   0.71760   0.00000  Uiso   1.00
Zn1032 Zn    0.25000   0.54340   0.28240   0.00000  Uiso   1.00
Zn1033 Zn    0.04340   0.75000   0.71760   0.00000  Uiso   1.00
Zn1034 Zn    0.45660   0.75000   0.28240   0.00000  Uiso   1.00
Zn1035 Zn    0.25000   0.54340   0.71760   0.00000  Uiso   1.00
Zn1036 Zn    0.25000   0.95660   0.28240   0.00000  Uiso   1.00
Zn1037 Zn    0.29340   0.50000   0.78240   0.00000  Uiso   1.00
Zn1038 Zn    0.00000   0.70660   0.21760   0.00000  Uiso   1.00
Zn1039 Zn    0.00000   0.79340   0.78240   0.00000  Uiso   1.00
Zn1040 Zn    0.29340   0.50000   0.21760   0.00000  Uiso   1.00
Zn1041 Zn    0.20660   0.50000   0.78240   0.00000  Uiso   1.00
Zn1042 Zn    0.00000   0.79340   0.21760   0.00000  Uiso   1.00
Zn1043 Zn   -0.00000   0.70660   0.78240   0.00000  Uiso   1.00
Zn1044 Zn    0.45660   0.75000   0.71760   0.00000  Uiso   1.00
C1045  C     0.71779   0.99108   0.04171   0.00000  Uiso   1.00
C1046  C     0.53095   0.76057   0.45798   0.00000  Uiso   1.00
C1047  C     0.84919   0.90278   0.74744   0.00000  Uiso   1.00
C1048  C     0.90313   0.65043   0.25163   0.00000  Uiso   1.00
C1049  C     0.59898   0.84744   0.75090   0.00000  Uiso   1.00
C1050  C     0.84811   0.90158   0.25013   0.00000  Uiso   1.00
C1051  C     0.65132   0.59772   0.74878   0.00000  Uiso   1.00
C1052  C     0.59732   0.65123   0.74886   0.00000  Uiso   1.00
C1053  C     0.90275   0.84905   0.25230   0.00000  Uiso   1.00
C1054  C     0.65302   0.90062   0.75204   0.00000  Uiso   1.00
C1055  C     0.85039   0.59605   0.25397   0.00000  Uiso   1.00
C1056  C     0.90276   0.84906   0.74831   0.00000  Uiso   1.00
C1057  C     0.76312   0.96551   0.54254   0.00000  Uiso   1.00
C1058  C     0.59586   0.64955   0.25454   0.00000  Uiso   1.00
C1059  C     0.84650   0.59990   0.75338   0.00000  Uiso   1.00
C1060  C     0.65394   0.89969   0.24553   0.00000  Uiso   1.00
C1061  C     0.75102   0.99535   0.10221   0.00000  Uiso   1.00
C1062  C     0.74948   0.98827   0.89637   0.00000  Uiso   1.00
C1063  C     0.50858   0.74944   0.10254   0.00000  Uiso   1.00
C1064  C     0.50226   0.75110   0.89805   0.00000  Uiso   1.00
C1065  C     0.99940   0.75334   0.60260   0.00000  Uiso   1.00
C1066  C     0.50063   0.74606   0.39776   0.00000  Uiso   1.00
C1067  C     0.75781   0.99938   0.60270   0.00000  Uiso   1.00
C1068  C     0.76845   0.53102   0.45778   0.00000  Uiso   1.00
C1069  C     0.75600   0.99963   0.39752   0.00000  Uiso   1.00
C1070  C     0.53028   0.76652   0.54251   0.00000  Uiso   1.00
C1071  C     0.96753   0.74591   0.45836   0.00000  Uiso   1.00
C1072  C     0.77275   0.53022   0.54281   0.00000  Uiso   1.00
C1073  C     0.76110   0.96594   0.45745   0.00000  Uiso   1.00
C1074  C     0.71760   0.99289   0.08191   0.00000  Uiso   1.00
C1075  C     0.78288   0.98563   0.91640   0.00000  Uiso   1.00
C1076  C     0.51748   0.71676   0.08197   0.00000  Uiso   1.00
C1077  C     0.78258   0.98504   0.95660   0.00000  Uiso   1.00
C1078  C     0.50265   0.78454   0.91930   0.00000  Uiso   1.00
C1079  C     0.78436   0.99464   0.08093   0.00000  Uiso   1.00
C1080  C     0.71641   0.98231   0.91689   0.00000  Uiso   1.00
C1081  C     0.50939   0.78309   0.08243   0.00000  Uiso   1.00
C1082  C     0.50692   0.71796   0.91855   0.00000  Uiso   1.00
C1083  C     0.96622   0.74980   0.58208   0.00000  Uiso   1.00
C1084  C     0.53336   0.75226   0.41892   0.00000  Uiso   1.00
C1085  C     0.75703   0.96573   0.58223   0.00000  Uiso   1.00
C1086  C     0.76426   0.53216   0.41775   0.00000  Uiso   1.00
C1087  C     0.53164   0.76192   0.58240   0.00000  Uiso   1.00
C1088  C     0.52449   0.71895   0.04233   0.00000  Uiso   1.00
C1089  C     0.96769   0.74055   0.41867   0.00000  Uiso   1.00
C1090  C     0.76725   0.53167   0.58239   0.00000  Uiso   1.00
C1091  C     0.75432   0.96627   0.41790   0.00000  Uiso   1.00
C1092  C     0.75017   0.99049   0.02059   0.00000  Uiso   1.00
C1093  C     0.75000   0.98633   0.97756   0.00000  Uiso   1.00
C1094  C     0.52113   0.75152   0.02172   0.00000  Uiso   1.00
C1095  C     0.51702   0.75138   0.97878   0.00000  Uiso   1.00
C1096  C     0.99806   0.76101   0.52162   0.00000  Uiso   1.00
C1097  C     0.99852   0.75723   0.47873   0.00000  Uiso   1.00
C1098  C     0.76854   0.99783   0.52171   0.00000  Uiso   1.00
C1099  C     0.51102   0.78381   0.95850   0.00000  Uiso   1.00
C1100  C     0.76705   0.99815   0.47840   0.00000  Uiso   1.00
C1101  C     0.75086   0.99999   0.35519   0.00000  Uiso   1.00
C1102  C     0.75133   0.99993   0.64477   0.00000  Uiso   1.00
C1103  C     0.50014   0.74833   0.35528   0.00000  Uiso   1.00
C1104  C     0.99991   0.75017   0.64485   0.00000  Uiso   1.00
C1105  C     0.99971   0.75027   0.85544   0.00000  Uiso   1.00
C1106  C     0.50132   0.74976   0.14462   0.00000  Uiso   1.00
C1107  C     0.74983   0.99687   0.85485   0.00000  Uiso   1.00
C1108  C     0.75026   0.99896   0.14473   0.00000  Uiso   1.00
C1109  C     0.67938   0.56946   0.25106   0.00000  Uiso   1.00
C1110  C     0.78282   0.99426   0.04074   0.00000  Uiso   1.00
C1111  C     0.82032   0.93023   0.74935   0.00000  Uiso   1.00
C1112  C     0.93016   0.67974   0.25015   0.00000  Uiso   1.00
C1113  C     0.57014   0.81995   0.75016   0.00000  Uiso   1.00
C1114  C     0.81990   0.92980   0.24980   0.00000  Uiso   1.00
C1115  C     0.67982   0.56990   0.74967   0.00000  Uiso   1.00
C1116  C     0.57053   0.81954   0.24907   0.00000  Uiso   1.00
C1117  C     0.92945   0.68049   0.75088   0.00000  Uiso   1.00
C1118  C     0.68031   0.92962   0.75041   0.00000  Uiso   1.00
C1119  C     0.82066   0.56944   0.25107   0.00000  Uiso   1.00
C1120  C     0.93018   0.82022   0.74972   0.00000  Uiso   1.00
C1121  C     0.71742   0.98236   0.95712   0.00000  Uiso   1.00
C1122  C     0.56945   0.67937   0.25102   0.00000  Uiso   1.00
C1123  C     0.81967   0.57041   0.75070   0.00000  Uiso   1.00
C1124  C     0.68054   0.92938   0.24895   0.00000  Uiso   1.00
C1125  C     0.56978   0.67982   0.74972   0.00000  Uiso   1.00
C1126  C     0.93034   0.82036   0.25071   0.00000  Uiso   1.00
C1127  C     0.62149   0.90549   0.22428   0.00000  Uiso   1.00
C1128  C     0.87719   0.59586   0.77775   0.00000  Uiso   1.00
C1129  C     0.58934   0.61625   0.23525   0.00000  Uiso   1.00
C1130  C     0.91111   0.88414   0.76248   0.00000  Uiso   1.00
C1131  C     0.88426   0.58846   0.23589   0.00000  Uiso   1.00
C1132  C     0.51707   0.78366   0.04326   0.00000  Uiso   1.00
C1133  C     0.62520   0.90171   0.77962   0.00000  Uiso   1.00
C1134  C     0.90726   0.88019   0.22919   0.00000  Uiso   1.00
C1135  C     0.59701   0.62393   0.77753   0.00000  Uiso   1.00
C1136  C     0.62383   0.59712   0.77733   0.00000  Uiso   1.00
C1137  C     0.87884   0.90511   0.22556   0.00000  Uiso   1.00
C1138  C     0.59695   0.87619   0.77832   0.00000  Uiso   1.00
C1139  C     0.91129   0.61581   0.23540   0.00000  Uiso   1.00
C1140  C     0.88402   0.91112   0.76227   0.00000  Uiso   1.00
C1141  C     0.61622   0.58919   0.23536   0.00000  Uiso   1.00
C1142  C     0.90413   0.62287   0.77774   0.00000  Uiso   1.00
C1143  C     0.51442   0.71866   0.95779   0.00000  Uiso   1.00
C1144  C     0.59451   0.87855   0.22429   0.00000  Uiso   1.00
C1145  C     0.86741   0.65947   0.73246   0.00000  Uiso   1.00
C1146  C     0.63408   0.83883   0.26326   0.00000  Uiso   1.00
C1147  C     0.84179   0.86841   0.73075   0.00000  Uiso   1.00
C1148  C     0.65428   0.62740   0.27753   0.00000  Uiso   1.00
C1149  C     0.62880   0.84443   0.72538   0.00000  Uiso   1.00
C1150  C     0.86999   0.65699   0.27073   0.00000  Uiso   1.00
C1151  C     0.65091   0.62472   0.71956   0.00000  Uiso   1.00
C1152  C     0.84470   0.87170   0.27580   0.00000  Uiso   1.00
C1153  C     0.87183   0.84488   0.27623   0.00000  Uiso   1.00
C1154  C     0.96593   0.75553   0.54247   0.00000  Uiso   1.00
C1155  C     0.62357   0.65093   0.71926   0.00000  Uiso   1.00
C1156  C     0.84478   0.62889   0.27477   0.00000  Uiso   1.00
C1157  C     0.65518   0.87176   0.72467   0.00000  Uiso   1.00
C1158  C     0.62727   0.65430   0.27765   0.00000  Uiso   1.00
C1159  C     0.86838   0.84112   0.73189   0.00000  Uiso   1.00
C1160  C     0.66130   0.86563   0.26293   0.00000  Uiso   1.00
C1161  C     0.84095   0.63210   0.73195   0.00000  Uiso   1.00
C1162  C     0.60018   0.84617   0.24569   0.00000  Uiso   1.00
C1163  C     0.89987   0.65377   0.75364   0.00000  Uiso   1.00
C1164  C     0.64952   0.59585   0.25452   0.00000  Uiso   1.00
H1165  H     0.69169   0.99077   0.02807   0.00000  Uiso   1.00
H1166  H     0.55605   0.76852   0.47123   0.00000  Uiso   1.00
H1167  H     0.58581   0.73633   0.42211   0.00000  Uiso   1.00
H1168  H     0.77077   0.92453   0.61820   0.00000  Uiso   1.00
H1169  H     0.74625   0.91026   0.58122   0.00000  Uiso   1.00
H1170  H     0.78892   0.56444   0.37847   0.00000  Uiso   1.00
H1171  H     0.77695   0.58692   0.41740   0.00000  Uiso   1.00
H1172  H     0.56579   0.78810   0.61870   0.00000  Uiso   1.00
H1173  H     0.58748   0.76827   0.58216   0.00000  Uiso   1.00
H1174  H     0.93724   0.71464   0.37691   0.00000  Uiso   1.00
H1175  H     0.91980   0.71290   0.41927   0.00000  Uiso   1.00
H1176  H     0.78880   0.56526   0.62398   0.00000  Uiso   1.00
H1177  H     0.76260   0.93929   0.52889   0.00000  Uiso   1.00
H1178  H     0.74650   0.57800   0.60753   0.00000  Uiso   1.00
H1179  H     0.76735   0.92357   0.38365   0.00000  Uiso   1.00
H1180  H     0.73915   0.91197   0.41903   0.00000  Uiso   1.00
H1181  H     0.77215   0.55679   0.47177   0.00000  Uiso   1.00
H1182  H     0.55539   0.77386   0.52903   0.00000  Uiso   1.00
H1183  H     0.94211   0.74067   0.47249   0.00000  Uiso   1.00
H1184  H     0.77994   0.55562   0.52958   0.00000  Uiso   1.00
H1185  H     0.76053   0.93970   0.47081   0.00000  Uiso   1.00
H1186  H     0.60871   0.95975   0.22432   0.00000  Uiso   1.00
H1187  H     0.59894   0.93967   0.18095   0.00000  Uiso   1.00
H1188  H     0.88945   0.54181   0.78335   0.00000  Uiso   1.00
H1189  H     0.80869   0.98391   0.97017   0.00000  Uiso   1.00
H1190  H     0.89677   0.56488   0.82533   0.00000  Uiso   1.00
H1191  H     0.55887   0.61376   0.18587   0.00000  Uiso   1.00
H1192  H     0.54334   0.58582   0.22258   0.00000  Uiso   1.00
H1193  H     0.94867   0.88452   0.80583   0.00000  Uiso   1.00
H1194  H     0.95568   0.91824   0.77271   0.00000  Uiso   1.00
H1195  H     0.88873   0.53341   0.24139   0.00000  Uiso   1.00
H1196  H     0.91383   0.54809   0.20443   0.00000  Uiso   1.00
H1197  H     0.61514   0.95304   0.80039   0.00000  Uiso   1.00
H1198  H     0.61489   0.92105   0.83602   0.00000  Uiso   1.00
H1199  H     0.93957   0.87939   0.18106   0.00000  Uiso   1.00
H1200  H     0.53140   0.69391   0.02813   0.00000  Uiso   1.00
H1201  H     0.94981   0.91363   0.21393   0.00000  Uiso   1.00
H1202  H     0.57997   0.62899   0.83348   0.00000  Uiso   1.00
H1203  H     0.55586   0.59803   0.80651   0.00000  Uiso   1.00
H1204  H     0.62864   0.57995   0.83320   0.00000  Uiso   1.00
H1205  H     0.59787   0.55585   0.80605   0.00000  Uiso   1.00
H1206  H     0.85995   0.93073   0.17788   0.00000  Uiso   1.00
H1207  H     0.90424   0.93319   0.18066   0.00000  Uiso   1.00
H1208  H     0.54459   0.89307   0.78865   0.00000  Uiso   1.00
H1209  H     0.56977   0.88954   0.83032   0.00000  Uiso   1.00
H1210  H     0.96626   0.61115   0.24100   0.00000  Uiso   1.00
H1211  H     0.51184   0.80992   0.97232   0.00000  Uiso   1.00
H1212  H     0.95148   0.58612   0.20380   0.00000  Uiso   1.00
H1213  H     0.88835   0.94761   0.80691   0.00000  Uiso   1.00
H1214  H     0.91577   0.95793   0.76767   0.00000  Uiso   1.00
H1215  H     0.61880   0.55669   0.18746   0.00000  Uiso   1.00
H1216  H     0.58372   0.54560   0.21803   0.00000  Uiso   1.00
H1217  H     0.95811   0.61072   0.78321   0.00000  Uiso   1.00
H1218  H     0.93528   0.60302   0.82506   0.00000  Uiso   1.00
H1219  H     0.54032   0.89133   0.22419   0.00000  Uiso   1.00
H1220  H     0.56039   0.90126   0.18098   0.00000  Uiso   1.00
H1221  H     0.87498   0.69153   0.68498   0.00000  Uiso   1.00
H1222  H     0.80849   0.99725   0.02650   0.00000  Uiso   1.00
H1223  H     0.83503   0.70033   0.70796   0.00000  Uiso   1.00
H1224  H     0.63415   0.80651   0.31144   0.00000  Uiso   1.00
H1225  H     0.66506   0.79273   0.27634   0.00000  Uiso   1.00
H1226  H     0.78767   0.85591   0.73357   0.00000  Uiso   1.00
H1227  H     0.80739   0.84144   0.69164   0.00000  Uiso   1.00
H1228  H     0.70779   0.64353   0.28301   0.00000  Uiso   1.00
H1229  H     0.68431   0.64385   0.32663   0.00000  Uiso   1.00
H1230  H     0.61478   0.81714   0.67606   0.00000  Uiso   1.00
H1231  H     0.65800   0.80853   0.68964   0.00000  Uiso   1.00
H1232  H     0.86723   0.69411   0.31469   0.00000  Uiso   1.00
H1233  H     0.69159   0.97904   0.97108   0.00000  Uiso   1.00
H1234  H     0.83510   0.70045   0.27866   0.00000  Uiso   1.00
H1235  H     0.70330   0.63037   0.69924   0.00000  Uiso   1.00
H1236  H     0.67525   0.60178   0.67243   0.00000  Uiso   1.00
H1237  H     0.79079   0.86015   0.28316   0.00000  Uiso   1.00
H1238  H     0.81467   0.85317   0.32451   0.00000  Uiso   1.00
H1239  H     0.86003   0.79088   0.28328   0.00000  Uiso   1.00
H1240  H     0.85305   0.81484   0.32485   0.00000  Uiso   1.00
H1241  H     0.63403   0.70118   0.69728   0.00000  Uiso   1.00
H1242  H     0.63487   0.66829   0.66280   0.00000  Uiso   1.00
H1243  H     0.81458   0.61397   0.32092   0.00000  Uiso   1.00
H1244  H     0.51832   0.81004   0.03010   0.00000  Uiso   1.00
H1245  H     0.81325   0.65791   0.31441   0.00000  Uiso   1.00
H1246  H     0.67477   0.87566   0.66930   0.00000  Uiso   1.00
H1247  H     0.69939   0.84671   0.69925   0.00000  Uiso   1.00
H1248  H     0.64145   0.70805   0.28339   0.00000  Uiso   1.00
H1249  H     0.64624   0.68431   0.32569   0.00000  Uiso   1.00
H1250  H     0.84463   0.79104   0.73921   0.00000  Uiso   1.00
H1251  H     0.84961   0.80347   0.69173   0.00000  Uiso   1.00
H1252  H     0.69635   0.86793   0.30870   0.00000  Uiso   1.00
H1253  H     0.70519   0.83228   0.27798   0.00000  Uiso   1.00
H1254  H     0.81393   0.62883   0.68001   0.00000  Uiso   1.00
H1255  H     0.51747   0.69266   0.97148   0.00000  Uiso   1.00
H1256  H     0.79539   0.66066   0.71226   0.00000  Uiso   1.00
H1257  H     0.68167   0.96828   0.11724   0.00000  Uiso   1.00
H1258  H     0.66140   0.99064   0.08217   0.00000  Uiso   1.00
H1259  H     0.81730   0.96166   0.87870   0.00000  Uiso   1.00
H1260  H     0.83877   0.97964   0.91581   0.00000  Uiso   1.00
H1261  H     0.52530   0.67875   0.12566   0.00000  Uiso   1.00
H1262  H     0.53434   0.66404   0.08345   0.00000  Uiso   1.00
H1263  H     0.97981   0.81977   0.87906   0.00000  Uiso   1.00
H1264  H     0.97948   0.83454   0.92231   0.00000  Uiso   1.00
H1265  H     0.82265   0.98267   0.12333   0.00000  Uiso   1.00
H1266  H     0.93977   0.75520   0.52881   0.00000  Uiso   1.00
H1267  H     0.83744   0.97961   0.08067   0.00000  Uiso   1.00
H1268  H     0.68271   0.96591   0.87225   0.00000  Uiso   1.00
H1269  H     0.66733   0.95732   0.91431   0.00000  Uiso   1.00
H1270  H     0.52269   0.82542   0.11693   0.00000  Uiso   1.00
H1271  H     0.99502   0.83747   0.08121   0.00000  Uiso   1.00
H1272  H     0.52723   0.67865   0.88389   0.00000  Uiso   1.00
H1273  H     0.50195   0.66194   0.91935   0.00000  Uiso   1.00
H1274  H     0.93665   0.71632   0.61616   0.00000  Uiso   1.00
H1275  H     0.91303   0.73276   0.58056   0.00000  Uiso   1.00
H1276  H     0.57216   0.73577   0.37864   0.00000  Uiso   1.00
N1277  N     0.61622   0.93969   0.20465   0.00000  Uiso   1.00
N1278  N     0.88101   0.93423   0.19761   0.00000  Uiso   1.00
N1279  N     0.56544   0.87927   0.80281   0.00000  Uiso   1.00
N1280  N     0.94698   0.61001   0.21889   0.00000  Uiso   1.00
N1281  N     0.89108   0.94714   0.77695   0.00000  Uiso   1.00
N1282  N     0.61039   0.55485   0.21617   0.00000  Uiso   1.00
N1283  N     0.93671   0.61928   0.80067   0.00000  Uiso   1.00
N1284  N     0.56037   0.88384   0.20456   0.00000  Uiso   1.00
N1285  N     0.86208   0.69311   0.71180   0.00000  Uiso   1.00
N1286  N     0.63978   0.80435   0.28198   0.00000  Uiso   1.00
N1287  N     0.80709   0.86176   0.71268   0.00000  Uiso   1.00
N1288  N     0.88079   0.56330   0.80069   0.00000  Uiso   1.00
N1289  N     0.68724   0.63182   0.29957   0.00000  Uiso   1.00
N1290  N     0.63185   0.81341   0.69958   0.00000  Uiso   1.00
N1291  N     0.86180   0.69287   0.28507   0.00000  Uiso   1.00
N1292  N     0.67709   0.62569   0.68866   0.00000  Uiso   1.00
N1293  N     0.81272   0.86885   0.29976   0.00000  Uiso   1.00
N1294  N     0.86866   0.81280   0.30000   0.00000  Uiso   1.00
N1295  N     0.62161   0.67694   0.68814   0.00000  Uiso   1.00
N1296  N     0.81321   0.63351   0.29918   0.00000  Uiso   1.00
N1297  N     0.68431   0.87073   0.69743   0.00000  Uiso   1.00
N1298  N     0.63132   0.68701   0.30041   0.00000  Uiso   1.00
N1299  N     0.55538   0.61061   0.21555   0.00000  Uiso   1.00
N1300  N     0.86053   0.80463   0.71942   0.00000  Uiso   1.00
N1301  N     0.69644   0.85914   0.27997   0.00000  Uiso   1.00
N1302  N     0.80874   0.63587   0.70873   0.00000  Uiso   1.00
N1303  N     0.68308   0.99237   0.10151   0.00000  Uiso   1.00
N1304  N     0.81733   0.98442   0.89670   0.00000  Uiso   1.00
N1305  N     0.51550   0.68045   0.09796   0.00000  Uiso   1.00
N1306  N     0.99624   0.82021   0.90310   0.00000  Uiso   1.00
N1307  N     0.82046   0.99623   0.09748   0.00000  Uiso   1.00
N1308  N     0.68111   0.97766   0.89926   0.00000  Uiso   1.00
N1309  N     0.50012   0.81688   0.10122   0.00000  Uiso   1.00
N1310  N     0.94717   0.89152   0.77665   0.00000  Uiso   1.00
N1311  N     0.50345   0.68322   0.89946   0.00000  Uiso   1.00
N1312  N     0.93259   0.74036   0.60099   0.00000  Uiso   1.00
N1313  N     0.56973   0.75157   0.40309   0.00000  Uiso   1.00
N1314  N     0.74860   0.93171   0.60105   0.00000  Uiso   1.00
N1315  N     0.76784   0.56669   0.39837   0.00000  Uiso   1.00
N1316  N     0.56616   0.76468   0.60167   0.00000  Uiso   1.00
N1317  N     0.93345   0.73093   0.40088   0.00000  Uiso   1.00
N1318  N     0.77170   0.56682   0.60018   0.00000  Uiso   1.00
N1319  N     0.74466   0.93259   0.39913   0.00000  Uiso   1.00
N1320  N     0.88990   0.55271   0.21930   0.00000  Uiso   1.00
N1321  N     0.62658   0.92881   0.81013   0.00000  Uiso   1.00
N1322  N     0.94143   0.88668   0.21018   0.00000  Uiso   1.00
N1323  N     0.56899   0.62323   0.80640   0.00000  Uiso   1.00
N1324  N     0.62305   0.56897   0.80610   0.00000  Uiso   1.00
O1325  O     0.75000   0.50000   0.25000   0.00000  Uiso   1.00
O1326  O     0.75000   0.96964   0.66317   0.00000  Uiso   1.00
O1327  O     0.96964   0.75000   0.33683   0.00000  Uiso   1.00
O1328  O     0.53036   0.75000   0.66317   0.00000  Uiso   1.00
O1329  O     0.50000   0.71964   0.83683   0.00000  Uiso   1.00
O1330  O     0.50000   0.78036   0.16317   0.00000  Uiso   1.00
O1331  O     0.78036   0.50000   0.83683   0.00000  Uiso   1.00
O1332  O     0.71964   0.50000   0.16317   0.00000  Uiso   1.00
O1333  O     0.50000   0.78036   0.83683   0.00000  Uiso   1.00
O1334  O     0.50000   0.71964   0.16317   0.00000  Uiso   1.00
O1335  O     0.71964   0.50000   0.83683   0.00000  Uiso   1.00
O1336  O     0.75000   0.50000   0.75000   0.00000  Uiso   1.00
O1337  O     0.78036   0.50000   0.16317   0.00000  Uiso   1.00
O1338  O     0.70725   0.57307   0.27282   0.00000  Uiso   1.00
O1339  O     0.79274   0.92693   0.72718   0.00000  Uiso   1.00
O1340  O     0.92693   0.70725   0.27282   0.00000  Uiso   1.00
O1341  O     0.57307   0.79274   0.72718   0.00000  Uiso   1.00
O1342  O     0.79274   0.92693   0.27282   0.00000  Uiso   1.00
O1343  O     0.70725   0.57307   0.72718   0.00000  Uiso   1.00
O1344  O     0.57307   0.79274   0.27282   0.00000  Uiso   1.00
O1345  O     0.92693   0.70725   0.72718   0.00000  Uiso   1.00
O1346  O     0.70725   0.92693   0.72718   0.00000  Uiso   1.00
O1347  O     0.50000   0.75000   0.25000   0.00000  Uiso   1.00
O1348  O     0.79274   0.57307   0.27282   0.00000  Uiso   1.00
O1349  O     0.92693   0.79274   0.72718   0.00000  Uiso   1.00
O1350  O     0.57307   0.70725   0.27282   0.00000  Uiso   1.00
O1351  O     0.79274   0.57307   0.72718   0.00000  Uiso   1.00
O1352  O     0.70725   0.92693   0.27282   0.00000  Uiso   1.00
O1353  O     0.57307   0.70725   0.72718   0.00000  Uiso   1.00
O1354  O     0.92693   0.79274   0.27282   0.00000  Uiso   1.00
O1355  O     0.95725   0.82307   0.77282   0.00000  Uiso   1.00
O1356  O     0.54274   0.67693   0.22718   0.00000  Uiso   1.00
O1357  O     0.67693   0.95725   0.77282   0.00000  Uiso   1.00
O1358  O     0.50000   0.75000   0.75000   0.00000  Uiso   1.00
O1359  O     0.82307   0.54274   0.22718   0.00000  Uiso   1.00
O1360  O     0.54274   0.67693   0.77282   0.00000  Uiso   1.00
O1361  O     0.95725   0.82307   0.22718   0.00000  Uiso   1.00
O1362  O     0.82307   0.54274   0.77282   0.00000  Uiso   1.00
O1363  O     0.67693   0.95725   0.22718   0.00000  Uiso   1.00
O1364  O     0.95725   0.67693   0.22718   0.00000  Uiso   1.00
O1365  O     0.54274   0.82307   0.77282   0.00000  Uiso   1.00
O1366  O     0.67693   0.54274   0.22718   0.00000  Uiso   1.00
O1367  O     0.82307   0.95725   0.77282   0.00000  Uiso   1.00
O1368  O     0.54274   0.82307   0.22718   0.00000  Uiso   1.00
O1369  O     0.75000   0.96964   0.33683   0.00000  Uiso   1.00
O1370  O     0.95725   0.67693   0.77282   0.00000  Uiso   1.00
O1371  O     0.82307   0.95725   0.22718   0.00000  Uiso   1.00
O1372  O     0.67693   0.54274   0.77282   0.00000  Uiso   1.00
O1373  O     0.75000   0.53036   0.66317   0.00000  Uiso   1.00
O1374  O     0.53036   0.75000   0.33683   0.00000  Uiso   1.00
O1375  O     0.96964   0.75000   0.66317   0.00000  Uiso   1.00
O1376  O     0.75000   0.53036   0.33683   0.00000  Uiso   1.00
Zn1377 Zn    0.70660   0.50000   0.21760   0.00000  Uiso   1.00
Zn1378 Zn    0.54340   0.75000   0.28240   0.00000  Uiso   1.00
Zn1379 Zn    0.75000   0.95660   0.71760   0.00000  Uiso   1.00
Zn1380 Zn    0.75000   0.54340   0.28240   0.00000  Uiso   1.00
Zn1381 Zn    0.54340   0.75000   0.71760   0.00000  Uiso   1.00
Zn1382 Zn    0.95660   0.75000   0.28240   0.00000  Uiso   1.00
Zn1383 Zn    0.75000   0.54340   0.71760   0.00000  Uiso   1.00
Zn1384 Zn    0.75000   0.95660   0.28240   0.00000  Uiso   1.00
Zn1385 Zn    0.79340   0.50000   0.78240   0.00000  Uiso   1.00
Zn1386 Zn    0.50000   0.70660   0.21760   0.00000  Uiso   1.00
Zn1387 Zn    0.50000   0.79340   0.78240   0.00000  Uiso   1.00
Zn1388 Zn    0.79340   0.50000   0.21760   0.00000  Uiso   1.00
Zn1389 Zn    0.70660   0.50000   0.78240   0.00000  Uiso   1.00
Zn1390 Zn    0.50000   0.79340   0.21760   0.00000  Uiso   1.00
Zn1391 Zn    0.50000   0.70660   0.78240   0.00000  Uiso   1.00
Zn1392 Zn    0.95660   0.75000   0.71760   0.00000  Uiso   1.00
loop_
_geom_bond_atom_site_label_1
_geom_bond_atom_site_label_2
_geom_bond_distance
_geom_bond_site_symmetry_2
_ccdc_geom_bond_type
C1     C48     1.400   .     A
C1     H121    1.072   .     S
C1     C30     1.400   .     A
C2     C40     1.395   .     A
C2     H122    1.073   .     S
C2     C401    1.401   1_455 S
C3     C103    1.416   .     A
C3     C96     1.416   .     A
C3     C67     1.467   .     S
C4     C68     1.469   .     S
C4     C106    1.410   .     A
C4     C95     1.424   .     A
C5     C105    1.416   .     A
C5     C94     1.424   .     A
C5     C69     1.467   .     S
C6     C93     1.424   .     A
C6     C70     1.468   .     S
C6     C108    1.423   .     A
C7     C92     1.418   .     A
C7     C107    1.423   .     A
C7     C71     1.466   .     S
C8     C81     1.461   .     S
C8     C91     1.417   .     A
C8     C111    1.412   .     A
C9     C90     1.411   .     A
C9     C82     1.466   .     S
C9     C109    1.419   .     A
C10    C113    1.427   .     A
C10    C89     1.404   .     A
C10    C74     1.467   .     S
C11    C112    1.422   .     A
C11    C87     1.424   .     A
C11    C75     1.472   .     S
C12    C115    1.420   .     A
C12    C86     1.414   .     A
C12    C76     1.465   .     S
C13    C41     1.398   .     A
C13    C54     1.408   .     A
C13    H133    1.074   .     S
C14    C114    1.420   .     A
C14    C85     1.416   .     A
C14    C78     1.471   .     S
C15    C84     1.421   .     A
C15    C79     1.470   .     S
C15    C117    1.416   .     A
C16    C80     1.472   .     S
C16    C116    1.419   .     A
C16    C83     1.422   .     A
C17    C30     1.422   .     A
C17    C35     1.434   .     A
C17    C64     1.485   .     S
C18    C31     1.417   .     A
C18    C36     1.429   .     A
C18    C63     1.479   .     S
C19    C37     1.424   .     A
C19    C32     1.435   .     A
C19    C62     1.488   .     S
C20    C34     1.433   .     A
C20    C38     1.424   .     A
C20    C409    1.485   1_455 S
C21    C60     1.475   .     S
C21    C39     1.421   .     A
C21    C391    1.415   .     S
C22    C59     1.480   .     S
C22    C40     1.431   .     A
C22    C393    1.429   1_455 S
C23    C58     1.483   .     S
C23    C41     1.427   .     A
C23    C742    1.426   .     S
C24    H137    1.073   .     S
C24    C42     1.402   .     A
C24    C752    1.408   1_545 S
C25    C57     1.485   .     S
C25    C47     1.420   .     A
C25    C738    1.420   .     S
C26    H138    1.071   .     S
C26    C43     1.399   .     A
C26    C400    1.406   1_455 S
C27    C53     1.407   .     A
C27    H139    1.075   .     S
C27    C45     1.394   .     A
C28    C46     1.392   .     A
C28    H140    1.076   .     S
C28    C750    1.407   1_545 S
C29    C56     1.407   .     A
C29    C47     1.398   .     A
C29    H141    1.073   .     S
C30    N259    1.443   .     S
C31    N260    1.443   .     S
C31    C33     1.398   .     A
C32    N261    1.450   .     S
C32    C44     1.405   .     A
C33    C49     1.405   .     A
C33    H145    1.073   .     S
C34    C55     1.398   .     A
C34    N610    1.449   1_455 S
C35    C66     1.399   .     A
C35    N263    1.450   .     S
C36    C77     1.400   .     A
C36    N264    1.448   .     S
C37    C88     1.392   .     A
C37    N265    1.443   .     S
C38    N267    1.444   .     S
C38    C99     1.393   .     A
C39    N268    1.445   .     S
C39    C110    1.394   .     A
C40    N269    1.448   .     S
C41    N270    1.447   .     S
C42    N271    1.445   .     S
C42    C721    1.420   1_545 S
C43    N272    1.441   .     S
C43    C369    1.415   1_455 S
C44    C50     1.403   .     A
C44    H156    1.074   .     S
C45    N273    1.449   .     S
C45    C370    1.429   .     S
C46    N274    1.441   .     S
C46    C719    1.426   1_545 S
C47    N275    1.444   .     S
C48    C66     1.399   .     A
C48    C49     1.504   1_554 S
C49    C77     1.403   .     A
C49    C48     1.504   1_556 S
C50    C88     1.406   .     A
C50    C51     1.501   1_554 S
C51    C55     1.405   .     A
C51    C99     1.410   .     A
C51    C50     1.501   1_556 S
C52    C110    1.403   .     A
C52    C53     1.498   .     S
C52    C374    1.406   .     S
C53    C350    1.401   .     S
C54    C56     1.507   .     S
C54    C724    1.407   .     S
C55    H167    1.073   .     S
C56    C720    1.408   .     S
C57    O325    1.285   .     A
C57    O1028   1.289   .     S
C58    O282    1.287   .     A
C58    O1025   1.289   .     S
C59    O330    1.286   .     A
C59    O631    1.296   1_455 S
C60    O331    1.284   .     A
C60    O632    1.290   .     S
C61    C368    1.485   .     S
C61    O633    1.298   .     S
C61    O637    1.283   .     S
C62    O286    1.297   .     A
C62    O290    1.284   .     A
C63    O983    1.292   .     A
C63    O987    1.282   .     A
C64    O984    1.298   .     S
C64    O989    1.282   .     S
C65    C120    1.471   .     S
C65    O294    1.283   .     A
C65    O322    1.288   .     A
C66    H178    1.073   .     S
C67    O323    1.289   .     A
C67    O295    1.281   .     A
C68    O320    1.282   .     A
C68    O296    1.287   .     A
C69    O321    1.285   .     A
C69    O297    1.284   .     A
C70    O298    1.285   .     A
C70    O327    1.287   .     A
C71    O328    1.289   .     A
C71    O299    1.283   .     A
C72    O324    1.283   .     A
C72    C118    1.472   .     S
C72    O300    1.291   .     A
C73    C119    1.471   .     S
C73    O301    1.289   .     A
C73    O326    1.284   .     A
C74    O302    1.283   .     A
C74    O313    1.285   .     A
C75    O315    1.288   .     A
C75    O304    1.283   .     A
C76    O311    1.285   .     A
C76    O305    1.283   .     A
C77    H189    1.075   .     S
C78    O312    1.290   .     A
C78    O306    1.281   .     A
C79    O318    1.283   .     A
C79    O307    1.290   .     A
C80    O319    1.283   .     A
C80    O308    1.291   .     A
C81    O316    1.284   .     A
C81    O309    1.285   .     A
C82    O317    1.289   .     A
C82    O310    1.282   .     A
C83    C100    1.404   .     A
C83    N233    1.446   .     S
C84    N244    1.447   .     S
C84    C98     1.404   .     A
C85    N255    1.441   .     S
C85    C97     1.403   .     A
C86    N266    1.442   .     S
C86    C96     1.407   .     A
C87    C95     1.416   .     A
C87    N276    1.450   .     S
C88    H200    1.075   .     S
C89    C94     1.402   .     A
C89    N277    1.455   .     S
C90    C93     1.397   .     A
C90    N278    1.442   .     S
C91    C92     1.395   .     A
C91    N279    1.440   .     S
C92    N280    1.442   .     S
C93    N234    1.450   .     S
C94    N235    1.443   .     S
C95    N236    1.450   .     S
C96    N237    1.443   .     S
C97    N238    1.444   .     S
C97    C120    1.417   .     A
C98    N239    1.447   .     S
C98    C119    1.423   .     A
C99    H211    1.075   .     S
C100   N240    1.446   .     S
C100   C118    1.421   .     A
C101   C117    1.401   .     A
C101   N241    1.446   .     S
C101   C119    1.420   .     A
C102   N242    1.442   .     S
C102   C118    1.417   .     A
C102   C116    1.406   .     A
C103   C115    1.403   .     A
C103   N243    1.446   .     S
C104   C120    1.419   .     A
C104   C114    1.403   .     A
C104   N245    1.445   .     S
C105   C113    1.399   .     A
C105   N246    1.454   .     S
C106   N247    1.442   .     S
C106   C112    1.397   .     A
C107   N248    1.444   .     S
C107   C111    1.394   .     A
C108   C109    1.404   .     A
C108   N249    1.446   .     S
C109   N250    1.447   .     S
C110   H222    1.074   .     S
C111   N251    1.448   .     S
C112   N252    1.449   .     S
C113   N253    1.431   .     S
C114   N254    1.446   .     S
C115   N256    1.439   .     S
C116   N257    1.444   .     S
C117   N258    1.442   .     S
H123   N269    1.051   .     S
H124   N270    1.046   .     S
H125   N270    1.050   .     S
H126   N271    1.043   .     S
H127   N271    1.050   .     S
H128   N272    1.044   .     S
H129   N272    1.046   .     S
H130   N273    1.035   .     S
H131   N273    1.051   .     S
H132   N274    1.042   .     S
H134   N274    1.046   .     S
H135   N275    1.047   .     S
H136   N275    1.048   .     S
H142   N233    1.042   .     S
H143   N233    1.042   .     S
H144   N244    1.043   .     S
H146   N244    1.041   .     S
H147   N255    1.047   .     S
H148   N255    1.044   .     S
H149   N266    1.049   .     S
H150   N266    1.041   .     S
H151   N276    1.048   .     S
H152   N276    1.036   .     S
H153   N277    1.043   .     S
H154   N277    1.038   .     S
H155   N278    1.049   .     S
H157   N278    1.046   .     S
H158   N279    1.046   .     S
H159   N279    1.046   .     S
H160   N280    1.045   .     S
H161   N280    1.046   .     S
H162   N234    1.044   .     S
H163   N234    1.040   .     S
H164   N235    1.045   .     S
H165   N235    1.040   .     S
H166   N236    1.048   .     S
H168   N236    1.036   .     S
H169   N237    1.047   .     S
H170   N237    1.044   .     S
H171   N238    1.048   .     S
H172   N238    1.042   .     S
H173   N239    1.043   .     S
H174   N239    1.040   .     S
H175   N240    1.042   .     S
H176   N240    1.042   .     S
H177   N241    1.048   .     S
H179   N241    1.040   .     S
H180   N242    1.048   .     S
H181   N242    1.043   .     S
H182   N243    1.042   .     S
H183   N243    1.045   .     S
H184   N245    1.045   .     S
H185   N245    1.045   .     S
H186   N246    1.041   .     S
H187   N246    1.038   .     S
H188   N247    1.051   .     S
H190   N247    1.046   .     S
H191   N248    1.047   .     S
H192   N248    1.046   .     S
H193   N249    1.043   .     S
H194   N249    1.040   .     S
H195   N250    1.043   .     S
H196   N250    1.040   .     S
H197   N251    1.051   .     S
H198   N251    1.056   .     S
H199   N252    1.046   .     S
H201   N252    1.041   .     S
H202   N253    1.056   .     S
H203   N253    1.045   .     S
H204   N254    1.044   .     S
H205   N254    1.042   .     S
H206   N256    1.034   .     S
H207   N256    1.044   .     S
H208   N257    1.049   .     S
H209   N257    1.041   .     S
H210   N258    1.049   .     S
H212   N258    1.043   .     S
H213   N259    1.044   .     S
H214   N259    1.046   .     S
H215   N260    1.044   .     S
H216   N260    1.048   .     S
H217   N261    1.031   .     S
H218   N261    1.048   .     S
H219   N262    1.033   .     S
H220   N262    1.050   .     S
H221   N263    1.033   .     S
H223   N263    1.051   .     S
H224   N264    1.035   .     S
H225   N264    1.046   .     S
H226   N265    1.043   .     S
H227   N613    1.047   .     S
H228   N267    1.043   .     S
H229   N267    1.047   .     S
H230   N268    1.041   .     S
H231   N268    1.050   .     S
H232   N269    1.033   .     S
N262   C382    1.449   .     S
N265   H575    1.047   1_455 S
O281   Zn336   1.952   .     S
O281   Zn333   1.956   .     S
O281   Zn344   1.955   .     S
O281   Zn1036  1.956   1_545 S
O282   Zn335   1.954   .     S
O283   Zn338   1.953   .     S
O283   C407    1.296   .     S
O284   Zn337   1.953   .     S
O284   C408    1.290   1_455 S
O285   C409    1.298   1_455 S
O285   Zn347   1.952   .     S
O286   Zn346   1.952   .     S
O287   C759    1.292   1_545 A
O287   Zn341   1.953   .     S
O288   Zn333   1.953   .     S
O288   C760    1.298   1_545 S
O289   Zn343   1.954   .     S
O289   C409    1.283   1_455 S
O290   Zn342   1.954   .     S
O291   C759    1.282   1_545 A
O291   Zn345   1.953   .     S
O292   Zn1031  1.952   1_545 S
O292   Zn339   1.956   .     S
O292   Zn341   1.956   .     S
O292   Zn345   1.955   .     S
O293   Zn344   1.953   .     S
O293   C760    1.282   1_545 S
O294   Zn336   1.945   .     S
O295   Zn335   1.945   .     S
O296   Zn338   1.943   .     S
O297   Zn337   1.943   .     S
O298   Zn340   1.943   .     S
O299   Zn339   1.943   .     S
O300   Zn334   1.945   .     S
O301   Zn348   1.945   .     S
O302   Zn335   1.945   .     S
O303   Zn686   1.955   1_455 S
O303   Zn334   1.956   .     S
O303   Zn342   1.952   .     S
O303   Zn346   1.956   .     S
O304   Zn336   1.945   .     S
O305   Zn348   1.942   .     S
O306   Zn334   1.942   .     S
O307   Zn339   1.945   .     S
O308   Zn340   1.945   .     S
O309   Zn337   1.944   .     S
O310   Zn338   1.944   .     S
O311   Zn691   1.945   .     S
O312   Zn342   1.945   .     S
O313   Zn1041  1.943   .     S
O314   Zn337   1.955   .     S
O314   Zn343   1.952   .     S
O314   Zn347   1.956   .     S
O314   Zn696   1.956   1_455 S
O315   Zn344   1.943   .     S
O316   Zn347   1.943   .     S
O317   Zn694   1.943   .     S
O318   Zn341   1.945   .     S
O319   Zn1029  1.945   .     S
O320   Zn690   1.945   .     S
O321   Zn343   1.945   .     S
O322   Zn333   1.942   .     S
O323   Zn1037  1.942   .     S
O324   Zn346   1.945   .     S
O325   Zn340   1.952   .     S
O326   Zn695   1.945   .     S
O327   Zn1040  1.944   .     S
O328   Zn345   1.944   .     S
O329   Zn339   1.952   .     S
O329   C754    1.289   1_545 S
O330   Zn334   1.953   .     S
O331   Zn348   1.953   .     S
O332   Zn336   1.954   .     S
O332   C753    1.289   1_545 S
Zn333  O1015   1.945   1_545 S
Zn335  O988    1.952   .     S
Zn338  O651    1.955   .     S
Zn340  O977    1.956   .     S
Zn341  O1019   1.942   1_545 S
Zn342  O668    1.945   1_455 S
Zn343  O659    1.945   1_455 S
Zn344  O1023   1.944   1_545 S
Zn345  O1009   1.943   1_545 S
Zn346  O665    1.943   1_455 S
Zn347  O674    1.945   1_455 S
Zn348  O662    1.956   .     S
C349   C396    1.400   .     A
C349   H469    1.072   .     S
C349   C378    1.400   .     A
C350   C388    1.395   .     A
C350   H470    1.073   .     S
C351   C451    1.416   .     A
C351   C444    1.416   .     A
C351   C415    1.467   .     S
C352   C416    1.469   .     S
C352   C454    1.410   .     A
C352   C443    1.424   .     A
C353   C453    1.416   .     A
C353   C442    1.424   .     A
C353   C417    1.467   .     S
C354   C441    1.424   .     A
C354   C418    1.468   .     S
C354   C456    1.423   .     A
C355   C440    1.418   .     A
C355   C455    1.423   .     A
C355   C419    1.466   .     S
C356   C429    1.461   .     S
C356   C439    1.417   .     A
C356   C459    1.412   .     A
C357   C438    1.411   .     A
C357   C430    1.466   .     S
C357   C457    1.419   .     A
C358   C461    1.427   .     A
C358   C437    1.404   .     A
C358   C422    1.467   .     S
C359   C460    1.422   .     A
C359   C435    1.424   .     A
C359   C423    1.472   .     S
C360   C463    1.420   .     A
C360   C434    1.414   .     A
C360   C424    1.465   .     S
C361   C389    1.398   .     A
C361   C402    1.408   .     A
C361   H481    1.074   .     S
C362   C462    1.420   .     A
C362   C433    1.416   .     A
C362   C426    1.471   .     S
C363   C432    1.421   .     A
C363   C427    1.470   .     S
C363   C465    1.416   .     A
C364   C428    1.472   .     S
C364   C464    1.419   .     A
C364   C431    1.422   .     A
C365   C378    1.422   .     A
C365   C383    1.434   .     A
C365   C412    1.485   .     S
C366   C379    1.417   .     A
C366   C384    1.429   .     A
C366   C411    1.479   .     S
C367   C385    1.424   .     A
C367   C380    1.435   .     A
C367   C410    1.488   .     S
C368   C382    1.433   .     A
C368   C386    1.424   .     A
C369   C408    1.475   .     S
C369   C387    1.421   .     A
C369   C43     1.415   1_655 S
C370   C407    1.480   .     S
C370   C388    1.431   .     A
C371   C406    1.483   .     S
C371   C389    1.427   .     A
C371   C1090   1.426   .     S
C372   H485    1.073   .     S
C372   C390    1.402   .     A
C372   C1100   1.408   1_545 S
C373   C405    1.485   .     S
C373   C395    1.420   .     A
C373   C1086   1.420   .     S
C374   H486    1.071   .     S
C374   C391    1.399   .     A
C375   C401    1.407   .     A
C375   H487    1.075   .     S
C375   C393    1.394   .     A
C376   C394    1.392   .     A
C376   H488    1.076   .     S
C376   C1098   1.407   1_545 S
C377   C404    1.407   .     A
C377   C395    1.398   .     A
C377   H489    1.073   .     S
C378   N607    1.443   .     S
C379   N608    1.443   .     S
C379   C381    1.398   .     A
C380   N609    1.450   .     S
C380   C392    1.405   .     A
C381   C397    1.405   .     A
C381   H493    1.073   .     S
C382   C403    1.398   .     A
C383   C414    1.399   .     A
C383   N611    1.450   .     S
C384   C425    1.400   .     A
C384   N612    1.448   .     S
C385   C436    1.392   .     A
C385   N613    1.443   .     S
C386   N615    1.444   .     S
C386   C447    1.393   .     A
C387   N616    1.445   .     S
C387   C458    1.394   .     A
C388   N617    1.448   .     S
C389   N618    1.447   .     S
C390   N619    1.445   .     S
C390   C1069   1.420   1_545 S
C391   N620    1.441   .     S
C392   C398    1.403   .     A
C392   H504    1.074   .     S
C393   N621    1.449   .     S
C393   C22     1.429   1_655 S
C394   N622    1.441   .     S
C394   C1067   1.426   1_545 S
C395   N623    1.444   .     S
C396   C414    1.399   .     A
C396   C397    1.504   1_554 S
C397   C425    1.403   .     A
C397   C396    1.504   1_556 S
C398   C436    1.406   .     A
C398   C399    1.501   1_554 S
C399   C403    1.405   .     A
C399   C447    1.410   .     A
C399   C398    1.501   1_556 S
C400   C458    1.403   .     A
C400   C401    1.498   .     S
C400   C26     1.406   1_655 S
C401   C2      1.401   1_655 S
C402   C404    1.507   .     S
C402   C1072   1.407   .     S
C403   H515    1.073   .     S
C404   C1068   1.408   .     S
C405   O673    1.285   .     A
C405   O1376   1.289   .     S
C406   O630    1.287   .     A
C406   O1373   1.289   .     S
C407   O678    1.286   .     A
C408   O679    1.284   .     A
C408   O284    1.290   1_655 S
C409   C20     1.485   1_655 S
C409   O285    1.298   1_655 S
C409   O289    1.283   1_655 S
C410   O634    1.297   .     A
C410   O638    1.284   .     A
C411   O1331   1.292   .     A
C411   O1335   1.282   .     A
C412   O1332   1.298   .     S
C412   O1337   1.282   .     S
C413   C468    1.471   .     S
C413   O642    1.283   .     A
C413   O670    1.288   .     A
C414   H526    1.073   .     S
C415   O671    1.289   .     A
C415   O643    1.281   .     A
C416   O668    1.282   .     A
C416   O644    1.287   .     A
C417   O669    1.285   .     A
C417   O645    1.284   .     A
C418   O646    1.285   .     A
C418   O675    1.287   .     A
C419   O676    1.289   .     A
C419   O647    1.283   .     A
C420   O672    1.283   .     A
C420   C466    1.472   .     S
C420   O648    1.291   .     A
C421   C467    1.471   .     S
C421   O649    1.289   .     A
C421   O674    1.284   .     A
C422   O650    1.283   .     A
C422   O661    1.285   .     A
C423   O663    1.288   .     A
C423   O652    1.283   .     A
C424   O659    1.285   .     A
C424   O653    1.283   .     A
C425   H537    1.075   .     S
C426   O660    1.290   .     A
C426   O654    1.281   .     A
C427   O666    1.283   .     A
C427   O655    1.290   .     A
C428   O667    1.283   .     A
C428   O656    1.291   .     A
C429   O664    1.284   .     A
C429   O657    1.285   .     A
C430   O665    1.289   .     A
C430   O658    1.282   .     A
C431   C448    1.404   .     A
C431   N581    1.446   .     S
C432   N592    1.447   .     S
C432   C446    1.404   .     A
C433   N603    1.441   .     S
C433   C445    1.403   .     A
C434   N614    1.442   .     S
C434   C444    1.407   .     A
C435   C443    1.416   .     A
C435   N624    1.450   .     S
C436   H548    1.075   .     S
C437   C442    1.402   .     A
C437   N625    1.455   .     S
C438   C441    1.397   .     A
C438   N626    1.442   .     S
C439   C440    1.395   .     A
C439   N627    1.440   .     S
C440   N628    1.442   .     S
C441   N582    1.450   .     S
C442   N583    1.443   .     S
C443   N584    1.450   .     S
C444   N585    1.443   .     S
C445   N586    1.444   .     S
C445   C468    1.417   .     A
C446   N587    1.447   .     S
C446   C467    1.423   .     A
C447   H559    1.075   .     S
C448   N588    1.446   .     S
C448   C466    1.421   .     A
C449   C465    1.401   .     A
C449   N589    1.446   .     S
C449   C467    1.420   .     A
C450   N590    1.442   .     S
C450   C466    1.417   .     A
C450   C464    1.406   .     A
C451   C463    1.403   .     A
C451   N591    1.446   .     S
C452   C468    1.419   .     A
C452   C462    1.403   .     A
C452   N593    1.445   .     S
C453   C461    1.399   .     A
C453   N594    1.454   .     S
C454   N595    1.442   .     S
C454   C460    1.397   .     A
C455   N596    1.444   .     S
C455   C459    1.394   .     A
C456   C457    1.404   .     A
C456   N597    1.446   .     S
C457   N598    1.447   .     S
C458   H570    1.074   .     S
C459   N599    1.448   .     S
C460   N600    1.449   .     S
C461   N601    1.431   .     S
C462   N602    1.446   .     S
C463   N604    1.439   .     S
C464   N605    1.444   .     S
C465   N606    1.442   .     S
H471   N617    1.051   .     S
H472   N618    1.046   .     S
H473   N618    1.050   .     S
H474   N619    1.043   .     S
H475   N619    1.050   .     S
H476   N620    1.044   .     S
H477   N620    1.046   .     S
H478   N621    1.035   .     S
H479   N621    1.051   .     S
H480   N622    1.042   .     S
H482   N622    1.046   .     S
H483   N623    1.047   .     S
H484   N623    1.048   .     S
H490   N581    1.042   .     S
H491   N581    1.042   .     S
H492   N592    1.043   .     S
H494   N592    1.041   .     S
H495   N603    1.047   .     S
H496   N603    1.044   .     S
H497   N614    1.049   .     S
H498   N614    1.041   .     S
H499   N624    1.048   .     S
H500   N624    1.036   .     S
H501   N625    1.043   .     S
H502   N625    1.038   .     S
H503   N626    1.049   .     S
H505   N626    1.046   .     S
H506   N627    1.046   .     S
H507   N627    1.046   .     S
H508   N628    1.045   .     S
H509   N628    1.046   .     S
H510   N582    1.044   .     S
H511   N582    1.040   .     S
H512   N583    1.045   .     S
H513   N583    1.040   .     S
H514   N584    1.048   .     S
H516   N584    1.036   .     S
H517   N585    1.047   .     S
H518   N585    1.044   .     S
H519   N586    1.048   .     S
H520   N586    1.042   .     S
H521   N587    1.043   .     S
H522   N587    1.040   .     S
H523   N588    1.042   .     S
H524   N588    1.042   .     S
H525   N589    1.048   .     S
H527   N589    1.040   .     S
H528   N590    1.048   .     S
H529   N590    1.043   .     S
H530   N591    1.042   .     S
H531   N591    1.045   .     S
H532   N593    1.045   .     S
H533   N593    1.045   .     S
H534   N594    1.041   .     S
H535   N594    1.038   .     S
H536   N595    1.051   .     S
H538   N595    1.046   .     S
H539   N596    1.047   .     S
H540   N596    1.046   .     S
H541   N597    1.043   .     S
H542   N597    1.040   .     S
H543   N598    1.043   .     S
H544   N598    1.040   .     S
H545   N599    1.051   .     S
H546   N599    1.056   .     S
H547   N600    1.046   .     S
H549   N600    1.041   .     S
H550   N601    1.056   .     S
H551   N601    1.045   .     S
H552   N602    1.044   .     S
H553   N602    1.042   .     S
H554   N604    1.034   .     S
H555   N604    1.044   .     S
H556   N605    1.049   .     S
H557   N605    1.041   .     S
H558   N606    1.049   .     S
H560   N606    1.043   .     S
H561   N607    1.044   .     S
H562   N607    1.046   .     S
H563   N608    1.044   .     S
H564   N608    1.048   .     S
H565   N609    1.031   .     S
H566   N609    1.048   .     S
H567   N610    1.033   .     S
H568   N610    1.050   .     S
H569   N611    1.033   .     S
H571   N611    1.051   .     S
H572   N612    1.035   .     S
H573   N612    1.046   .     S
H574   N613    1.043   .     S
H575   N265    1.047   1_655 S
H576   N615    1.043   .     S
H577   N615    1.047   .     S
H578   N616    1.041   .     S
H579   N616    1.050   .     S
H580   N617    1.033   .     S
N610   C34     1.449   1_655 S
O629   Zn684   1.952   .     S
O629   Zn681   1.956   .     S
O629   Zn692   1.955   .     S
O629   Zn1384  1.956   1_545 S
O630   Zn683   1.954   .     S
O631   Zn686   1.953   .     S
O631   C59     1.296   1_655 S
O632   Zn685   1.953   .     S
O633   Zn695   1.952   .     S
O634   Zn694   1.952   .     S
O635   C1107   1.292   1_545 A
O635   Zn689   1.953   .     S
O636   Zn681   1.953   .     S
O636   C1108   1.298   1_545 S
O637   Zn691   1.954   .     S
O638   Zn690   1.954   .     S
O639   C1107   1.282   1_545 A
O639   Zn693   1.953   .     S
O640   Zn1379  1.952   1_545 S
O640   Zn687   1.956   .     S
O640   Zn689   1.956   .     S
O640   Zn693   1.955   .     S
O641   Zn692   1.953   .     S
O641   C1108   1.282   1_545 S
O642   Zn684   1.945   .     S
O643   Zn683   1.945   .     S
O644   Zn686   1.943   .     S
O645   Zn685   1.943   .     S
O646   Zn688   1.943   .     S
O647   Zn687   1.943   .     S
O648   Zn682   1.945   .     S
O649   Zn696   1.945   .     S
O650   Zn683   1.945   .     S
O651   Zn682   1.956   .     S
O651   Zn690   1.952   .     S
O651   Zn694   1.956   .     S
O652   Zn684   1.945   .     S
O653   Zn696   1.942   .     S
O654   Zn682   1.942   .     S
O655   Zn687   1.945   .     S
O656   Zn688   1.945   .     S
O657   Zn685   1.944   .     S
O658   Zn686   1.944   .     S
O659   Zn343   1.945   1_655 S
O660   Zn690   1.945   .     S
O661   Zn1389  1.943   .     S
O662   Zn685   1.955   .     S
O662   Zn691   1.952   .     S
O662   Zn695   1.956   .     S
O663   Zn692   1.943   .     S
O664   Zn695   1.943   .     S
O665   Zn346   1.943   1_655 S
O666   Zn689   1.945   .     S
O667   Zn1377  1.945   .     S
O668   Zn342   1.945   1_655 S
O669   Zn691   1.945   .     S
O670   Zn681   1.942   .     S
O671   Zn1385  1.942   .     S
O672   Zn694   1.945   .     S
O673   Zn688   1.952   .     S
O674   Zn347   1.945   1_655 S
O675   Zn1388  1.944   .     S
O676   Zn693   1.944   .     S
O677   Zn687   1.952   .     S
O677   C1102   1.289   1_545 S
O678   Zn682   1.953   .     S
O679   Zn696   1.953   .     S
O680   Zn684   1.954   .     S
O680   C1101   1.289   1_545 S
Zn681  O1363   1.945   1_545 S
Zn683  O1336   1.952   .     S
Zn686  O303    1.955   1_655 S
Zn688  O1325   1.956   .     S
Zn689  O1367   1.942   1_545 S
Zn692  O1371   1.944   1_545 S
Zn693  O1357   1.943   1_545 S
Zn696  O314    1.956   1_655 S
C697   C744    1.400   .     A
C697   H817    1.072   .     S
C697   C726    1.400   .     A
C698   C736    1.395   .     A
C698   H818    1.073   .     S
C698   C1097   1.401   1_455 S
C699   C799    1.416   .     A
C699   C792    1.416   .     A
C699   C763    1.467   .     S
C700   C764    1.469   .     S
C700   C802    1.410   .     A
C700   C791    1.424   .     A
C701   C801    1.416   .     A
C701   C790    1.424   .     A
C701   C765    1.467   .     S
C702   C789    1.424   .     A
C702   C766    1.468   .     S
C702   C804    1.423   .     A
C703   C788    1.418   .     A
C703   C803    1.423   .     A
C703   C767    1.466   .     S
C704   C777    1.461   .     S
C704   C787    1.417   .     A
C704   C807    1.412   .     A
C705   C786    1.411   .     A
C705   C778    1.466   .     S
C705   C805    1.419   .     A
C706   C809    1.427   .     A
C706   C785    1.404   .     A
C706   C770    1.467   .     S
C707   C808    1.422   .     A
C707   C783    1.424   .     A
C707   C771    1.472   .     S
C708   C811    1.420   .     A
C708   C782    1.414   .     A
C708   C772    1.465   .     S
C709   C737    1.398   .     A
C709   C750    1.408   .     A
C709   H829    1.074   .     S
C710   C810    1.420   .     A
C710   C781    1.416   .     A
C710   C774    1.471   .     S
C711   C780    1.421   .     A
C711   C775    1.470   .     S
C711   C813    1.416   .     A
C712   C776    1.472   .     S
C712   C812    1.419   .     A
C712   C779    1.422   .     A
C713   C726    1.422   .     A
C713   C731    1.434   .     A
C713   C760    1.485   .     S
C714   C727    1.417   .     A
C714   C732    1.429   .     A
C714   C759    1.479   .     S
C715   C733    1.424   .     A
C715   C728    1.435   .     A
C715   C758    1.488   .     S
C716   C730    1.433   .     A
C716   C734    1.424   .     A
C716   C1105   1.485   1_455 S
C717   C756    1.475   .     S
C717   C735    1.421   .     A
C717   C1087   1.415   .     S
C718   C755    1.480   .     S
C718   C736    1.431   .     A
C718   C1089   1.429   1_455 S
C719   C754    1.483   .     S
C719   C737    1.427   .     A
C719   C46     1.426   1_565 S
C720   H833    1.073   .     S
C720   C738    1.402   .     A
C721   C753    1.485   .     S
C721   C743    1.420   .     A
C721   C42     1.420   1_565 S
C722   H834    1.071   .     S
C722   C739    1.399   .     A
C722   C1096   1.406   1_455 S
C723   C749    1.407   .     A
C723   H835    1.075   .     S
C723   C741    1.394   .     A
C724   C742    1.392   .     A
C724   H836    1.076   .     S
C725   C752    1.407   .     A
C725   C743    1.398   .     A
C725   H837    1.073   .     S
C726   N955    1.443   .     S
C727   N956    1.443   .     S
C727   C729    1.398   .     A
C728   N957    1.450   .     S
C728   C740    1.405   .     A
C729   C745    1.405   .     A
C729   H841    1.073   .     S
C730   C751    1.398   .     A
C730   N1306   1.449   1_455 S
C731   C762    1.399   .     A
C731   N959    1.450   .     S
C732   C773    1.400   .     A
C732   N960    1.448   .     S
C733   C784    1.392   .     A
C733   N961    1.443   .     S
C734   N963    1.444   .     S
C734   C795    1.393   .     A
C735   N964    1.445   .     S
C735   C806    1.394   .     A
C736   N965    1.448   .     S
C737   N966    1.447   .     S
C738   N967    1.445   .     S
C739   N968    1.441   .     S
C739   C1065   1.415   1_455 S
C740   C746    1.403   .     A
C740   H852    1.074   .     S
C741   N969    1.449   .     S
C741   C1066   1.429   .     S
C742   N970    1.441   .     S
C743   N971    1.444   .     S
C744   C762    1.399   .     A
C744   C745    1.504   1_554 S
C745   C773    1.403   .     A
C745   C744    1.504   1_556 S
C746   C784    1.406   .     A
C746   C747    1.501   1_554 S
C747   C751    1.405   .     A
C747   C795    1.410   .     A
C747   C746    1.501   1_556 S
C748   C806    1.403   .     A
C748   C749    1.498   .     S
C748   C1070   1.406   .     S
C749   C1046   1.401   .     S
C750   C752    1.507   .     S
C750   C28     1.407   1_565 S
C751   H863    1.073   .     S
C752   C24     1.408   1_565 S
C753   O1021   1.285   .     A
C753   O332    1.289   1_565 S
C754   O978    1.287   .     A
C754   O329    1.289   1_565 S
C755   O1026   1.286   .     A
C755   O1327   1.296   1_455 S
C756   O1027   1.284   .     A
C756   O1328   1.290   .     S
C757   C1064   1.485   .     S
C757   O1329   1.298   .     S
C757   O1333   1.283   .     S
C758   O982    1.297   .     A
C758   O986    1.284   .     A
C759   O287    1.292   1_565 A
C759   O291    1.282   1_565 A
C760   O288    1.298   1_565 S
C760   O293    1.282   1_565 S
C761   C816    1.471   .     S
C761   O990    1.283   .     A
C761   O1018   1.288   .     A
C762   H874    1.073   .     S
C763   O1019   1.289   .     A
C763   O991    1.281   .     A
C764   O1016   1.282   .     A
C764   O992    1.287   .     A
C765   O1017   1.285   .     A
C765   O993    1.284   .     A
C766   O994    1.285   .     A
C766   O1023   1.287   .     A
C767   O1024   1.289   .     A
C767   O995    1.283   .     A
C768   O1020   1.283   .     A
C768   C814    1.472   .     S
C768   O996    1.291   .     A
C769   C815    1.471   .     S
C769   O997    1.289   .     A
C769   O1022   1.284   .     A
C770   O998    1.283   .     A
C770   O1009   1.285   .     A
C771   O1011   1.288   .     A
C771   O1000   1.283   .     A
C772   O1007   1.285   .     A
C772   O1001   1.283   .     A
C773   H885    1.075   .     S
C774   O1008   1.290   .     A
C774   O1002   1.281   .     A
C775   O1014   1.283   .     A
C775   O1003   1.290   .     A
C776   O1015   1.283   .     A
C776   O1004   1.291   .     A
C777   O1012   1.284   .     A
C777   O1005   1.285   .     A
C778   O1013   1.289   .     A
C778   O1006   1.282   .     A
C779   C796    1.404   .     A
C779   N929    1.446   .     S
C780   N940    1.447   .     S
C780   C794    1.404   .     A
C781   N951    1.441   .     S
C781   C793    1.403   .     A
C782   N962    1.442   .     S
C782   C792    1.407   .     A
C783   C791    1.416   .     A
C783   N972    1.450   .     S
C784   H896    1.075   .     S
C785   C790    1.402   .     A
C785   N973    1.455   .     S
C786   C789    1.397   .     A
C786   N974    1.442   .     S
C787   C788    1.395   .     A
C787   N975    1.440   .     S
C788   N976    1.442   .     S
C789   N930    1.450   .     S
C790   N931    1.443   .     S
C791   N932    1.450   .     S
C792   N933    1.443   .     S
C793   N934    1.444   .     S
C793   C816    1.417   .     A
C794   N935    1.447   .     S
C794   C815    1.423   .     A
C795   H907    1.075   .     S
C796   N936    1.446   .     S
C796   C814    1.421   .     A
C797   C813    1.401   .     A
C797   N937    1.446   .     S
C797   C815    1.420   .     A
C798   N938    1.442   .     S
C798   C814    1.417   .     A
C798   C812    1.406   .     A
C799   C811    1.403   .     A
C799   N939    1.446   .     S
C800   C816    1.419   .     A
C800   C810    1.403   .     A
C800   N941    1.445   .     S
C801   C809    1.399   .     A
C801   N942    1.454   .     S
C802   N943    1.442   .     S
C802   C808    1.397   .     A
C803   N944    1.444   .     S
C803   C807    1.394   .     A
C804   C805    1.404   .     A
C804   N945    1.446   .     S
C805   N946    1.447   .     S
C806   H918    1.074   .     S
C807   N947    1.448   .     S
C808   N948    1.449   .     S
C809   N949    1.431   .     S
C810   N950    1.446   .     S
C811   N952    1.439   .     S
C812   N953    1.444   .     S
C813   N954    1.442   .     S
H819   N965    1.051   .     S
H820   N966    1.046   .     S
H821   N966    1.050   .     S
H822   N967    1.043   .     S
H823   N967    1.050   .     S
H824   N968    1.044   .     S
H825   N968    1.046   .     S
H826   N969    1.035   .     S
H827   N969    1.051   .     S
H828   N970    1.042   .     S
H830   N970    1.046   .     S
H831   N971    1.047   .     S
H832   N971    1.048   .     S
H838   N929    1.042   .     S
H839   N929    1.042   .     S
H840   N940    1.043   .     S
H842   N940    1.041   .     S
H843   N951    1.047   .     S
H844   N951    1.044   .     S
H845   N962    1.049   .     S
H846   N962    1.041   .     S
H847   N972    1.048   .     S
H848   N972    1.036   .     S
H849   N973    1.043   .     S
H850   N973    1.038   .     S
H851   N974    1.049   .     S
H853   N974    1.046   .     S
H854   N975    1.046   .     S
H855   N975    1.046   .     S
H856   N976    1.045   .     S
H857   N976    1.046   .     S
H858   N930    1.044   .     S
H859   N930    1.040   .     S
H860   N931    1.045   .     S
H861   N931    1.040   .     S
H862   N932    1.048   .     S
H864   N932    1.036   .     S
H865   N933    1.047   .     S
H866   N933    1.044   .     S
H867   N934    1.048   .     S
H868   N934    1.042   .     S
H869   N935    1.043   .     S
H870   N935    1.040   .     S
H871   N936    1.042   .     S
H872   N936    1.042   .     S
H873   N937    1.048   .     S
H875   N937    1.040   .     S
H876   N938    1.048   .     S
H877   N938    1.043   .     S
H878   N939    1.042   .     S
H879   N939    1.045   .     S
H880   N941    1.045   .     S
H881   N941    1.045   .     S
H882   N942    1.041   .     S
H883   N942    1.038   .     S
H884   N943    1.051   .     S
H886   N943    1.046   .     S
H887   N944    1.047   .     S
H888   N944    1.046   .     S
H889   N945    1.043   .     S
H890   N945    1.040   .     S
H891   N946    1.043   .     S
H892   N946    1.040   .     S
H893   N947    1.051   .     S
H894   N947    1.056   .     S
H895   N948    1.046   .     S
H897   N948    1.041   .     S
H898   N949    1.056   .     S
H899   N949    1.045   .     S
H900   N950    1.044   .     S
H901   N950    1.042   .     S
H902   N952    1.034   .     S
H903   N952    1.044   .     S
H904   N953    1.049   .     S
H905   N953    1.041   .     S
H906   N954    1.049   .     S
H908   N954    1.043   .     S
H909   N955    1.044   .     S
H910   N955    1.046   .     S
H911   N956    1.044   .     S
H912   N956    1.048   .     S
H913   N957    1.031   .     S
H914   N957    1.048   .     S
H915   N958    1.033   .     S
H916   N958    1.050   .     S
H917   N959    1.033   .     S
H919   N959    1.051   .     S
H920   N960    1.035   .     S
H921   N960    1.046   .     S
H922   N961    1.043   .     S
H923   N1309   1.047   .     S
H924   N963    1.043   .     S
H925   N963    1.047   .     S
H926   N964    1.041   .     S
H927   N964    1.050   .     S
H928   N965    1.033   .     S
N958   C1078   1.449   .     S
N961   H1271   1.047   1_455 S
O977   Zn1032  1.952   .     S
O977   Zn1029  1.956   .     S
O977   Zn1040  1.955   .     S
O978   Zn1031  1.954   .     S
O979   Zn1034  1.953   .     S
O979   C1103   1.296   .     S
O980   Zn1033  1.953   .     S
O980   C1104   1.290   1_455 S
O981   C1105   1.298   1_455 S
O981   Zn1043  1.952   .     S
O982   Zn1042  1.952   .     S
O983   Zn1037  1.953   .     S
O984   Zn1029  1.953   .     S
O985   Zn1039  1.954   .     S
O985   C1105   1.283   1_455 S
O986   Zn1038  1.954   .     S
O987   Zn1041  1.953   .     S
O988   Zn1035  1.956   .     S
O988   Zn1037  1.956   .     S
O988   Zn1041  1.955   .     S
O989   Zn1040  1.953   .     S
O990   Zn1032  1.945   .     S
O991   Zn1031  1.945   .     S
O992   Zn1034  1.943   .     S
O993   Zn1033  1.943   .     S
O994   Zn1036  1.943   .     S
O995   Zn1035  1.943   .     S
O996   Zn1030  1.945   .     S
O997   Zn1044  1.945   .     S
O998   Zn1031  1.945   .     S
O999   Zn1382  1.955   1_455 S
O999   Zn1030  1.956   .     S
O999   Zn1038  1.952   .     S
O999   Zn1042  1.956   .     S
O1000  Zn1032  1.945   .     S
O1001  Zn1044  1.942   .     S
O1002  Zn1030  1.942   .     S
O1003  Zn1035  1.945   .     S
O1004  Zn1036  1.945   .     S
O1005  Zn1033  1.944   .     S
O1006  Zn1034  1.944   .     S
O1007  Zn1387  1.945   .     S
O1008  Zn1038  1.945   .     S
O1009  Zn345   1.943   1_565 S
O1010  Zn1033  1.955   .     S
O1010  Zn1039  1.952   .     S
O1010  Zn1043  1.956   .     S
O1010  Zn1392  1.956   1_455 S
O1011  Zn1040  1.943   .     S
O1012  Zn1043  1.943   .     S
O1013  Zn1390  1.943   .     S
O1014  Zn1037  1.945   .     S
O1015  Zn333   1.945   1_565 S
O1016  Zn1386  1.945   .     S
O1017  Zn1039  1.945   .     S
O1018  Zn1029  1.942   .     S
O1019  Zn341   1.942   1_565 S
O1020  Zn1042  1.945   .     S
O1021  Zn1036  1.952   .     S
O1022  Zn1391  1.945   .     S
O1023  Zn344   1.944   1_565 S
O1024  Zn1041  1.944   .     S
O1025  Zn1035  1.952   .     S
O1026  Zn1030  1.953   .     S
O1027  Zn1044  1.953   .     S
O1028  Zn1032  1.954   .     S
Zn1031 O292    1.952   1_565 S
Zn1034 O1347   1.955   .     S
Zn1036 O281    1.956   1_565 S
Zn1038 O1364   1.945   1_455 S
Zn1039 O1355   1.945   1_455 S
Zn1042 O1361   1.943   1_455 S
Zn1043 O1370   1.945   1_455 S
Zn1044 O1358   1.956   .     S
C1045  C1092   1.400   .     A
C1045  H1165   1.072   .     S
C1045  C1074   1.400   .     A
C1046  C1084   1.395   .     A
C1046  H1166   1.073   .     S
C1047  C1147   1.416   .     A
C1047  C1140   1.416   .     A
C1047  C1111   1.467   .     S
C1048  C1112   1.469   .     S
C1048  C1150   1.410   .     A
C1048  C1139   1.424   .     A
C1049  C1149   1.416   .     A
C1049  C1138   1.424   .     A
C1049  C1113   1.467   .     S
C1050  C1137   1.424   .     A
C1050  C1114   1.468   .     S
C1050  C1152   1.423   .     A
C1051  C1136   1.418   .     A
C1051  C1151   1.423   .     A
C1051  C1115   1.466   .     S
C1052  C1125   1.461   .     S
C1052  C1135   1.417   .     A
C1052  C1155   1.412   .     A
C1053  C1134   1.411   .     A
C1053  C1126   1.466   .     S
C1053  C1153   1.419   .     A
C1054  C1157   1.427   .     A
C1054  C1133   1.404   .     A
C1054  C1118   1.467   .     S
C1055  C1156   1.422   .     A
C1055  C1131   1.424   .     A
C1055  C1119   1.472   .     S
C1056  C1159   1.420   .     A
C1056  C1130   1.414   .     A
C1056  C1120   1.465   .     S
C1057  C1085   1.398   .     A
C1057  C1098   1.408   .     A
C1057  H1177   1.074   .     S
C1058  C1158   1.420   .     A
C1058  C1129   1.416   .     A
C1058  C1122   1.471   .     S
C1059  C1128   1.421   .     A
C1059  C1123   1.470   .     S
C1059  C1161   1.416   .     A
C1060  C1124   1.472   .     S
C1060  C1160   1.419   .     A
C1060  C1127   1.422   .     A
C1061  C1074   1.422   .     A
C1061  C1079   1.434   .     A
C1061  C1108   1.485   .     S
C1062  C1075   1.417   .     A
C1062  C1080   1.429   .     A
C1062  C1107   1.479   .     S
C1063  C1081   1.424   .     A
C1063  C1076   1.435   .     A
C1063  C1106   1.488   .     S
C1064  C1078   1.433   .     A
C1064  C1082   1.424   .     A
C1065  C1104   1.475   .     S
C1065  C1083   1.421   .     A
C1065  C739    1.415   1_655 S
C1066  C1103   1.480   .     S
C1066  C1084   1.431   .     A
C1067  C1102   1.483   .     S
C1067  C1085   1.427   .     A
C1067  C394    1.426   1_565 S
C1068  H1181   1.073   .     S
C1068  C1086   1.402   .     A
C1069  C1101   1.485   .     S
C1069  C1091   1.420   .     A
C1069  C390    1.420   1_565 S
C1070  H1182   1.071   .     S
C1070  C1087   1.399   .     A
C1071  C1097   1.407   .     A
C1071  H1183   1.075   .     S
C1071  C1089   1.394   .     A
C1072  C1090   1.392   .     A
C1072  H1184   1.076   .     S
C1073  C1100   1.407   .     A
C1073  C1091   1.398   .     A
C1073  H1185   1.073   .     S
C1074  N1303   1.443   .     S
C1075  N1304   1.443   .     S
C1075  C1077   1.398   .     A
C1076  N1305   1.450   .     S
C1076  C1088   1.405   .     A
C1077  C1093   1.405   .     A
C1077  H1189   1.073   .     S
C1078  C1099   1.398   .     A
C1079  C1110   1.399   .     A
C1079  N1307   1.450   .     S
C1080  C1121   1.400   .     A
C1080  N1308   1.448   .     S
C1081  C1132   1.392   .     A
C1081  N1309   1.443   .     S
C1082  N1311   1.444   .     S
C1082  C1143   1.393   .     A
C1083  N1312   1.445   .     S
C1083  C1154   1.394   .     A
C1084  N1313   1.448   .     S
C1085  N1314   1.447   .     S
C1086  N1315   1.445   .     S
C1087  N1316   1.441   .     S
C1088  C1094   1.403   .     A
C1088  H1200   1.074   .     S
C1089  N1317   1.449   .     S
C1089  C718    1.429   1_655 S
C1090  N1318   1.441   .     S
C1091  N1319   1.444   .     S
C1092  C1110   1.399   .     A
C1092  C1093   1.504   1_554 S
C1093  C1121   1.403   .     A
C1093  C1092   1.504   1_556 S
C1094  C1132   1.406   .     A
C1094  C1095   1.501   1_554 S
C1095  C1099   1.405   .     A
C1095  C1143   1.410   .     A
C1095  C1094   1.501   1_556 S
C1096  C1154   1.403   .     A
C1096  C1097   1.498   .     S
C1096  C722    1.406   1_655 S
C1097  C698    1.401   1_655 S
C1098  C1100   1.507   .     S
C1098  C376    1.407   1_565 S
C1099  H1211   1.073   .     S
C1100  C372    1.408   1_565 S
C1101  O1369   1.285   .     A
C1101  O680    1.289   1_565 S
C1102  O1326   1.287   .     A
C1102  O677    1.289   1_565 S
C1103  O1374   1.286   .     A
C1104  O1375   1.284   .     A
C1104  O980    1.290   1_655 S
C1105  C716    1.485   1_655 S
C1105  O981    1.298   1_655 S
C1105  O985    1.283   1_655 S
C1106  O1330   1.297   .     A
C1106  O1334   1.284   .     A
C1107  O635    1.292   1_565 A
C1107  O639    1.282   1_565 A
C1108  O636    1.298   1_565 S
C1108  O641    1.282   1_565 S
C1109  C1164   1.471   .     S
C1109  O1338   1.283   .     A
C1109  O1366   1.288   .     A
C1110  H1222   1.073   .     S
C1111  O1367   1.289   .     A
C1111  O1339   1.281   .     A
C1112  O1364   1.282   .     A
C1112  O1340   1.287   .     A
C1113  O1365   1.285   .     A
C1113  O1341   1.284   .     A
C1114  O1342   1.285   .     A
C1114  O1371   1.287   .     A
C1115  O1372   1.289   .     A
C1115  O1343   1.283   .     A
C1116  O1368   1.283   .     A
C1116  C1162   1.472   .     S
C1116  O1344   1.291   .     A
C1117  C1163   1.471   .     S
C1117  O1345   1.289   .     A
C1117  O1370   1.284   .     A
C1118  O1346   1.283   .     A
C1118  O1357   1.285   .     A
C1119  O1359   1.288   .     A
C1119  O1348   1.283   .     A
C1120  O1355   1.285   .     A
C1120  O1349   1.283   .     A
C1121  H1233   1.075   .     S
C1122  O1356   1.290   .     A
C1122  O1350   1.281   .     A
C1123  O1362   1.283   .     A
C1123  O1351   1.290   .     A
C1124  O1363   1.283   .     A
C1124  O1352   1.291   .     A
C1125  O1360   1.284   .     A
C1125  O1353   1.285   .     A
C1126  O1361   1.289   .     A
C1126  O1354   1.282   .     A
C1127  C1144   1.404   .     A
C1127  N1277   1.446   .     S
C1128  N1288   1.447   .     S
C1128  C1142   1.404   .     A
C1129  N1299   1.441   .     S
C1129  C1141   1.403   .     A
C1130  N1310   1.442   .     S
C1130  C1140   1.407   .     A
C1131  C1139   1.416   .     A
C1131  N1320   1.450   .     S
C1132  H1244   1.075   .     S
C1133  C1138   1.402   .     A
C1133  N1321   1.455   .     S
C1134  C1137   1.397   .     A
C1134  N1322   1.442   .     S
C1135  C1136   1.395   .     A
C1135  N1323   1.440   .     S
C1136  N1324   1.442   .     S
C1137  N1278   1.450   .     S
C1138  N1279   1.443   .     S
C1139  N1280   1.450   .     S
C1140  N1281   1.443   .     S
C1141  N1282   1.444   .     S
C1141  C1164   1.417   .     A
C1142  N1283   1.447   .     S
C1142  C1163   1.423   .     A
C1143  H1255   1.075   .     S
C1144  N1284   1.446   .     S
C1144  C1162   1.421   .     A
C1145  C1161   1.401   .     A
C1145  N1285   1.446   .     S
C1145  C1163   1.420   .     A
C1146  N1286   1.442   .     S
C1146  C1162   1.417   .     A
C1146  C1160   1.406   .     A
C1147  C1159   1.403   .     A
C1147  N1287   1.446   .     S
C1148  C1164   1.419   .     A
C1148  C1158   1.403   .     A
C1148  N1289   1.445   .     S
C1149  C1157   1.399   .     A
C1149  N1290   1.454   .     S
C1150  N1291   1.442   .     S
C1150  C1156   1.397   .     A
C1151  N1292   1.444   .     S
C1151  C1155   1.394   .     A
C1152  C1153   1.404   .     A
C1152  N1293   1.446   .     S
C1153  N1294   1.447   .     S
C1154  H1266   1.074   .     S
C1155  N1295   1.448   .     S
C1156  N1296   1.449   .     S
C1157  N1297   1.431   .     S
C1158  N1298   1.446   .     S
C1159  N1300   1.439   .     S
C1160  N1301   1.444   .     S
C1161  N1302   1.442   .     S
H1167  N1313   1.051   .     S
H1168  N1314   1.046   .     S
H1169  N1314   1.050   .     S
H1170  N1315   1.043   .     S
H1171  N1315   1.050   .     S
H1172  N1316   1.044   .     S
H1173  N1316   1.046   .     S
H1174  N1317   1.035   .     S
H1175  N1317   1.051   .     S
H1176  N1318   1.042   .     S
H1178  N1318   1.046   .     S
H1179  N1319   1.047   .     S
H1180  N1319   1.048   .     S
H1186  N1277   1.042   .     S
H1187  N1277   1.042   .     S
H1188  N1288   1.043   .     S
H1190  N1288   1.041   .     S
H1191  N1299   1.047   .     S
H1192  N1299   1.044   .     S
H1193  N1310   1.049   .     S
H1194  N1310   1.041   .     S
H1195  N1320   1.048   .     S
H1196  N1320   1.036   .     S
H1197  N1321   1.043   .     S
H1198  N1321   1.038   .     S
H1199  N1322   1.049   .     S
H1201  N1322   1.046   .     S
H1202  N1323   1.046   .     S
H1203  N1323   1.046   .     S
H1204  N1324   1.045   .     S
H1205  N1324   1.046   .     S
H1206  N1278   1.044   .     S
H1207  N1278   1.040   .     S
H1208  N1279   1.045   .     S
H1209  N1279   1.040   .     S
H1210  N1280   1.048   .     S
H1212  N1280   1.036   .     S
H1213  N1281   1.047   .     S
H1214  N1281   1.044   .     S
H1215  N1282   1.048   .     S
H1216  N1282   1.042   .     S
H1217  N1283   1.043   .     S
H1218  N1283   1.040   .     S
H1219  N1284   1.042   .     S
H1220  N1284   1.042   .     S
H1221  N1285   1.048   .     S
H1223  N1285   1.040   .     S
H1224  N1286   1.048   .     S
H1225  N1286   1.043   .     S
H1226  N1287   1.042   .     S
H1227  N1287   1.045   .     S
H1228  N1289   1.045   .     S
H1229  N1289   1.045   .     S
H1230  N1290   1.041   .     S
H1231  N1290   1.038   .     S
H1232  N1291   1.051   .     S
H1234  N1291   1.046   .     S
H1235  N1292   1.047   .     S
H1236  N1292   1.046   .     S
H1237  N1293   1.043   .     S
H1238  N1293   1.040   .     S
H1239  N1294   1.043   .     S
H1240  N1294   1.040   .     S
H1241  N1295   1.051   .     S
H1242  N1295   1.056   .     S
H1243  N1296   1.046   .     S
H1245  N1296   1.041   .     S
H1246  N1297   1.056   .     S
H1247  N1297   1.045   .     S
H1248  N1298   1.044   .     S
H1249  N1298   1.042   .     S
H1250  N1300   1.034   .     S
H1251  N1300   1.044   .     S
H1252  N1301   1.049   .     S
H1253  N1301   1.041   .     S
H1254  N1302   1.049   .     S
H1256  N1302   1.043   .     S
H1257  N1303   1.044   .     S
H1258  N1303   1.046   .     S
H1259  N1304   1.044   .     S
H1260  N1304   1.048   .     S
H1261  N1305   1.031   .     S
H1262  N1305   1.048   .     S
H1263  N1306   1.033   .     S
H1264  N1306   1.050   .     S
H1265  N1307   1.033   .     S
H1267  N1307   1.051   .     S
H1268  N1308   1.035   .     S
H1269  N1308   1.046   .     S
H1270  N1309   1.043   .     S
H1271  N961    1.047   1_655 S
H1272  N1311   1.043   .     S
H1273  N1311   1.047   .     S
H1274  N1312   1.041   .     S
H1275  N1312   1.050   .     S
H1276  N1313   1.033   .     S
N1306  C730    1.449   1_655 S
O1325  Zn1380  1.952   .     S
O1325  Zn1377  1.956   .     S
O1325  Zn1388  1.955   .     S
O1326  Zn1379  1.954   .     S
O1327  Zn1382  1.953   .     S
O1327  C755    1.296   1_655 S
O1328  Zn1381  1.953   .     S
O1329  Zn1391  1.952   .     S
O1330  Zn1390  1.952   .     S
O1331  Zn1385  1.953   .     S
O1332  Zn1377  1.953   .     S
O1333  Zn1387  1.954   .     S
O1334  Zn1386  1.954   .     S
O1335  Zn1389  1.953   .     S
O1336  Zn1383  1.956   .     S
O1336  Zn1385  1.956   .     S
O1336  Zn1389  1.955   .     S
O1337  Zn1388  1.953   .     S
O1338  Zn1380  1.945   .     S
O1339  Zn1379  1.945   .     S
O1340  Zn1382  1.943   .     S
O1341  Zn1381  1.943   .     S
O1342  Zn1384  1.943   .     S
O1343  Zn1383  1.943   .     S
O1344  Zn1378  1.945   .     S
O1345  Zn1392  1.945   .     S
O1346  Zn1379  1.945   .     S
O1347  Zn1378  1.956   .     S
O1347  Zn1386  1.952   .     S
O1347  Zn1390  1.956   .     S
O1348  Zn1380  1.945   .     S
O1349  Zn1392  1.942   .     S
O1350  Zn1378  1.942   .     S
O1351  Zn1383  1.945   .     S
O1352  Zn1384  1.945   .     S
O1353  Zn1381  1.944   .     S
O1354  Zn1382  1.944   .     S
O1355  Zn1039  1.945   1_655 S
O1356  Zn1386  1.945   .     S
O1357  Zn693   1.943   1_565 S
O1358  Zn1381  1.955   .     S
O1358  Zn1387  1.952   .     S
O1358  Zn1391  1.956   .     S
O1359  Zn1388  1.943   .     S
O1360  Zn1391  1.943   .     S
O1361  Zn1042  1.943   1_655 S
O1362  Zn1385  1.945   .     S
O1363  Zn681   1.945   1_565 S
O1364  Zn1038  1.945   1_655 S
O1365  Zn1387  1.945   .     S
O1366  Zn1377  1.942   .     S
O1367  Zn689   1.942   1_565 S
O1368  Zn1390  1.945   .     S
O1369  Zn1384  1.952   .     S
O1370  Zn1043  1.945   1_655 S
O1371  Zn692   1.944   1_565 S
O1372  Zn1389  1.944   .     S
O1373  Zn1383  1.952   .     S
O1374  Zn1378  1.953   .     S
O1375  Zn1392  1.953   .     S
O1376  Zn1380  1.954   .     S
Zn1379 O640    1.952   1_565 S
Zn1382 O999    1.955   1_655 S
Zn1384 O629    1.956   1_565 S
Zn1392 O1010   1.956   1_655 S
