data_str_m3_o1_o18_pcu_sym.108
_audit_creation_date              2020-01-03
_audit_creation_method            'Materials Studio'
_symmetry_space_group_name_H-M    'P1'
_symmetry_Int_Tables_number       1
_symmetry_cell_setting            triclinic
loop_
_symmetry_equiv_pos_as_xyz
  x,y,z
_cell_length_a                    29.6044
_cell_length_b                    31.8203
_cell_length_c                    30.9789
_cell_angle_alpha                 90.0328
_cell_angle_beta                  66.2578
_cell_angle_gamma                 89.7497
loop_
_atom_site_label
_atom_site_type_symbol
_atom_site_fract_x
_atom_site_fract_y
_atom_site_fract_z
_atom_site_U_iso_or_equiv
_atom_site_adp_type
_atom_site_occupancy
C1     C     0.16680   0.24652   0.24945   0.00000  Uiso   1.00
C2     C     0.16653   0.08682   0.25056   0.00000  Uiso   1.00
C3     C     0.12890   0.12385   0.03939   0.00000  Uiso   1.00
C4     C     0.20443   0.20949   0.46061   0.00000  Uiso   1.00
C5     C     0.09075   0.12031   0.02431   0.00000  Uiso   1.00
C6     C     0.24257   0.21303   0.47569   0.00000  Uiso   1.00
C7     C     0.15306   0.31140   0.29290   0.00000  Uiso   1.00
C8     C     0.18027   0.02193   0.20710   0.00000  Uiso   1.00
C9     C     0.15355   0.02150   0.29324   0.00000  Uiso   1.00
C10    C     0.17979   0.31184   0.20676   0.00000  Uiso   1.00
C11    C     0.16690   0.04270   0.25033   0.00000  Uiso   1.00
C12    C     0.16643   0.29063   0.24967   0.00000  Uiso   1.00
C13    C     0.32272   0.14182   0.21919   0.00000  Uiso   1.00
C14    C     0.01061   0.19151   0.28081   0.00000  Uiso   1.00
C15    C     0.03716   0.14187   0.21933   0.00000  Uiso   1.00
C16    C     0.29617   0.19146   0.28067   0.00000  Uiso   1.00
C17    C     0.13533   0.16623   0.33849   0.00000  Uiso   1.00
C18    C     0.19800   0.16710   0.16151   0.00000  Uiso   1.00
C19    C     0.11469   0.16317   0.39021   0.00000  Uiso   1.00
C20    C     0.21864   0.17016   0.10979   0.00000  Uiso   1.00
C21    C     0.05843   0.13244   0.46408   0.00000  Uiso   1.00
C22    C     0.27490   0.20090   0.03592   0.00000  Uiso   1.00
C23    C     0.06870   0.14461   0.41738   0.00000  Uiso   1.00
C24    C     0.26463   0.18872   0.08262   0.00000  Uiso   1.00
C25    C     0.14598   0.17456   0.41178   0.00000  Uiso   1.00
C26    C     0.18735   0.15877   0.08823   0.00000  Uiso   1.00
C27    C     0.13457   0.16652   0.45909   0.00000  Uiso   1.00
C28    C     0.19875   0.16682   0.04092   0.00000  Uiso   1.00
C29    C     0.09312   0.14100   0.48375   0.00000  Uiso   1.00
C30    C     0.24021   0.19234   0.01625   0.00000  Uiso   1.00
C31    C     0.16795   0.17769   0.47963   0.00000  Uiso   1.00
C32    C     0.16538   0.15565   0.02037   0.00000  Uiso   1.00
H33    H     0.06267   0.09705   0.04120   0.00000  Uiso   1.00
H34    H     0.27066   0.23629   0.45880   0.00000  Uiso   1.00
H35    H     0.15100   0.14756   0.11014   0.00000  Uiso   1.00
H36    H     0.18233   0.18577   0.38986   0.00000  Uiso   1.00
H37    H     0.06586   0.12203   0.19485   0.00000  Uiso   1.00
H38    H     0.26747   0.21130   0.30515   0.00000  Uiso   1.00
N39    N     0.04759   0.16668   0.25001   0.00000  Uiso   1.00
N40    N     0.28574   0.16666   0.24999   0.00000  Uiso   1.00
O41    O     0.12846   0.22775   0.25001   0.00000  Uiso   1.00
O42    O     0.20488   0.10558   0.25000   0.00000  Uiso   1.00
O43    O     0.20490   0.22774   0.25000   0.00000  Uiso   1.00
O44    O     0.12843   0.10559   0.25000   0.00000  Uiso   1.00
O45    O     0.10661   0.16667   0.31613   0.00000  Uiso   1.00
O46    O     0.22672   0.16666   0.18388   0.00000  Uiso   1.00
O47    O     0.18305   0.16666   0.31612   0.00000  Uiso   1.00
O48    O     0.15028   0.16667   0.18388   0.00000  Uiso   1.00
Zn49   Zn    0.11562   0.16667   0.25000   0.00000  Uiso   1.00
Zn50   Zn    0.21771   0.16666   0.25000   0.00000  Uiso   1.00
Cl51   Cl    0.30738   0.20107   0.10736   0.00000  Uiso   1.00
Cl52   Cl    0.02595   0.13225   0.39264   0.00000  Uiso   1.00
Br53   Br    0.33202   0.10152   0.49906   0.00000  Uiso   1.00
Br54   Br    0.00131   0.23181   0.00094   0.00000  Uiso   1.00
Br55   Br    0.13408   0.07707   0.07686   0.00000  Uiso   1.00
Br56   Br    0.19924   0.25627   0.42315   0.00000  Uiso   1.00
Cl57   Cl    0.13491   0.28297   0.34632   0.00000  Uiso   1.00
Cl58   Cl    0.19842   0.05036   0.15368   0.00000  Uiso   1.00
Br59   Br    0.13604   0.05161   0.35192   0.00000  Uiso   1.00
Br60   Br    0.19729   0.28172   0.14808   0.00000  Uiso   1.00
Cl61   Cl    0.31180   0.10927   0.17874   0.00000  Uiso   1.00
Cl62   Cl    0.02153   0.22406   0.32126   0.00000  Uiso   1.00
C63    C     0.50014   0.24652   0.24945   0.00000  Uiso   1.00
C64    C     0.49986   0.08682   0.25056   0.00000  Uiso   1.00
C65    C     0.46223   0.12385   0.03939   0.00000  Uiso   1.00
C66    C     0.53776   0.20949   0.46061   0.00000  Uiso   1.00
C67    C     0.42409   0.12031   0.02431   0.00000  Uiso   1.00
C68    C     0.57590   0.21303   0.47569   0.00000  Uiso   1.00
C69    C     0.48639   0.31140   0.29290   0.00000  Uiso   1.00
C70    C     0.51361   0.02193   0.20710   0.00000  Uiso   1.00
C71    C     0.48688   0.02150   0.29324   0.00000  Uiso   1.00
C72    C     0.51312   0.31184   0.20676   0.00000  Uiso   1.00
C73    C     0.50024   0.04270   0.25033   0.00000  Uiso   1.00
C74    C     0.49976   0.29063   0.24967   0.00000  Uiso   1.00
C75    C     0.65605   0.14182   0.21919   0.00000  Uiso   1.00
C76    C     0.34395   0.19151   0.28081   0.00000  Uiso   1.00
C77    C     0.37050   0.14187   0.21933   0.00000  Uiso   1.00
C78    C     0.62950   0.19146   0.28067   0.00000  Uiso   1.00
C79    C     0.46866   0.16623   0.33849   0.00000  Uiso   1.00
C80    C     0.53134   0.16710   0.16151   0.00000  Uiso   1.00
C81    C     0.44802   0.16317   0.39021   0.00000  Uiso   1.00
C82    C     0.55198   0.17016   0.10979   0.00000  Uiso   1.00
C83    C     0.39176   0.13244   0.46408   0.00000  Uiso   1.00
C84    C     0.60823   0.20090   0.03592   0.00000  Uiso   1.00
C85    C     0.40203   0.14461   0.41738   0.00000  Uiso   1.00
C86    C     0.59797   0.18872   0.08262   0.00000  Uiso   1.00
C87    C     0.47932   0.17456   0.41178   0.00000  Uiso   1.00
C88    C     0.52068   0.15877   0.08823   0.00000  Uiso   1.00
C89    C     0.46791   0.16652   0.45909   0.00000  Uiso   1.00
C90    C     0.53209   0.16682   0.04092   0.00000  Uiso   1.00
C91    C     0.42645   0.14100   0.48375   0.00000  Uiso   1.00
C92    C     0.57354   0.19234   0.01625   0.00000  Uiso   1.00
C93    C     0.50128   0.17769   0.47963   0.00000  Uiso   1.00
C94    C     0.49871   0.15565   0.02037   0.00000  Uiso   1.00
H95    H     0.39600   0.09705   0.04120   0.00000  Uiso   1.00
H96    H     0.60399   0.23629   0.45880   0.00000  Uiso   1.00
H97    H     0.48433   0.14756   0.11014   0.00000  Uiso   1.00
H98    H     0.51566   0.18577   0.38986   0.00000  Uiso   1.00
H99    H     0.39919   0.12203   0.19485   0.00000  Uiso   1.00
H100   H     0.60081   0.21130   0.30515   0.00000  Uiso   1.00
N101   N     0.38093   0.16668   0.25001   0.00000  Uiso   1.00
N102   N     0.61907   0.16666   0.24999   0.00000  Uiso   1.00
O103   O     0.46179   0.22775   0.25001   0.00000  Uiso   1.00
O104   O     0.53821   0.10558   0.25000   0.00000  Uiso   1.00
O105   O     0.53823   0.22774   0.25000   0.00000  Uiso   1.00
O106   O     0.46177   0.10559   0.25000   0.00000  Uiso   1.00
O107   O     0.43994   0.16667   0.31613   0.00000  Uiso   1.00
O108   O     0.56006   0.16666   0.18388   0.00000  Uiso   1.00
O109   O     0.51639   0.16666   0.31612   0.00000  Uiso   1.00
O110   O     0.48361   0.16667   0.18388   0.00000  Uiso   1.00
Zn111  Zn    0.44896   0.16667   0.25000   0.00000  Uiso   1.00
Zn112  Zn    0.55104   0.16666   0.25000   0.00000  Uiso   1.00
Cl113  Cl    0.64072   0.20107   0.10736   0.00000  Uiso   1.00
Cl114  Cl    0.35929   0.13225   0.39264   0.00000  Uiso   1.00
Br115  Br    0.66536   0.10152   0.49906   0.00000  Uiso   1.00
Br116  Br    0.33464   0.23181   0.00094   0.00000  Uiso   1.00
Br117  Br    0.46741   0.07707   0.07686   0.00000  Uiso   1.00
Br118  Br    0.53258   0.25627   0.42315   0.00000  Uiso   1.00
Cl119  Cl    0.46824   0.28297   0.34632   0.00000  Uiso   1.00
Cl120  Cl    0.53175   0.05036   0.15368   0.00000  Uiso   1.00
Br121  Br    0.46938   0.05161   0.35192   0.00000  Uiso   1.00
Br122  Br    0.53063   0.28172   0.14808   0.00000  Uiso   1.00
Cl123  Cl    0.64514   0.10927   0.17874   0.00000  Uiso   1.00
Cl124  Cl    0.35487   0.22406   0.32126   0.00000  Uiso   1.00
C125   C     0.83347   0.24652   0.24945   0.00000  Uiso   1.00
C126   C     0.83320   0.08682   0.25056   0.00000  Uiso   1.00
C127   C     0.79556   0.12385   0.03939   0.00000  Uiso   1.00
C128   C     0.87109   0.20949   0.46061   0.00000  Uiso   1.00
C129   C     0.75742   0.12031   0.02431   0.00000  Uiso   1.00
C130   C     0.90924   0.21303   0.47569   0.00000  Uiso   1.00
C131   C     0.81973   0.31140   0.29290   0.00000  Uiso   1.00
C132   C     0.84694   0.02193   0.20710   0.00000  Uiso   1.00
C133   C     0.82021   0.02150   0.29324   0.00000  Uiso   1.00
C134   C     0.84646   0.31184   0.20676   0.00000  Uiso   1.00
C135   C     0.83357   0.04270   0.25033   0.00000  Uiso   1.00
C136   C     0.83310   0.29063   0.24967   0.00000  Uiso   1.00
C137   C     0.98939   0.14182   0.21919   0.00000  Uiso   1.00
C138   C     0.67728   0.19151   0.28081   0.00000  Uiso   1.00
C139   C     0.70383   0.14187   0.21933   0.00000  Uiso   1.00
C140   C     0.96284   0.19146   0.28067   0.00000  Uiso   1.00
C141   C     0.80200   0.16623   0.33849   0.00000  Uiso   1.00
C142   C     0.86467   0.16710   0.16151   0.00000  Uiso   1.00
C143   C     0.78135   0.16317   0.39021   0.00000  Uiso   1.00
C144   C     0.88531   0.17016   0.10979   0.00000  Uiso   1.00
C145   C     0.72510   0.13244   0.46408   0.00000  Uiso   1.00
C146   C     0.94157   0.20090   0.03592   0.00000  Uiso   1.00
C147   C     0.73537   0.14461   0.41738   0.00000  Uiso   1.00
C148   C     0.93130   0.18872   0.08262   0.00000  Uiso   1.00
C149   C     0.81265   0.17456   0.41178   0.00000  Uiso   1.00
C150   C     0.85401   0.15877   0.08823   0.00000  Uiso   1.00
C151   C     0.80124   0.16652   0.45909   0.00000  Uiso   1.00
C152   C     0.86542   0.16682   0.04092   0.00000  Uiso   1.00
C153   C     0.75978   0.14100   0.48375   0.00000  Uiso   1.00
C154   C     0.90688   0.19234   0.01625   0.00000  Uiso   1.00
C155   C     0.83461   0.17769   0.47963   0.00000  Uiso   1.00
C156   C     0.83205   0.15565   0.02037   0.00000  Uiso   1.00
H157   H     0.72933   0.09705   0.04120   0.00000  Uiso   1.00
H158   H     0.93733   0.23629   0.45880   0.00000  Uiso   1.00
H159   H     0.81767   0.14756   0.11014   0.00000  Uiso   1.00
H160   H     0.84900   0.18577   0.38986   0.00000  Uiso   1.00
H161   H     0.73253   0.12203   0.19485   0.00000  Uiso   1.00
H162   H     0.93414   0.21130   0.30515   0.00000  Uiso   1.00
N163   N     0.71426   0.16668   0.25001   0.00000  Uiso   1.00
N164   N     0.95241   0.16666   0.24999   0.00000  Uiso   1.00
O165   O     0.79512   0.22775   0.25001   0.00000  Uiso   1.00
O166   O     0.87154   0.10558   0.25000   0.00000  Uiso   1.00
O167   O     0.87157   0.22774   0.25000   0.00000  Uiso   1.00
O168   O     0.79510   0.10559   0.25000   0.00000  Uiso   1.00
O169   O     0.77328   0.16667   0.31613   0.00000  Uiso   1.00
O170   O     0.89339   0.16666   0.18388   0.00000  Uiso   1.00
O171   O     0.84972   0.16666   0.31612   0.00000  Uiso   1.00
O172   O     0.81695   0.16667   0.18388   0.00000  Uiso   1.00
Zn173  Zn    0.78229   0.16667   0.25000   0.00000  Uiso   1.00
Zn174  Zn    0.88438   0.16666   0.25000   0.00000  Uiso   1.00
Cl175  Cl    0.97405   0.20107   0.10736   0.00000  Uiso   1.00
Cl176  Cl    0.69262   0.13225   0.39264   0.00000  Uiso   1.00
Br177  Br    0.99869   0.10152   0.49906   0.00000  Uiso   1.00
Br178  Br    0.66798   0.23181   0.00094   0.00000  Uiso   1.00
Br179  Br    0.80075   0.07707   0.07686   0.00000  Uiso   1.00
Br180  Br    0.86591   0.25627   0.42315   0.00000  Uiso   1.00
Cl181  Cl    0.80157   0.28297   0.34632   0.00000  Uiso   1.00
Cl182  Cl    0.86509   0.05036   0.15368   0.00000  Uiso   1.00
Br183  Br    0.80271   0.05161   0.35192   0.00000  Uiso   1.00
Br184  Br    0.86396   0.28172   0.14808   0.00000  Uiso   1.00
Cl185  Cl    0.97847   0.10927   0.17874   0.00000  Uiso   1.00
Cl186  Cl    0.68820   0.22406   0.32126   0.00000  Uiso   1.00
C187   C     0.16680   0.57985   0.24945   0.00000  Uiso   1.00
C188   C     0.16653   0.42015   0.25056   0.00000  Uiso   1.00
C189   C     0.12890   0.45719   0.03939   0.00000  Uiso   1.00
C190   C     0.20443   0.54282   0.46061   0.00000  Uiso   1.00
C191   C     0.09075   0.45364   0.02431   0.00000  Uiso   1.00
C192   C     0.24257   0.54636   0.47569   0.00000  Uiso   1.00
C193   C     0.15306   0.64474   0.29290   0.00000  Uiso   1.00
C194   C     0.18027   0.35526   0.20710   0.00000  Uiso   1.00
C195   C     0.15355   0.35483   0.29324   0.00000  Uiso   1.00
C196   C     0.17979   0.64517   0.20676   0.00000  Uiso   1.00
C197   C     0.16690   0.37603   0.25033   0.00000  Uiso   1.00
C198   C     0.16643   0.62397   0.24967   0.00000  Uiso   1.00
C199   C     0.32272   0.47516   0.21919   0.00000  Uiso   1.00
C200   C     0.01061   0.52484   0.28081   0.00000  Uiso   1.00
C201   C     0.03716   0.47520   0.21933   0.00000  Uiso   1.00
C202   C     0.29617   0.52480   0.28067   0.00000  Uiso   1.00
C203   C     0.13533   0.49957   0.33849   0.00000  Uiso   1.00
C204   C     0.19800   0.50043   0.16151   0.00000  Uiso   1.00
C205   C     0.11469   0.49650   0.39021   0.00000  Uiso   1.00
C206   C     0.21864   0.50350   0.10979   0.00000  Uiso   1.00
C207   C     0.05843   0.46577   0.46408   0.00000  Uiso   1.00
C208   C     0.27490   0.53423   0.03592   0.00000  Uiso   1.00
C209   C     0.06870   0.47794   0.41738   0.00000  Uiso   1.00
C210   C     0.26463   0.52205   0.08262   0.00000  Uiso   1.00
C211   C     0.14598   0.50789   0.41178   0.00000  Uiso   1.00
C212   C     0.18735   0.49211   0.08823   0.00000  Uiso   1.00
C213   C     0.13457   0.49985   0.45909   0.00000  Uiso   1.00
C214   C     0.19875   0.50015   0.04092   0.00000  Uiso   1.00
C215   C     0.09312   0.47433   0.48375   0.00000  Uiso   1.00
C216   C     0.24021   0.52567   0.01625   0.00000  Uiso   1.00
C217   C     0.16795   0.51103   0.47963   0.00000  Uiso   1.00
C218   C     0.16538   0.48898   0.02037   0.00000  Uiso   1.00
H219   H     0.06267   0.43038   0.04120   0.00000  Uiso   1.00
H220   H     0.27066   0.56962   0.45880   0.00000  Uiso   1.00
H221   H     0.15100   0.48090   0.11014   0.00000  Uiso   1.00
H222   H     0.18233   0.51910   0.38986   0.00000  Uiso   1.00
H223   H     0.06586   0.45537   0.19485   0.00000  Uiso   1.00
H224   H     0.26747   0.54463   0.30515   0.00000  Uiso   1.00
N225   N     0.04759   0.50001   0.25001   0.00000  Uiso   1.00
N226   N     0.28574   0.49999   0.24999   0.00000  Uiso   1.00
O227   O     0.12846   0.56108   0.25001   0.00000  Uiso   1.00
O228   O     0.20488   0.43892   0.25000   0.00000  Uiso   1.00
O229   O     0.20490   0.56107   0.25000   0.00000  Uiso   1.00
O230   O     0.12843   0.43893   0.25000   0.00000  Uiso   1.00
O231   O     0.10661   0.50001   0.31613   0.00000  Uiso   1.00
O232   O     0.22672   0.49999   0.18388   0.00000  Uiso   1.00
O233   O     0.18305   0.50000   0.31612   0.00000  Uiso   1.00
O234   O     0.15028   0.50000   0.18388   0.00000  Uiso   1.00
Zn235  Zn    0.11562   0.50001   0.25000   0.00000  Uiso   1.00
Zn236  Zn    0.21771   0.49999   0.25000   0.00000  Uiso   1.00
Cl237  Cl    0.30738   0.53441   0.10736   0.00000  Uiso   1.00
Cl238  Cl    0.02595   0.46559   0.39264   0.00000  Uiso   1.00
Br239  Br    0.33202   0.43485   0.49906   0.00000  Uiso   1.00
Br240  Br    0.00131   0.56515   0.00094   0.00000  Uiso   1.00
Br241  Br    0.13408   0.41040   0.07686   0.00000  Uiso   1.00
Br242  Br    0.19924   0.58960   0.42315   0.00000  Uiso   1.00
Cl243  Cl    0.13491   0.61630   0.34632   0.00000  Uiso   1.00
Cl244  Cl    0.19842   0.38370   0.15368   0.00000  Uiso   1.00
Br245  Br    0.13604   0.38494   0.35192   0.00000  Uiso   1.00
Br246  Br    0.19729   0.61506   0.14808   0.00000  Uiso   1.00
Cl247  Cl    0.31180   0.44260   0.17874   0.00000  Uiso   1.00
Cl248  Cl    0.02153   0.55740   0.32126   0.00000  Uiso   1.00
C249   C     0.50014   0.57985   0.24945   0.00000  Uiso   1.00
C250   C     0.49986   0.42015   0.25056   0.00000  Uiso   1.00
C251   C     0.46223   0.45719   0.03939   0.00000  Uiso   1.00
C252   C     0.53776   0.54282   0.46061   0.00000  Uiso   1.00
C253   C     0.42409   0.45364   0.02431   0.00000  Uiso   1.00
C254   C     0.57590   0.54636   0.47569   0.00000  Uiso   1.00
C255   C     0.48639   0.64474   0.29290   0.00000  Uiso   1.00
C256   C     0.51361   0.35526   0.20710   0.00000  Uiso   1.00
C257   C     0.48688   0.35483   0.29324   0.00000  Uiso   1.00
C258   C     0.51312   0.64517   0.20676   0.00000  Uiso   1.00
C259   C     0.50024   0.37603   0.25033   0.00000  Uiso   1.00
C260   C     0.49976   0.62397   0.24967   0.00000  Uiso   1.00
C261   C     0.65605   0.47516   0.21919   0.00000  Uiso   1.00
C262   C     0.34395   0.52484   0.28081   0.00000  Uiso   1.00
C263   C     0.37050   0.47520   0.21933   0.00000  Uiso   1.00
C264   C     0.62950   0.52480   0.28067   0.00000  Uiso   1.00
C265   C     0.46866   0.49957   0.33849   0.00000  Uiso   1.00
C266   C     0.53134   0.50043   0.16151   0.00000  Uiso   1.00
C267   C     0.44802   0.49650   0.39021   0.00000  Uiso   1.00
C268   C     0.55198   0.50350   0.10979   0.00000  Uiso   1.00
C269   C     0.39176   0.46577   0.46408   0.00000  Uiso   1.00
C270   C     0.60823   0.53423   0.03592   0.00000  Uiso   1.00
C271   C     0.40203   0.47794   0.41738   0.00000  Uiso   1.00
C272   C     0.59797   0.52205   0.08262   0.00000  Uiso   1.00
C273   C     0.47932   0.50789   0.41178   0.00000  Uiso   1.00
C274   C     0.52068   0.49211   0.08823   0.00000  Uiso   1.00
C275   C     0.46791   0.49985   0.45909   0.00000  Uiso   1.00
C276   C     0.53209   0.50015   0.04092   0.00000  Uiso   1.00
C277   C     0.42645   0.47433   0.48375   0.00000  Uiso   1.00
C278   C     0.57354   0.52567   0.01625   0.00000  Uiso   1.00
C279   C     0.50128   0.51103   0.47963   0.00000  Uiso   1.00
C280   C     0.49871   0.48898   0.02037   0.00000  Uiso   1.00
H281   H     0.39600   0.43038   0.04120   0.00000  Uiso   1.00
H282   H     0.60399   0.56962   0.45880   0.00000  Uiso   1.00
H283   H     0.48433   0.48090   0.11014   0.00000  Uiso   1.00
H284   H     0.51566   0.51910   0.38986   0.00000  Uiso   1.00
H285   H     0.39919   0.45537   0.19485   0.00000  Uiso   1.00
H286   H     0.60081   0.54463   0.30515   0.00000  Uiso   1.00
N287   N     0.38093   0.50001   0.25001   0.00000  Uiso   1.00
N288   N     0.61907   0.49999   0.24999   0.00000  Uiso   1.00
O289   O     0.46179   0.56108   0.25001   0.00000  Uiso   1.00
O290   O     0.53821   0.43892   0.25000   0.00000  Uiso   1.00
O291   O     0.53823   0.56107   0.25000   0.00000  Uiso   1.00
O292   O     0.46177   0.43893   0.25000   0.00000  Uiso   1.00
O293   O     0.43994   0.50001   0.31613   0.00000  Uiso   1.00
O294   O     0.56006   0.49999   0.18388   0.00000  Uiso   1.00
O295   O     0.51639   0.50000   0.31612   0.00000  Uiso   1.00
O296   O     0.48361   0.50000   0.18388   0.00000  Uiso   1.00
Zn297  Zn    0.44896   0.50001   0.25000   0.00000  Uiso   1.00
Zn298  Zn    0.55104   0.49999   0.25000   0.00000  Uiso   1.00
Cl299  Cl    0.64072   0.53441   0.10736   0.00000  Uiso   1.00
Cl300  Cl    0.35929   0.46559   0.39264   0.00000  Uiso   1.00
Br301  Br    0.66536   0.43485   0.49906   0.00000  Uiso   1.00
Br302  Br    0.33464   0.56515   0.00094   0.00000  Uiso   1.00
Br303  Br    0.46741   0.41040   0.07686   0.00000  Uiso   1.00
Br304  Br    0.53258   0.58960   0.42315   0.00000  Uiso   1.00
Cl305  Cl    0.46824   0.61630   0.34632   0.00000  Uiso   1.00
Cl306  Cl    0.53175   0.38370   0.15368   0.00000  Uiso   1.00
Br307  Br    0.46938   0.38494   0.35192   0.00000  Uiso   1.00
Br308  Br    0.53063   0.61506   0.14808   0.00000  Uiso   1.00
Cl309  Cl    0.64514   0.44260   0.17874   0.00000  Uiso   1.00
Cl310  Cl    0.35487   0.55740   0.32126   0.00000  Uiso   1.00
C311   C     0.83347   0.57985   0.24945   0.00000  Uiso   1.00
C312   C     0.83320   0.42015   0.25056   0.00000  Uiso   1.00
C313   C     0.79556   0.45719   0.03939   0.00000  Uiso   1.00
C314   C     0.87109   0.54282   0.46061   0.00000  Uiso   1.00
C315   C     0.75742   0.45364   0.02431   0.00000  Uiso   1.00
C316   C     0.90924   0.54636   0.47569   0.00000  Uiso   1.00
C317   C     0.81973   0.64474   0.29290   0.00000  Uiso   1.00
C318   C     0.84694   0.35526   0.20710   0.00000  Uiso   1.00
C319   C     0.82021   0.35483   0.29324   0.00000  Uiso   1.00
C320   C     0.84646   0.64517   0.20676   0.00000  Uiso   1.00
C321   C     0.83357   0.37603   0.25033   0.00000  Uiso   1.00
C322   C     0.83310   0.62397   0.24967   0.00000  Uiso   1.00
C323   C     0.98939   0.47516   0.21919   0.00000  Uiso   1.00
C324   C     0.67728   0.52484   0.28081   0.00000  Uiso   1.00
C325   C     0.70383   0.47520   0.21933   0.00000  Uiso   1.00
C326   C     0.96284   0.52480   0.28067   0.00000  Uiso   1.00
C327   C     0.80200   0.49957   0.33849   0.00000  Uiso   1.00
C328   C     0.86467   0.50043   0.16151   0.00000  Uiso   1.00
C329   C     0.78135   0.49650   0.39021   0.00000  Uiso   1.00
C330   C     0.88531   0.50350   0.10979   0.00000  Uiso   1.00
C331   C     0.72510   0.46577   0.46408   0.00000  Uiso   1.00
C332   C     0.94157   0.53423   0.03592   0.00000  Uiso   1.00
C333   C     0.73537   0.47794   0.41738   0.00000  Uiso   1.00
C334   C     0.93130   0.52205   0.08262   0.00000  Uiso   1.00
C335   C     0.81265   0.50789   0.41178   0.00000  Uiso   1.00
C336   C     0.85401   0.49211   0.08823   0.00000  Uiso   1.00
C337   C     0.80124   0.49985   0.45909   0.00000  Uiso   1.00
C338   C     0.86542   0.50015   0.04092   0.00000  Uiso   1.00
C339   C     0.75978   0.47433   0.48375   0.00000  Uiso   1.00
C340   C     0.90688   0.52567   0.01625   0.00000  Uiso   1.00
C341   C     0.83461   0.51103   0.47963   0.00000  Uiso   1.00
C342   C     0.83205   0.48898   0.02037   0.00000  Uiso   1.00
H343   H     0.72933   0.43038   0.04120   0.00000  Uiso   1.00
H344   H     0.93733   0.56962   0.45880   0.00000  Uiso   1.00
H345   H     0.81767   0.48090   0.11014   0.00000  Uiso   1.00
H346   H     0.84900   0.51910   0.38986   0.00000  Uiso   1.00
H347   H     0.73253   0.45537   0.19485   0.00000  Uiso   1.00
H348   H     0.93414   0.54463   0.30515   0.00000  Uiso   1.00
N349   N     0.71426   0.50001   0.25001   0.00000  Uiso   1.00
N350   N     0.95241   0.49999   0.24999   0.00000  Uiso   1.00
O351   O     0.79512   0.56108   0.25001   0.00000  Uiso   1.00
O352   O     0.87154   0.43892   0.25000   0.00000  Uiso   1.00
O353   O     0.87157   0.56107   0.25000   0.00000  Uiso   1.00
O354   O     0.79510   0.43893   0.25000   0.00000  Uiso   1.00
O355   O     0.77328   0.50001   0.31613   0.00000  Uiso   1.00
O356   O     0.89339   0.49999   0.18388   0.00000  Uiso   1.00
O357   O     0.84972   0.50000   0.31612   0.00000  Uiso   1.00
O358   O     0.81695   0.50000   0.18388   0.00000  Uiso   1.00
Zn359  Zn    0.78229   0.50001   0.25000   0.00000  Uiso   1.00
Zn360  Zn    0.88438   0.49999   0.25000   0.00000  Uiso   1.00
Cl361  Cl    0.97405   0.53441   0.10736   0.00000  Uiso   1.00
Cl362  Cl    0.69262   0.46559   0.39264   0.00000  Uiso   1.00
Br363  Br    0.99869   0.43485   0.49906   0.00000  Uiso   1.00
Br364  Br    0.66798   0.56515   0.00094   0.00000  Uiso   1.00
Br365  Br    0.80075   0.41040   0.07686   0.00000  Uiso   1.00
Br366  Br    0.86591   0.58960   0.42315   0.00000  Uiso   1.00
Cl367  Cl    0.80157   0.61630   0.34632   0.00000  Uiso   1.00
Cl368  Cl    0.86509   0.38370   0.15368   0.00000  Uiso   1.00
Br369  Br    0.80271   0.38494   0.35192   0.00000  Uiso   1.00
Br370  Br    0.86396   0.61506   0.14808   0.00000  Uiso   1.00
Cl371  Cl    0.97847   0.44260   0.17874   0.00000  Uiso   1.00
Cl372  Cl    0.68820   0.55740   0.32126   0.00000  Uiso   1.00
C373   C     0.16680   0.91318   0.24945   0.00000  Uiso   1.00
C374   C     0.16653   0.75348   0.25056   0.00000  Uiso   1.00
C375   C     0.12890   0.79052   0.03939   0.00000  Uiso   1.00
C376   C     0.20443   0.87615   0.46061   0.00000  Uiso   1.00
C377   C     0.09075   0.78698   0.02431   0.00000  Uiso   1.00
C378   C     0.24257   0.87969   0.47569   0.00000  Uiso   1.00
C379   C     0.15306   0.97807   0.29290   0.00000  Uiso   1.00
C380   C     0.18027   0.68860   0.20710   0.00000  Uiso   1.00
C381   C     0.15355   0.68816   0.29324   0.00000  Uiso   1.00
C382   C     0.17979   0.97850   0.20676   0.00000  Uiso   1.00
C383   C     0.16690   0.70937   0.25033   0.00000  Uiso   1.00
C384   C     0.16643   0.95730   0.24967   0.00000  Uiso   1.00
C385   C     0.32272   0.80849   0.21919   0.00000  Uiso   1.00
C386   C     0.01061   0.85818   0.28081   0.00000  Uiso   1.00
C387   C     0.03716   0.80854   0.21933   0.00000  Uiso   1.00
C388   C     0.29617   0.85813   0.28067   0.00000  Uiso   1.00
C389   C     0.13533   0.83290   0.33849   0.00000  Uiso   1.00
C390   C     0.19800   0.83377   0.16151   0.00000  Uiso   1.00
C391   C     0.11469   0.82984   0.39021   0.00000  Uiso   1.00
C392   C     0.21864   0.83683   0.10979   0.00000  Uiso   1.00
C393   C     0.05843   0.79910   0.46408   0.00000  Uiso   1.00
C394   C     0.27490   0.86756   0.03592   0.00000  Uiso   1.00
C395   C     0.06870   0.81128   0.41738   0.00000  Uiso   1.00
C396   C     0.26463   0.85539   0.08262   0.00000  Uiso   1.00
C397   C     0.14598   0.84123   0.41178   0.00000  Uiso   1.00
C398   C     0.18735   0.82544   0.08823   0.00000  Uiso   1.00
C399   C     0.13457   0.83319   0.45909   0.00000  Uiso   1.00
C400   C     0.19875   0.83348   0.04092   0.00000  Uiso   1.00
C401   C     0.09312   0.80766   0.48375   0.00000  Uiso   1.00
C402   C     0.24021   0.85901   0.01625   0.00000  Uiso   1.00
C403   C     0.16795   0.84436   0.47963   0.00000  Uiso   1.00
C404   C     0.16538   0.82231   0.02037   0.00000  Uiso   1.00
H405   H     0.06267   0.76372   0.04120   0.00000  Uiso   1.00
H406   H     0.27066   0.90296   0.45880   0.00000  Uiso   1.00
H407   H     0.15100   0.81423   0.11014   0.00000  Uiso   1.00
H408   H     0.18233   0.85244   0.38986   0.00000  Uiso   1.00
H409   H     0.06586   0.78870   0.19485   0.00000  Uiso   1.00
H410   H     0.26747   0.87797   0.30515   0.00000  Uiso   1.00
N411   N     0.04759   0.83334   0.25001   0.00000  Uiso   1.00
N412   N     0.28574   0.83332   0.24999   0.00000  Uiso   1.00
O413   O     0.12846   0.89442   0.25001   0.00000  Uiso   1.00
O414   O     0.20488   0.77225   0.25000   0.00000  Uiso   1.00
O415   O     0.20490   0.89441   0.25000   0.00000  Uiso   1.00
O416   O     0.12843   0.77226   0.25000   0.00000  Uiso   1.00
O417   O     0.10661   0.83334   0.31613   0.00000  Uiso   1.00
O418   O     0.22672   0.83333   0.18388   0.00000  Uiso   1.00
O419   O     0.18305   0.83333   0.31612   0.00000  Uiso   1.00
O420   O     0.15028   0.83334   0.18388   0.00000  Uiso   1.00
Zn421  Zn    0.11562   0.83334   0.25000   0.00000  Uiso   1.00
Zn422  Zn    0.21771   0.83333   0.25000   0.00000  Uiso   1.00
Cl423  Cl    0.30738   0.86774   0.10736   0.00000  Uiso   1.00
Cl424  Cl    0.02595   0.79892   0.39264   0.00000  Uiso   1.00
Br425  Br    0.33202   0.76819   0.49906   0.00000  Uiso   1.00
Br426  Br    0.00131   0.89848   0.00094   0.00000  Uiso   1.00
Br427  Br    0.13408   0.74373   0.07686   0.00000  Uiso   1.00
Br428  Br    0.19924   0.92294   0.42315   0.00000  Uiso   1.00
Cl429  Cl    0.13491   0.94964   0.34632   0.00000  Uiso   1.00
Cl430  Cl    0.19842   0.71703   0.15368   0.00000  Uiso   1.00
Br431  Br    0.13604   0.71828   0.35192   0.00000  Uiso   1.00
Br432  Br    0.19729   0.94839   0.14808   0.00000  Uiso   1.00
Cl433  Cl    0.31180   0.77594   0.17874   0.00000  Uiso   1.00
Cl434  Cl    0.02153   0.89073   0.32126   0.00000  Uiso   1.00
C435   C     0.50014   0.91318   0.24945   0.00000  Uiso   1.00
C436   C     0.49986   0.75348   0.25056   0.00000  Uiso   1.00
C437   C     0.46223   0.79052   0.03939   0.00000  Uiso   1.00
C438   C     0.53776   0.87615   0.46061   0.00000  Uiso   1.00
C439   C     0.42409   0.78698   0.02431   0.00000  Uiso   1.00
C440   C     0.57590   0.87969   0.47569   0.00000  Uiso   1.00
C441   C     0.48639   0.97807   0.29290   0.00000  Uiso   1.00
C442   C     0.51361   0.68860   0.20710   0.00000  Uiso   1.00
C443   C     0.48688   0.68816   0.29324   0.00000  Uiso   1.00
C444   C     0.51312   0.97850   0.20676   0.00000  Uiso   1.00
C445   C     0.50024   0.70937   0.25033   0.00000  Uiso   1.00
C446   C     0.49976   0.95730   0.24967   0.00000  Uiso   1.00
C447   C     0.65605   0.80849   0.21919   0.00000  Uiso   1.00
C448   C     0.34395   0.85818   0.28081   0.00000  Uiso   1.00
C449   C     0.37050   0.80854   0.21933   0.00000  Uiso   1.00
C450   C     0.62950   0.85813   0.28067   0.00000  Uiso   1.00
C451   C     0.46866   0.83290   0.33849   0.00000  Uiso   1.00
C452   C     0.53134   0.83377   0.16151   0.00000  Uiso   1.00
C453   C     0.44802   0.82984   0.39021   0.00000  Uiso   1.00
C454   C     0.55198   0.83683   0.10979   0.00000  Uiso   1.00
C455   C     0.39176   0.79910   0.46408   0.00000  Uiso   1.00
C456   C     0.60823   0.86756   0.03592   0.00000  Uiso   1.00
C457   C     0.40203   0.81128   0.41738   0.00000  Uiso   1.00
C458   C     0.59797   0.85539   0.08262   0.00000  Uiso   1.00
C459   C     0.47932   0.84123   0.41178   0.00000  Uiso   1.00
C460   C     0.52068   0.82544   0.08823   0.00000  Uiso   1.00
C461   C     0.46791   0.83319   0.45909   0.00000  Uiso   1.00
C462   C     0.53209   0.83348   0.04092   0.00000  Uiso   1.00
C463   C     0.42645   0.80766   0.48375   0.00000  Uiso   1.00
C464   C     0.57354   0.85901   0.01625   0.00000  Uiso   1.00
C465   C     0.50128   0.84436   0.47963   0.00000  Uiso   1.00
C466   C     0.49871   0.82231   0.02037   0.00000  Uiso   1.00
H467   H     0.39600   0.76372   0.04120   0.00000  Uiso   1.00
H468   H     0.60399   0.90296   0.45880   0.00000  Uiso   1.00
H469   H     0.48433   0.81423   0.11014   0.00000  Uiso   1.00
H470   H     0.51566   0.85244   0.38986   0.00000  Uiso   1.00
H471   H     0.39919   0.78870   0.19485   0.00000  Uiso   1.00
H472   H     0.60081   0.87797   0.30515   0.00000  Uiso   1.00
N473   N     0.38093   0.83334   0.25001   0.00000  Uiso   1.00
N474   N     0.61907   0.83332   0.24999   0.00000  Uiso   1.00
O475   O     0.46179   0.89442   0.25001   0.00000  Uiso   1.00
O476   O     0.53821   0.77225   0.25000   0.00000  Uiso   1.00
O477   O     0.53823   0.89441   0.25000   0.00000  Uiso   1.00
O478   O     0.46177   0.77226   0.25000   0.00000  Uiso   1.00
O479   O     0.43994   0.83334   0.31613   0.00000  Uiso   1.00
O480   O     0.56006   0.83333   0.18388   0.00000  Uiso   1.00
O481   O     0.51639   0.83333   0.31612   0.00000  Uiso   1.00
O482   O     0.48361   0.83334   0.18388   0.00000  Uiso   1.00
Zn483  Zn    0.44896   0.83334   0.25000   0.00000  Uiso   1.00
Zn484  Zn    0.55104   0.83333   0.25000   0.00000  Uiso   1.00
Cl485  Cl    0.64072   0.86774   0.10736   0.00000  Uiso   1.00
Cl486  Cl    0.35929   0.79892   0.39264   0.00000  Uiso   1.00
Br487  Br    0.66536   0.76819   0.49906   0.00000  Uiso   1.00
Br488  Br    0.33464   0.89848   0.00094   0.00000  Uiso   1.00
Br489  Br    0.46741   0.74373   0.07686   0.00000  Uiso   1.00
Br490  Br    0.53258   0.92294   0.42315   0.00000  Uiso   1.00
Cl491  Cl    0.46824   0.94964   0.34632   0.00000  Uiso   1.00
Cl492  Cl    0.53175   0.71703   0.15368   0.00000  Uiso   1.00
Br493  Br    0.46938   0.71828   0.35192   0.00000  Uiso   1.00
Br494  Br    0.53063   0.94839   0.14808   0.00000  Uiso   1.00
Cl495  Cl    0.64514   0.77594   0.17874   0.00000  Uiso   1.00
Cl496  Cl    0.35487   0.89073   0.32126   0.00000  Uiso   1.00
C497   C     0.83347   0.91318   0.24945   0.00000  Uiso   1.00
C498   C     0.83320   0.75348   0.25056   0.00000  Uiso   1.00
C499   C     0.79556   0.79052   0.03939   0.00000  Uiso   1.00
C500   C     0.87109   0.87615   0.46061   0.00000  Uiso   1.00
C501   C     0.75742   0.78698   0.02431   0.00000  Uiso   1.00
C502   C     0.90924   0.87969   0.47569   0.00000  Uiso   1.00
C503   C     0.81973   0.97807   0.29290   0.00000  Uiso   1.00
C504   C     0.84694   0.68860   0.20710   0.00000  Uiso   1.00
C505   C     0.82021   0.68816   0.29324   0.00000  Uiso   1.00
C506   C     0.84646   0.97850   0.20676   0.00000  Uiso   1.00
C507   C     0.83357   0.70937   0.25033   0.00000  Uiso   1.00
C508   C     0.83310   0.95730   0.24967   0.00000  Uiso   1.00
C509   C     0.98939   0.80849   0.21919   0.00000  Uiso   1.00
C510   C     0.67728   0.85818   0.28081   0.00000  Uiso   1.00
C511   C     0.70383   0.80854   0.21933   0.00000  Uiso   1.00
C512   C     0.96284   0.85813   0.28067   0.00000  Uiso   1.00
C513   C     0.80200   0.83290   0.33849   0.00000  Uiso   1.00
C514   C     0.86467   0.83377   0.16151   0.00000  Uiso   1.00
C515   C     0.78135   0.82984   0.39021   0.00000  Uiso   1.00
C516   C     0.88531   0.83683   0.10979   0.00000  Uiso   1.00
C517   C     0.72510   0.79910   0.46408   0.00000  Uiso   1.00
C518   C     0.94157   0.86756   0.03592   0.00000  Uiso   1.00
C519   C     0.73537   0.81128   0.41738   0.00000  Uiso   1.00
C520   C     0.93130   0.85539   0.08262   0.00000  Uiso   1.00
C521   C     0.81265   0.84123   0.41178   0.00000  Uiso   1.00
C522   C     0.85401   0.82544   0.08823   0.00000  Uiso   1.00
C523   C     0.80124   0.83319   0.45909   0.00000  Uiso   1.00
C524   C     0.86542   0.83348   0.04092   0.00000  Uiso   1.00
C525   C     0.75978   0.80766   0.48375   0.00000  Uiso   1.00
C526   C     0.90688   0.85901   0.01625   0.00000  Uiso   1.00
C527   C     0.83461   0.84436   0.47963   0.00000  Uiso   1.00
C528   C     0.83205   0.82231   0.02037   0.00000  Uiso   1.00
H529   H     0.72933   0.76372   0.04120   0.00000  Uiso   1.00
H530   H     0.93733   0.90296   0.45880   0.00000  Uiso   1.00
H531   H     0.81767   0.81423   0.11014   0.00000  Uiso   1.00
H532   H     0.84900   0.85244   0.38986   0.00000  Uiso   1.00
H533   H     0.73253   0.78870   0.19485   0.00000  Uiso   1.00
H534   H     0.93414   0.87797   0.30515   0.00000  Uiso   1.00
N535   N     0.71426   0.83334   0.25001   0.00000  Uiso   1.00
N536   N     0.95241   0.83332   0.24999   0.00000  Uiso   1.00
O537   O     0.79512   0.89442   0.25001   0.00000  Uiso   1.00
O538   O     0.87154   0.77225   0.25000   0.00000  Uiso   1.00
O539   O     0.87157   0.89441   0.25000   0.00000  Uiso   1.00
O540   O     0.79510   0.77226   0.25000   0.00000  Uiso   1.00
O541   O     0.77328   0.83334   0.31613   0.00000  Uiso   1.00
O542   O     0.89339   0.83333   0.18388   0.00000  Uiso   1.00
O543   O     0.84972   0.83333   0.31612   0.00000  Uiso   1.00
O544   O     0.81695   0.83334   0.18388   0.00000  Uiso   1.00
Zn545  Zn    0.78229   0.83334   0.25000   0.00000  Uiso   1.00
Zn546  Zn    0.88438   0.83333   0.25000   0.00000  Uiso   1.00
Cl547  Cl    0.97405   0.86774   0.10736   0.00000  Uiso   1.00
Cl548  Cl    0.69262   0.79892   0.39264   0.00000  Uiso   1.00
Br549  Br    0.99869   0.76819   0.49906   0.00000  Uiso   1.00
Br550  Br    0.66798   0.89848   0.00094   0.00000  Uiso   1.00
Br551  Br    0.80075   0.74373   0.07686   0.00000  Uiso   1.00
Br552  Br    0.86591   0.92294   0.42315   0.00000  Uiso   1.00
Cl553  Cl    0.80157   0.94964   0.34632   0.00000  Uiso   1.00
Cl554  Cl    0.86509   0.71703   0.15368   0.00000  Uiso   1.00
Br555  Br    0.80271   0.71828   0.35192   0.00000  Uiso   1.00
Br556  Br    0.86396   0.94839   0.14808   0.00000  Uiso   1.00
Cl557  Cl    0.97847   0.77594   0.17874   0.00000  Uiso   1.00
Cl558  Cl    0.68820   0.89073   0.32126   0.00000  Uiso   1.00
C559   C     0.16680   0.24652   0.74945   0.00000  Uiso   1.00
C560   C     0.16653   0.08682   0.75056   0.00000  Uiso   1.00
C561   C     0.12890   0.12385   0.53939   0.00000  Uiso   1.00
C562   C     0.20443   0.20949   0.96061   0.00000  Uiso   1.00
C563   C     0.09075   0.12031   0.52431   0.00000  Uiso   1.00
C564   C     0.24257   0.21303   0.97569   0.00000  Uiso   1.00
C565   C     0.15306   0.31140   0.79290   0.00000  Uiso   1.00
C566   C     0.18027   0.02193   0.70710   0.00000  Uiso   1.00
C567   C     0.15355   0.02150   0.79324   0.00000  Uiso   1.00
C568   C     0.17979   0.31184   0.70676   0.00000  Uiso   1.00
C569   C     0.16690   0.04270   0.75033   0.00000  Uiso   1.00
C570   C     0.16643   0.29063   0.74967   0.00000  Uiso   1.00
C571   C     0.32272   0.14182   0.71919   0.00000  Uiso   1.00
C572   C     0.01061   0.19151   0.78081   0.00000  Uiso   1.00
C573   C     0.03716   0.14187   0.71933   0.00000  Uiso   1.00
C574   C     0.29617   0.19146   0.78067   0.00000  Uiso   1.00
C575   C     0.13533   0.16623   0.83849   0.00000  Uiso   1.00
C576   C     0.19800   0.16710   0.66151   0.00000  Uiso   1.00
C577   C     0.11469   0.16317   0.89021   0.00000  Uiso   1.00
C578   C     0.21864   0.17016   0.60979   0.00000  Uiso   1.00
C579   C     0.05843   0.13244   0.96408   0.00000  Uiso   1.00
C580   C     0.27490   0.20090   0.53592   0.00000  Uiso   1.00
C581   C     0.06870   0.14461   0.91738   0.00000  Uiso   1.00
C582   C     0.26463   0.18872   0.58262   0.00000  Uiso   1.00
C583   C     0.14598   0.17456   0.91178   0.00000  Uiso   1.00
C584   C     0.18735   0.15877   0.58823   0.00000  Uiso   1.00
C585   C     0.13457   0.16652   0.95909   0.00000  Uiso   1.00
C586   C     0.19875   0.16682   0.54092   0.00000  Uiso   1.00
C587   C     0.09312   0.14100   0.98375   0.00000  Uiso   1.00
C588   C     0.24021   0.19234   0.51625   0.00000  Uiso   1.00
C589   C     0.16795   0.17769   0.97963   0.00000  Uiso   1.00
C590   C     0.16538   0.15565   0.52037   0.00000  Uiso   1.00
H591   H     0.06267   0.09705   0.54120   0.00000  Uiso   1.00
H592   H     0.27066   0.23629   0.95880   0.00000  Uiso   1.00
H593   H     0.15100   0.14756   0.61014   0.00000  Uiso   1.00
H594   H     0.18233   0.18577   0.88986   0.00000  Uiso   1.00
H595   H     0.06586   0.12203   0.69485   0.00000  Uiso   1.00
H596   H     0.26747   0.21130   0.80515   0.00000  Uiso   1.00
N597   N     0.04759   0.16668   0.75001   0.00000  Uiso   1.00
N598   N     0.28574   0.16666   0.74999   0.00000  Uiso   1.00
O599   O     0.12846   0.22775   0.75001   0.00000  Uiso   1.00
O600   O     0.20488   0.10558   0.75000   0.00000  Uiso   1.00
O601   O     0.20490   0.22774   0.75000   0.00000  Uiso   1.00
O602   O     0.12843   0.10559   0.75000   0.00000  Uiso   1.00
O603   O     0.10661   0.16667   0.81613   0.00000  Uiso   1.00
O604   O     0.22672   0.16666   0.68388   0.00000  Uiso   1.00
O605   O     0.18305   0.16666   0.81612   0.00000  Uiso   1.00
O606   O     0.15028   0.16667   0.68388   0.00000  Uiso   1.00
Zn607  Zn    0.11562   0.16667   0.75000   0.00000  Uiso   1.00
Zn608  Zn    0.21771   0.16666   0.75000   0.00000  Uiso   1.00
Cl609  Cl    0.30738   0.20107   0.60736   0.00000  Uiso   1.00
Cl610  Cl    0.02595   0.13225   0.89264   0.00000  Uiso   1.00
Br611  Br    0.33202   0.10152   0.99906   0.00000  Uiso   1.00
Br612  Br    0.00131   0.23181   0.50094   0.00000  Uiso   1.00
Br613  Br    0.13408   0.07707   0.57686   0.00000  Uiso   1.00
Br614  Br    0.19924   0.25627   0.92315   0.00000  Uiso   1.00
Cl615  Cl    0.13491   0.28297   0.84632   0.00000  Uiso   1.00
Cl616  Cl    0.19842   0.05036   0.65368   0.00000  Uiso   1.00
Br617  Br    0.13604   0.05161   0.85192   0.00000  Uiso   1.00
Br618  Br    0.19729   0.28172   0.64808   0.00000  Uiso   1.00
Cl619  Cl    0.31180   0.10927   0.67874   0.00000  Uiso   1.00
Cl620  Cl    0.02153   0.22406   0.82126   0.00000  Uiso   1.00
C621   C     0.50014   0.24652   0.74945   0.00000  Uiso   1.00
C622   C     0.49986   0.08682   0.75056   0.00000  Uiso   1.00
C623   C     0.46223   0.12385   0.53939   0.00000  Uiso   1.00
C624   C     0.53776   0.20949   0.96061   0.00000  Uiso   1.00
C625   C     0.42409   0.12031   0.52431   0.00000  Uiso   1.00
C626   C     0.57590   0.21303   0.97569   0.00000  Uiso   1.00
C627   C     0.48639   0.31140   0.79290   0.00000  Uiso   1.00
C628   C     0.51361   0.02193   0.70710   0.00000  Uiso   1.00
C629   C     0.48688   0.02150   0.79324   0.00000  Uiso   1.00
C630   C     0.51312   0.31184   0.70676   0.00000  Uiso   1.00
C631   C     0.50024   0.04270   0.75033   0.00000  Uiso   1.00
C632   C     0.49976   0.29063   0.74967   0.00000  Uiso   1.00
C633   C     0.65605   0.14182   0.71919   0.00000  Uiso   1.00
C634   C     0.34395   0.19151   0.78081   0.00000  Uiso   1.00
C635   C     0.37050   0.14187   0.71933   0.00000  Uiso   1.00
C636   C     0.62950   0.19146   0.78067   0.00000  Uiso   1.00
C637   C     0.46866   0.16623   0.83849   0.00000  Uiso   1.00
C638   C     0.53134   0.16710   0.66151   0.00000  Uiso   1.00
C639   C     0.44802   0.16317   0.89021   0.00000  Uiso   1.00
C640   C     0.55198   0.17016   0.60979   0.00000  Uiso   1.00
C641   C     0.39176   0.13244   0.96408   0.00000  Uiso   1.00
C642   C     0.60823   0.20090   0.53592   0.00000  Uiso   1.00
C643   C     0.40203   0.14461   0.91738   0.00000  Uiso   1.00
C644   C     0.59797   0.18872   0.58262   0.00000  Uiso   1.00
C645   C     0.47932   0.17456   0.91178   0.00000  Uiso   1.00
C646   C     0.52068   0.15877   0.58823   0.00000  Uiso   1.00
C647   C     0.46791   0.16652   0.95909   0.00000  Uiso   1.00
C648   C     0.53209   0.16682   0.54092   0.00000  Uiso   1.00
C649   C     0.42645   0.14100   0.98375   0.00000  Uiso   1.00
C650   C     0.57354   0.19234   0.51625   0.00000  Uiso   1.00
C651   C     0.50128   0.17769   0.97963   0.00000  Uiso   1.00
C652   C     0.49871   0.15565   0.52037   0.00000  Uiso   1.00
H653   H     0.39600   0.09705   0.54120   0.00000  Uiso   1.00
H654   H     0.60399   0.23629   0.95880   0.00000  Uiso   1.00
H655   H     0.48433   0.14756   0.61014   0.00000  Uiso   1.00
H656   H     0.51566   0.18577   0.88986   0.00000  Uiso   1.00
H657   H     0.39919   0.12203   0.69485   0.00000  Uiso   1.00
H658   H     0.60081   0.21130   0.80515   0.00000  Uiso   1.00
N659   N     0.38093   0.16668   0.75001   0.00000  Uiso   1.00
N660   N     0.61907   0.16666   0.74999   0.00000  Uiso   1.00
O661   O     0.46179   0.22775   0.75001   0.00000  Uiso   1.00
O662   O     0.53821   0.10558   0.75000   0.00000  Uiso   1.00
O663   O     0.53823   0.22774   0.75000   0.00000  Uiso   1.00
O664   O     0.46177   0.10559   0.75000   0.00000  Uiso   1.00
O665   O     0.43994   0.16667   0.81613   0.00000  Uiso   1.00
O666   O     0.56006   0.16666   0.68388   0.00000  Uiso   1.00
O667   O     0.51639   0.16666   0.81612   0.00000  Uiso   1.00
O668   O     0.48361   0.16667   0.68388   0.00000  Uiso   1.00
Zn669  Zn    0.44896   0.16667   0.75000   0.00000  Uiso   1.00
Zn670  Zn    0.55104   0.16666   0.75000   0.00000  Uiso   1.00
Cl671  Cl    0.64072   0.20107   0.60736   0.00000  Uiso   1.00
Cl672  Cl    0.35929   0.13225   0.89264   0.00000  Uiso   1.00
Br673  Br    0.66536   0.10152   0.99906   0.00000  Uiso   1.00
Br674  Br    0.33464   0.23181   0.50094   0.00000  Uiso   1.00
Br675  Br    0.46741   0.07707   0.57686   0.00000  Uiso   1.00
Br676  Br    0.53258   0.25627   0.92315   0.00000  Uiso   1.00
Cl677  Cl    0.46824   0.28297   0.84632   0.00000  Uiso   1.00
Cl678  Cl    0.53175   0.05036   0.65368   0.00000  Uiso   1.00
Br679  Br    0.46938   0.05161   0.85192   0.00000  Uiso   1.00
Br680  Br    0.53063   0.28172   0.64808   0.00000  Uiso   1.00
Cl681  Cl    0.64514   0.10927   0.67874   0.00000  Uiso   1.00
Cl682  Cl    0.35487   0.22406   0.82126   0.00000  Uiso   1.00
C683   C     0.83347   0.24652   0.74945   0.00000  Uiso   1.00
C684   C     0.83320   0.08682   0.75056   0.00000  Uiso   1.00
C685   C     0.79556   0.12385   0.53939   0.00000  Uiso   1.00
C686   C     0.87109   0.20949   0.96061   0.00000  Uiso   1.00
C687   C     0.75742   0.12031   0.52431   0.00000  Uiso   1.00
C688   C     0.90924   0.21303   0.97569   0.00000  Uiso   1.00
C689   C     0.81973   0.31140   0.79290   0.00000  Uiso   1.00
C690   C     0.84694   0.02193   0.70710   0.00000  Uiso   1.00
C691   C     0.82021   0.02150   0.79324   0.00000  Uiso   1.00
C692   C     0.84646   0.31184   0.70676   0.00000  Uiso   1.00
C693   C     0.83357   0.04270   0.75033   0.00000  Uiso   1.00
C694   C     0.83310   0.29063   0.74967   0.00000  Uiso   1.00
C695   C     0.98939   0.14182   0.71919   0.00000  Uiso   1.00
C696   C     0.67728   0.19151   0.78081   0.00000  Uiso   1.00
C697   C     0.70383   0.14187   0.71933   0.00000  Uiso   1.00
C698   C     0.96284   0.19146   0.78067   0.00000  Uiso   1.00
C699   C     0.80200   0.16623   0.83849   0.00000  Uiso   1.00
C700   C     0.86467   0.16710   0.66151   0.00000  Uiso   1.00
C701   C     0.78135   0.16317   0.89021   0.00000  Uiso   1.00
C702   C     0.88531   0.17016   0.60979   0.00000  Uiso   1.00
C703   C     0.72510   0.13244   0.96408   0.00000  Uiso   1.00
C704   C     0.94157   0.20090   0.53592   0.00000  Uiso   1.00
C705   C     0.73537   0.14461   0.91738   0.00000  Uiso   1.00
C706   C     0.93130   0.18872   0.58262   0.00000  Uiso   1.00
C707   C     0.81265   0.17456   0.91178   0.00000  Uiso   1.00
C708   C     0.85401   0.15877   0.58823   0.00000  Uiso   1.00
C709   C     0.80124   0.16652   0.95909   0.00000  Uiso   1.00
C710   C     0.86542   0.16682   0.54092   0.00000  Uiso   1.00
C711   C     0.75978   0.14100   0.98375   0.00000  Uiso   1.00
C712   C     0.90688   0.19234   0.51625   0.00000  Uiso   1.00
C713   C     0.83461   0.17769   0.97963   0.00000  Uiso   1.00
C714   C     0.83205   0.15565   0.52037   0.00000  Uiso   1.00
H715   H     0.72933   0.09705   0.54120   0.00000  Uiso   1.00
H716   H     0.93733   0.23629   0.95880   0.00000  Uiso   1.00
H717   H     0.81767   0.14756   0.61014   0.00000  Uiso   1.00
H718   H     0.84900   0.18577   0.88986   0.00000  Uiso   1.00
H719   H     0.73253   0.12203   0.69485   0.00000  Uiso   1.00
H720   H     0.93414   0.21130   0.80515   0.00000  Uiso   1.00
N721   N     0.71426   0.16668   0.75001   0.00000  Uiso   1.00
N722   N     0.95241   0.16666   0.74999   0.00000  Uiso   1.00
O723   O     0.79512   0.22775   0.75001   0.00000  Uiso   1.00
O724   O     0.87154   0.10558   0.75000   0.00000  Uiso   1.00
O725   O     0.87157   0.22774   0.75000   0.00000  Uiso   1.00
O726   O     0.79510   0.10559   0.75000   0.00000  Uiso   1.00
O727   O     0.77328   0.16667   0.81613   0.00000  Uiso   1.00
O728   O     0.89339   0.16666   0.68388   0.00000  Uiso   1.00
O729   O     0.84972   0.16666   0.81612   0.00000  Uiso   1.00
O730   O     0.81695   0.16667   0.68388   0.00000  Uiso   1.00
Zn731  Zn    0.78229   0.16667   0.75000   0.00000  Uiso   1.00
Zn732  Zn    0.88438   0.16666   0.75000   0.00000  Uiso   1.00
Cl733  Cl    0.97405   0.20107   0.60736   0.00000  Uiso   1.00
Cl734  Cl    0.69262   0.13225   0.89264   0.00000  Uiso   1.00
Br735  Br    0.99869   0.10152   0.99906   0.00000  Uiso   1.00
Br736  Br    0.66798   0.23181   0.50094   0.00000  Uiso   1.00
Br737  Br    0.80075   0.07707   0.57686   0.00000  Uiso   1.00
Br738  Br    0.86591   0.25627   0.92315   0.00000  Uiso   1.00
Cl739  Cl    0.80157   0.28297   0.84632   0.00000  Uiso   1.00
Cl740  Cl    0.86509   0.05036   0.65368   0.00000  Uiso   1.00
Br741  Br    0.80271   0.05161   0.85192   0.00000  Uiso   1.00
Br742  Br    0.86396   0.28172   0.64808   0.00000  Uiso   1.00
Cl743  Cl    0.97847   0.10927   0.67874   0.00000  Uiso   1.00
Cl744  Cl    0.68820   0.22406   0.82126   0.00000  Uiso   1.00
C745   C     0.16680   0.57985   0.74945   0.00000  Uiso   1.00
C746   C     0.16653   0.42015   0.75056   0.00000  Uiso   1.00
C747   C     0.12890   0.45719   0.53939   0.00000  Uiso   1.00
C748   C     0.20443   0.54282   0.96061   0.00000  Uiso   1.00
C749   C     0.09075   0.45364   0.52431   0.00000  Uiso   1.00
C750   C     0.24257   0.54636   0.97569   0.00000  Uiso   1.00
C751   C     0.15306   0.64474   0.79290   0.00000  Uiso   1.00
C752   C     0.18027   0.35526   0.70710   0.00000  Uiso   1.00
C753   C     0.15355   0.35483   0.79324   0.00000  Uiso   1.00
C754   C     0.17979   0.64517   0.70676   0.00000  Uiso   1.00
C755   C     0.16690   0.37603   0.75033   0.00000  Uiso   1.00
C756   C     0.16643   0.62397   0.74967   0.00000  Uiso   1.00
C757   C     0.32272   0.47516   0.71919   0.00000  Uiso   1.00
C758   C     0.01061   0.52484   0.78081   0.00000  Uiso   1.00
C759   C     0.03716   0.47520   0.71933   0.00000  Uiso   1.00
C760   C     0.29617   0.52480   0.78067   0.00000  Uiso   1.00
C761   C     0.13533   0.49957   0.83849   0.00000  Uiso   1.00
C762   C     0.19800   0.50043   0.66151   0.00000  Uiso   1.00
C763   C     0.11469   0.49650   0.89021   0.00000  Uiso   1.00
C764   C     0.21864   0.50350   0.60979   0.00000  Uiso   1.00
C765   C     0.05843   0.46577   0.96408   0.00000  Uiso   1.00
C766   C     0.27490   0.53423   0.53592   0.00000  Uiso   1.00
C767   C     0.06870   0.47794   0.91738   0.00000  Uiso   1.00
C768   C     0.26463   0.52205   0.58262   0.00000  Uiso   1.00
C769   C     0.14598   0.50789   0.91178   0.00000  Uiso   1.00
C770   C     0.18735   0.49211   0.58823   0.00000  Uiso   1.00
C771   C     0.13457   0.49985   0.95909   0.00000  Uiso   1.00
C772   C     0.19875   0.50015   0.54092   0.00000  Uiso   1.00
C773   C     0.09312   0.47433   0.98375   0.00000  Uiso   1.00
C774   C     0.24021   0.52567   0.51625   0.00000  Uiso   1.00
C775   C     0.16795   0.51103   0.97963   0.00000  Uiso   1.00
C776   C     0.16538   0.48898   0.52037   0.00000  Uiso   1.00
H777   H     0.06267   0.43038   0.54120   0.00000  Uiso   1.00
H778   H     0.27066   0.56962   0.95880   0.00000  Uiso   1.00
H779   H     0.15100   0.48090   0.61014   0.00000  Uiso   1.00
H780   H     0.18233   0.51910   0.88986   0.00000  Uiso   1.00
H781   H     0.06586   0.45537   0.69485   0.00000  Uiso   1.00
H782   H     0.26747   0.54463   0.80515   0.00000  Uiso   1.00
N783   N     0.04759   0.50001   0.75001   0.00000  Uiso   1.00
N784   N     0.28574   0.49999   0.74999   0.00000  Uiso   1.00
O785   O     0.12846   0.56108   0.75001   0.00000  Uiso   1.00
O786   O     0.20488   0.43892   0.75000   0.00000  Uiso   1.00
O787   O     0.20490   0.56107   0.75000   0.00000  Uiso   1.00
O788   O     0.12843   0.43893   0.75000   0.00000  Uiso   1.00
O789   O     0.10661   0.50001   0.81613   0.00000  Uiso   1.00
O790   O     0.22672   0.49999   0.68388   0.00000  Uiso   1.00
O791   O     0.18305   0.50000   0.81612   0.00000  Uiso   1.00
O792   O     0.15028   0.50000   0.68388   0.00000  Uiso   1.00
Zn793  Zn    0.11562   0.50001   0.75000   0.00000  Uiso   1.00
Zn794  Zn    0.21771   0.49999   0.75000   0.00000  Uiso   1.00
Cl795  Cl    0.30738   0.53441   0.60736   0.00000  Uiso   1.00
Cl796  Cl    0.02595   0.46559   0.89264   0.00000  Uiso   1.00
Br797  Br    0.33202   0.43485   0.99906   0.00000  Uiso   1.00
Br798  Br    0.00131   0.56515   0.50094   0.00000  Uiso   1.00
Br799  Br    0.13408   0.41040   0.57686   0.00000  Uiso   1.00
Br800  Br    0.19924   0.58960   0.92315   0.00000  Uiso   1.00
Cl801  Cl    0.13491   0.61630   0.84632   0.00000  Uiso   1.00
Cl802  Cl    0.19842   0.38370   0.65368   0.00000  Uiso   1.00
Br803  Br    0.13604   0.38494   0.85192   0.00000  Uiso   1.00
Br804  Br    0.19729   0.61506   0.64808   0.00000  Uiso   1.00
Cl805  Cl    0.31180   0.44260   0.67874   0.00000  Uiso   1.00
Cl806  Cl    0.02153   0.55740   0.82126   0.00000  Uiso   1.00
C807   C     0.50014   0.57985   0.74945   0.00000  Uiso   1.00
C808   C     0.49986   0.42015   0.75056   0.00000  Uiso   1.00
C809   C     0.46223   0.45719   0.53939   0.00000  Uiso   1.00
C810   C     0.53776   0.54282   0.96061   0.00000  Uiso   1.00
C811   C     0.42409   0.45364   0.52431   0.00000  Uiso   1.00
C812   C     0.57590   0.54636   0.97569   0.00000  Uiso   1.00
C813   C     0.48639   0.64474   0.79290   0.00000  Uiso   1.00
C814   C     0.51361   0.35526   0.70710   0.00000  Uiso   1.00
C815   C     0.48688   0.35483   0.79324   0.00000  Uiso   1.00
C816   C     0.51312   0.64517   0.70676   0.00000  Uiso   1.00
C817   C     0.50024   0.37603   0.75033   0.00000  Uiso   1.00
C818   C     0.49976   0.62397   0.74967   0.00000  Uiso   1.00
C819   C     0.65605   0.47516   0.71919   0.00000  Uiso   1.00
C820   C     0.34395   0.52484   0.78081   0.00000  Uiso   1.00
C821   C     0.37050   0.47520   0.71933   0.00000  Uiso   1.00
C822   C     0.62950   0.52480   0.78067   0.00000  Uiso   1.00
C823   C     0.46866   0.49957   0.83849   0.00000  Uiso   1.00
C824   C     0.53134   0.50043   0.66151   0.00000  Uiso   1.00
C825   C     0.44802   0.49650   0.89021   0.00000  Uiso   1.00
C826   C     0.55198   0.50350   0.60979   0.00000  Uiso   1.00
C827   C     0.39176   0.46577   0.96408   0.00000  Uiso   1.00
C828   C     0.60823   0.53423   0.53592   0.00000  Uiso   1.00
C829   C     0.40203   0.47794   0.91738   0.00000  Uiso   1.00
C830   C     0.59797   0.52205   0.58262   0.00000  Uiso   1.00
C831   C     0.47932   0.50789   0.91178   0.00000  Uiso   1.00
C832   C     0.52068   0.49211   0.58823   0.00000  Uiso   1.00
C833   C     0.46791   0.49985   0.95909   0.00000  Uiso   1.00
C834   C     0.53209   0.50015   0.54092   0.00000  Uiso   1.00
C835   C     0.42645   0.47433   0.98375   0.00000  Uiso   1.00
C836   C     0.57354   0.52567   0.51625   0.00000  Uiso   1.00
C837   C     0.50128   0.51103   0.97963   0.00000  Uiso   1.00
C838   C     0.49871   0.48898   0.52037   0.00000  Uiso   1.00
H839   H     0.39600   0.43038   0.54120   0.00000  Uiso   1.00
H840   H     0.60399   0.56962   0.95880   0.00000  Uiso   1.00
H841   H     0.48433   0.48090   0.61014   0.00000  Uiso   1.00
H842   H     0.51566   0.51910   0.88986   0.00000  Uiso   1.00
H843   H     0.39919   0.45537   0.69485   0.00000  Uiso   1.00
H844   H     0.60081   0.54463   0.80515   0.00000  Uiso   1.00
N845   N     0.38093   0.50001   0.75001   0.00000  Uiso   1.00
N846   N     0.61907   0.49999   0.74999   0.00000  Uiso   1.00
O847   O     0.46179   0.56108   0.75001   0.00000  Uiso   1.00
O848   O     0.53821   0.43892   0.75000   0.00000  Uiso   1.00
O849   O     0.53823   0.56107   0.75000   0.00000  Uiso   1.00
O850   O     0.46177   0.43893   0.75000   0.00000  Uiso   1.00
O851   O     0.43994   0.50001   0.81613   0.00000  Uiso   1.00
O852   O     0.56006   0.49999   0.68388   0.00000  Uiso   1.00
O853   O     0.51639   0.50000   0.81612   0.00000  Uiso   1.00
O854   O     0.48361   0.50000   0.68388   0.00000  Uiso   1.00
Zn855  Zn    0.44896   0.50001   0.75000   0.00000  Uiso   1.00
Zn856  Zn    0.55104   0.49999   0.75000   0.00000  Uiso   1.00
Cl857  Cl    0.64072   0.53441   0.60736   0.00000  Uiso   1.00
Cl858  Cl    0.35929   0.46559   0.89264   0.00000  Uiso   1.00
Br859  Br    0.66536   0.43485   0.99906   0.00000  Uiso   1.00
Br860  Br    0.33464   0.56515   0.50094   0.00000  Uiso   1.00
Br861  Br    0.46741   0.41040   0.57686   0.00000  Uiso   1.00
Br862  Br    0.53258   0.58960   0.92315   0.00000  Uiso   1.00
Cl863  Cl    0.46824   0.61630   0.84632   0.00000  Uiso   1.00
Cl864  Cl    0.53175   0.38370   0.65368   0.00000  Uiso   1.00
Br865  Br    0.46938   0.38494   0.85192   0.00000  Uiso   1.00
Br866  Br    0.53063   0.61506   0.64808   0.00000  Uiso   1.00
Cl867  Cl    0.64514   0.44260   0.67874   0.00000  Uiso   1.00
Cl868  Cl    0.35487   0.55740   0.82126   0.00000  Uiso   1.00
C869   C     0.83347   0.57985   0.74945   0.00000  Uiso   1.00
C870   C     0.83320   0.42015   0.75056   0.00000  Uiso   1.00
C871   C     0.79556   0.45719   0.53939   0.00000  Uiso   1.00
C872   C     0.87109   0.54282   0.96061   0.00000  Uiso   1.00
C873   C     0.75742   0.45364   0.52431   0.00000  Uiso   1.00
C874   C     0.90924   0.54636   0.97569   0.00000  Uiso   1.00
C875   C     0.81973   0.64474   0.79290   0.00000  Uiso   1.00
C876   C     0.84694   0.35526   0.70710   0.00000  Uiso   1.00
C877   C     0.82021   0.35483   0.79324   0.00000  Uiso   1.00
C878   C     0.84646   0.64517   0.70676   0.00000  Uiso   1.00
C879   C     0.83357   0.37603   0.75033   0.00000  Uiso   1.00
C880   C     0.83310   0.62397   0.74967   0.00000  Uiso   1.00
C881   C     0.98939   0.47516   0.71919   0.00000  Uiso   1.00
C882   C     0.67728   0.52484   0.78081   0.00000  Uiso   1.00
C883   C     0.70383   0.47520   0.71933   0.00000  Uiso   1.00
C884   C     0.96284   0.52480   0.78067   0.00000  Uiso   1.00
C885   C     0.80200   0.49957   0.83849   0.00000  Uiso   1.00
C886   C     0.86467   0.50043   0.66151   0.00000  Uiso   1.00
C887   C     0.78135   0.49650   0.89021   0.00000  Uiso   1.00
C888   C     0.88531   0.50350   0.60979   0.00000  Uiso   1.00
C889   C     0.72510   0.46577   0.96408   0.00000  Uiso   1.00
C890   C     0.94157   0.53423   0.53592   0.00000  Uiso   1.00
C891   C     0.73537   0.47794   0.91738   0.00000  Uiso   1.00
C892   C     0.93130   0.52205   0.58262   0.00000  Uiso   1.00
C893   C     0.81265   0.50789   0.91178   0.00000  Uiso   1.00
C894   C     0.85401   0.49211   0.58823   0.00000  Uiso   1.00
C895   C     0.80124   0.49985   0.95909   0.00000  Uiso   1.00
C896   C     0.86542   0.50015   0.54092   0.00000  Uiso   1.00
C897   C     0.75978   0.47433   0.98375   0.00000  Uiso   1.00
C898   C     0.90688   0.52567   0.51625   0.00000  Uiso   1.00
C899   C     0.83461   0.51103   0.97963   0.00000  Uiso   1.00
C900   C     0.83205   0.48898   0.52037   0.00000  Uiso   1.00
H901   H     0.72933   0.43038   0.54120   0.00000  Uiso   1.00
H902   H     0.93733   0.56962   0.95880   0.00000  Uiso   1.00
H903   H     0.81767   0.48090   0.61014   0.00000  Uiso   1.00
H904   H     0.84900   0.51910   0.88986   0.00000  Uiso   1.00
H905   H     0.73253   0.45537   0.69485   0.00000  Uiso   1.00
H906   H     0.93414   0.54463   0.80515   0.00000  Uiso   1.00
N907   N     0.71426   0.50001   0.75001   0.00000  Uiso   1.00
N908   N     0.95241   0.49999   0.74999   0.00000  Uiso   1.00
O909   O     0.79512   0.56108   0.75001   0.00000  Uiso   1.00
O910   O     0.87154   0.43892   0.75000   0.00000  Uiso   1.00
O911   O     0.87157   0.56107   0.75000   0.00000  Uiso   1.00
O912   O     0.79510   0.43893   0.75000   0.00000  Uiso   1.00
O913   O     0.77328   0.50001   0.81613   0.00000  Uiso   1.00
O914   O     0.89339   0.49999   0.68388   0.00000  Uiso   1.00
O915   O     0.84972   0.50000   0.81612   0.00000  Uiso   1.00
O916   O     0.81695   0.50000   0.68388   0.00000  Uiso   1.00
Zn917  Zn    0.78229   0.50001   0.75000   0.00000  Uiso   1.00
Zn918  Zn    0.88438   0.49999   0.75000   0.00000  Uiso   1.00
Cl919  Cl    0.97405   0.53441   0.60736   0.00000  Uiso   1.00
Cl920  Cl    0.69262   0.46559   0.89264   0.00000  Uiso   1.00
Br921  Br    0.99869   0.43485   0.99906   0.00000  Uiso   1.00
Br922  Br    0.66798   0.56515   0.50094   0.00000  Uiso   1.00
Br923  Br    0.80075   0.41040   0.57686   0.00000  Uiso   1.00
Br924  Br    0.86591   0.58960   0.92315   0.00000  Uiso   1.00
Cl925  Cl    0.80157   0.61630   0.84632   0.00000  Uiso   1.00
Cl926  Cl    0.86509   0.38370   0.65368   0.00000  Uiso   1.00
Br927  Br    0.80271   0.38494   0.85192   0.00000  Uiso   1.00
Br928  Br    0.86396   0.61506   0.64808   0.00000  Uiso   1.00
Cl929  Cl    0.97847   0.44260   0.67874   0.00000  Uiso   1.00
Cl930  Cl    0.68820   0.55740   0.82126   0.00000  Uiso   1.00
C931   C     0.16680   0.91318   0.74945   0.00000  Uiso   1.00
C932   C     0.16653   0.75348   0.75056   0.00000  Uiso   1.00
C933   C     0.12890   0.79052   0.53939   0.00000  Uiso   1.00
C934   C     0.20443   0.87615   0.96061   0.00000  Uiso   1.00
C935   C     0.09075   0.78698   0.52431   0.00000  Uiso   1.00
C936   C     0.24257   0.87969   0.97569   0.00000  Uiso   1.00
C937   C     0.15306   0.97807   0.79290   0.00000  Uiso   1.00
C938   C     0.18027   0.68860   0.70710   0.00000  Uiso   1.00
C939   C     0.15355   0.68816   0.79324   0.00000  Uiso   1.00
C940   C     0.17979   0.97850   0.70676   0.00000  Uiso   1.00
C941   C     0.16690   0.70937   0.75033   0.00000  Uiso   1.00
C942   C     0.16643   0.95730   0.74967   0.00000  Uiso   1.00
C943   C     0.32272   0.80849   0.71919   0.00000  Uiso   1.00
C944   C     0.01061   0.85818   0.78081   0.00000  Uiso   1.00
C945   C     0.03716   0.80854   0.71933   0.00000  Uiso   1.00
C946   C     0.29617   0.85813   0.78067   0.00000  Uiso   1.00
C947   C     0.13533   0.83290   0.83849   0.00000  Uiso   1.00
C948   C     0.19800   0.83377   0.66151   0.00000  Uiso   1.00
C949   C     0.11469   0.82984   0.89021   0.00000  Uiso   1.00
C950   C     0.21864   0.83683   0.60979   0.00000  Uiso   1.00
C951   C     0.05843   0.79910   0.96408   0.00000  Uiso   1.00
C952   C     0.27490   0.86756   0.53592   0.00000  Uiso   1.00
C953   C     0.06870   0.81128   0.91738   0.00000  Uiso   1.00
C954   C     0.26463   0.85539   0.58262   0.00000  Uiso   1.00
C955   C     0.14598   0.84123   0.91178   0.00000  Uiso   1.00
C956   C     0.18735   0.82544   0.58823   0.00000  Uiso   1.00
C957   C     0.13457   0.83319   0.95909   0.00000  Uiso   1.00
C958   C     0.19875   0.83348   0.54092   0.00000  Uiso   1.00
C959   C     0.09312   0.80766   0.98375   0.00000  Uiso   1.00
C960   C     0.24021   0.85901   0.51625   0.00000  Uiso   1.00
C961   C     0.16795   0.84436   0.97963   0.00000  Uiso   1.00
C962   C     0.16538   0.82231   0.52037   0.00000  Uiso   1.00
H963   H     0.06267   0.76372   0.54120   0.00000  Uiso   1.00
H964   H     0.27066   0.90296   0.95880   0.00000  Uiso   1.00
H965   H     0.15100   0.81423   0.61014   0.00000  Uiso   1.00
H966   H     0.18233   0.85244   0.88986   0.00000  Uiso   1.00
H967   H     0.06586   0.78870   0.69485   0.00000  Uiso   1.00
H968   H     0.26747   0.87797   0.80515   0.00000  Uiso   1.00
N969   N     0.04759   0.83334   0.75001   0.00000  Uiso   1.00
N970   N     0.28574   0.83332   0.74999   0.00000  Uiso   1.00
O971   O     0.12846   0.89442   0.75001   0.00000  Uiso   1.00
O972   O     0.20488   0.77225   0.75000   0.00000  Uiso   1.00
O973   O     0.20490   0.89441   0.75000   0.00000  Uiso   1.00
O974   O     0.12843   0.77226   0.75000   0.00000  Uiso   1.00
O975   O     0.10661   0.83334   0.81613   0.00000  Uiso   1.00
O976   O     0.22672   0.83333   0.68388   0.00000  Uiso   1.00
O977   O     0.18305   0.83333   0.81612   0.00000  Uiso   1.00
O978   O     0.15028   0.83334   0.68388   0.00000  Uiso   1.00
Zn979  Zn    0.11562   0.83334   0.75000   0.00000  Uiso   1.00
Zn980  Zn    0.21771   0.83333   0.75000   0.00000  Uiso   1.00
Cl981  Cl    0.30738   0.86774   0.60736   0.00000  Uiso   1.00
Cl982  Cl    0.02595   0.79892   0.89264   0.00000  Uiso   1.00
Br983  Br    0.33202   0.76819   0.99906   0.00000  Uiso   1.00
Br984  Br    0.00131   0.89848   0.50094   0.00000  Uiso   1.00
Br985  Br    0.13408   0.74373   0.57686   0.00000  Uiso   1.00
Br986  Br    0.19924   0.92294   0.92315   0.00000  Uiso   1.00
Cl987  Cl    0.13491   0.94964   0.84632   0.00000  Uiso   1.00
Cl988  Cl    0.19842   0.71703   0.65368   0.00000  Uiso   1.00
Br989  Br    0.13604   0.71828   0.85192   0.00000  Uiso   1.00
Br990  Br    0.19729   0.94839   0.64808   0.00000  Uiso   1.00
Cl991  Cl    0.31180   0.77594   0.67874   0.00000  Uiso   1.00
Cl992  Cl    0.02153   0.89073   0.82126   0.00000  Uiso   1.00
C993   C     0.50014   0.91318   0.74945   0.00000  Uiso   1.00
C994   C     0.49986   0.75348   0.75056   0.00000  Uiso   1.00
C995   C     0.46223   0.79052   0.53939   0.00000  Uiso   1.00
C996   C     0.53776   0.87615   0.96061   0.00000  Uiso   1.00
C997   C     0.42409   0.78698   0.52431   0.00000  Uiso   1.00
C998   C     0.57590   0.87969   0.97569   0.00000  Uiso   1.00
C999   C     0.48639   0.97807   0.79290   0.00000  Uiso   1.00
C1000  C     0.51361   0.68860   0.70710   0.00000  Uiso   1.00
C1001  C     0.48688   0.68816   0.79324   0.00000  Uiso   1.00
C1002  C     0.51312   0.97850   0.70676   0.00000  Uiso   1.00
C1003  C     0.50024   0.70937   0.75033   0.00000  Uiso   1.00
C1004  C     0.49976   0.95730   0.74967   0.00000  Uiso   1.00
C1005  C     0.65605   0.80849   0.71919   0.00000  Uiso   1.00
C1006  C     0.34395   0.85818   0.78081   0.00000  Uiso   1.00
C1007  C     0.37050   0.80854   0.71933   0.00000  Uiso   1.00
C1008  C     0.62950   0.85813   0.78067   0.00000  Uiso   1.00
C1009  C     0.46866   0.83290   0.83849   0.00000  Uiso   1.00
C1010  C     0.53134   0.83377   0.66151   0.00000  Uiso   1.00
C1011  C     0.44802   0.82984   0.89021   0.00000  Uiso   1.00
C1012  C     0.55198   0.83683   0.60979   0.00000  Uiso   1.00
C1013  C     0.39176   0.79910   0.96408   0.00000  Uiso   1.00
C1014  C     0.60823   0.86756   0.53592   0.00000  Uiso   1.00
C1015  C     0.40203   0.81128   0.91738   0.00000  Uiso   1.00
C1016  C     0.59797   0.85539   0.58262   0.00000  Uiso   1.00
C1017  C     0.47932   0.84123   0.91178   0.00000  Uiso   1.00
C1018  C     0.52068   0.82544   0.58823   0.00000  Uiso   1.00
C1019  C     0.46791   0.83319   0.95909   0.00000  Uiso   1.00
C1020  C     0.53209   0.83348   0.54092   0.00000  Uiso   1.00
C1021  C     0.42645   0.80766   0.98375   0.00000  Uiso   1.00
C1022  C     0.57354   0.85901   0.51625   0.00000  Uiso   1.00
C1023  C     0.50128   0.84436   0.97963   0.00000  Uiso   1.00
C1024  C     0.49871   0.82231   0.52037   0.00000  Uiso   1.00
H1025  H     0.39600   0.76372   0.54120   0.00000  Uiso   1.00
H1026  H     0.60399   0.90296   0.95880   0.00000  Uiso   1.00
H1027  H     0.48433   0.81423   0.61014   0.00000  Uiso   1.00
H1028  H     0.51566   0.85244   0.88986   0.00000  Uiso   1.00
H1029  H     0.39919   0.78870   0.69485   0.00000  Uiso   1.00
H1030  H     0.60081   0.87797   0.80515   0.00000  Uiso   1.00
N1031  N     0.38093   0.83334   0.75001   0.00000  Uiso   1.00
N1032  N     0.61907   0.83332   0.74999   0.00000  Uiso   1.00
O1033  O     0.46179   0.89442   0.75001   0.00000  Uiso   1.00
O1034  O     0.53821   0.77225   0.75000   0.00000  Uiso   1.00
O1035  O     0.53823   0.89441   0.75000   0.00000  Uiso   1.00
O1036  O     0.46177   0.77226   0.75000   0.00000  Uiso   1.00
O1037  O     0.43994   0.83334   0.81613   0.00000  Uiso   1.00
O1038  O     0.56006   0.83333   0.68388   0.00000  Uiso   1.00
O1039  O     0.51639   0.83333   0.81612   0.00000  Uiso   1.00
O1040  O     0.48361   0.83334   0.68388   0.00000  Uiso   1.00
Zn1041 Zn    0.44896   0.83334   0.75000   0.00000  Uiso   1.00
Zn1042 Zn    0.55104   0.83333   0.75000   0.00000  Uiso   1.00
Cl1043 Cl    0.64072   0.86774   0.60736   0.00000  Uiso   1.00
Cl1044 Cl    0.35929   0.79892   0.89264   0.00000  Uiso   1.00
Br1045 Br    0.66536   0.76819   0.99906   0.00000  Uiso   1.00
Br1046 Br    0.33464   0.89848   0.50094   0.00000  Uiso   1.00
Br1047 Br    0.46741   0.74373   0.57686   0.00000  Uiso   1.00
Br1048 Br    0.53258   0.92294   0.92315   0.00000  Uiso   1.00
Cl1049 Cl    0.46824   0.94964   0.84632   0.00000  Uiso   1.00
Cl1050 Cl    0.53175   0.71703   0.65368   0.00000  Uiso   1.00
Br1051 Br    0.46938   0.71828   0.85192   0.00000  Uiso   1.00
Br1052 Br    0.53063   0.94839   0.64808   0.00000  Uiso   1.00
Cl1053 Cl    0.64514   0.77594   0.67874   0.00000  Uiso   1.00
Cl1054 Cl    0.35487   0.89073   0.82126   0.00000  Uiso   1.00
C1055  C     0.83347   0.91318   0.74945   0.00000  Uiso   1.00
C1056  C     0.83320   0.75348   0.75056   0.00000  Uiso   1.00
C1057  C     0.79556   0.79052   0.53939   0.00000  Uiso   1.00
C1058  C     0.87109   0.87615   0.96061   0.00000  Uiso   1.00
C1059  C     0.75742   0.78698   0.52431   0.00000  Uiso   1.00
C1060  C     0.90924   0.87969   0.97569   0.00000  Uiso   1.00
C1061  C     0.81973   0.97807   0.79290   0.00000  Uiso   1.00
C1062  C     0.84694   0.68860   0.70710   0.00000  Uiso   1.00
C1063  C     0.82021   0.68816   0.79324   0.00000  Uiso   1.00
C1064  C     0.84646   0.97850   0.70676   0.00000  Uiso   1.00
C1065  C     0.83357   0.70937   0.75033   0.00000  Uiso   1.00
C1066  C     0.83310   0.95730   0.74967   0.00000  Uiso   1.00
C1067  C     0.98939   0.80849   0.71919   0.00000  Uiso   1.00
C1068  C     0.67728   0.85818   0.78081   0.00000  Uiso   1.00
C1069  C     0.70383   0.80854   0.71933   0.00000  Uiso   1.00
C1070  C     0.96284   0.85813   0.78067   0.00000  Uiso   1.00
C1071  C     0.80200   0.83290   0.83849   0.00000  Uiso   1.00
C1072  C     0.86467   0.83377   0.66151   0.00000  Uiso   1.00
C1073  C     0.78135   0.82984   0.89021   0.00000  Uiso   1.00
C1074  C     0.88531   0.83683   0.60979   0.00000  Uiso   1.00
C1075  C     0.72510   0.79910   0.96408   0.00000  Uiso   1.00
C1076  C     0.94157   0.86756   0.53592   0.00000  Uiso   1.00
C1077  C     0.73537   0.81128   0.91738   0.00000  Uiso   1.00
C1078  C     0.93130   0.85539   0.58262   0.00000  Uiso   1.00
C1079  C     0.81265   0.84123   0.91178   0.00000  Uiso   1.00
C1080  C     0.85401   0.82544   0.58823   0.00000  Uiso   1.00
C1081  C     0.80124   0.83319   0.95909   0.00000  Uiso   1.00
C1082  C     0.86542   0.83348   0.54092   0.00000  Uiso   1.00
C1083  C     0.75978   0.80766   0.98375   0.00000  Uiso   1.00
C1084  C     0.90688   0.85901   0.51625   0.00000  Uiso   1.00
C1085  C     0.83461   0.84436   0.97963   0.00000  Uiso   1.00
C1086  C     0.83205   0.82231   0.52037   0.00000  Uiso   1.00
H1087  H     0.72933   0.76372   0.54120   0.00000  Uiso   1.00
H1088  H     0.93733   0.90296   0.95880   0.00000  Uiso   1.00
H1089  H     0.81767   0.81423   0.61014   0.00000  Uiso   1.00
H1090  H     0.84900   0.85244   0.88986   0.00000  Uiso   1.00
H1091  H     0.73253   0.78870   0.69485   0.00000  Uiso   1.00
H1092  H     0.93414   0.87797   0.80515   0.00000  Uiso   1.00
N1093  N     0.71426   0.83334   0.75001   0.00000  Uiso   1.00
N1094  N     0.95241   0.83332   0.74999   0.00000  Uiso   1.00
O1095  O     0.79512   0.89442   0.75001   0.00000  Uiso   1.00
O1096  O     0.87154   0.77225   0.75000   0.00000  Uiso   1.00
O1097  O     0.87157   0.89441   0.75000   0.00000  Uiso   1.00
O1098  O     0.79510   0.77226   0.75000   0.00000  Uiso   1.00
O1099  O     0.77328   0.83334   0.81613   0.00000  Uiso   1.00
O1100  O     0.89339   0.83333   0.68388   0.00000  Uiso   1.00
O1101  O     0.84972   0.83333   0.81612   0.00000  Uiso   1.00
O1102  O     0.81695   0.83334   0.68388   0.00000  Uiso   1.00
Zn1103 Zn    0.78229   0.83334   0.75000   0.00000  Uiso   1.00
Zn1104 Zn    0.88438   0.83333   0.75000   0.00000  Uiso   1.00
Cl1105 Cl    0.97405   0.86774   0.60736   0.00000  Uiso   1.00
Cl1106 Cl    0.69262   0.79892   0.89264   0.00000  Uiso   1.00
Br1107 Br    0.99869   0.76819   0.99906   0.00000  Uiso   1.00
Br1108 Br    0.66798   0.89848   0.50094   0.00000  Uiso   1.00
Br1109 Br    0.80075   0.74373   0.57686   0.00000  Uiso   1.00
Br1110 Br    0.86591   0.92294   0.92315   0.00000  Uiso   1.00
Cl1111 Cl    0.80157   0.94964   0.84632   0.00000  Uiso   1.00
Cl1112 Cl    0.86509   0.71703   0.65368   0.00000  Uiso   1.00
Br1113 Br    0.80271   0.71828   0.85192   0.00000  Uiso   1.00
Br1114 Br    0.86396   0.94839   0.64808   0.00000  Uiso   1.00
Cl1115 Cl    0.97847   0.77594   0.67874   0.00000  Uiso   1.00
Cl1116 Cl    0.68820   0.89073   0.82126   0.00000  Uiso   1.00
loop_
_geom_bond_atom_site_label_1
_geom_bond_atom_site_label_2
_geom_bond_distance
_geom_bond_site_symmetry_2
_ccdc_geom_bond_type
C1     C12     1.404   .     S
C1     O41     1.279   .     A
C1     O43     1.280   .     A
C2     O42     1.279   .     A
C2     C11     1.404   .     S
C2     O44     1.280   .     A
C3     C5      1.390   .     A
C3     C32     1.426   .     A
C3     Br55    1.931   .     S
C4     Br56    1.931   .     S
C4     C31     1.426   .     A
C4     C6      1.390   .     A
C5     H33     1.081   .     S
C5     C587    1.396   1_554 S
C6     H34     1.081   .     S
C6     C588    1.395   .     S
C7     C12     1.399   .     A
C7     Cl57    1.771   .     S
C7     C195    1.382   .     S
C8     C11     1.399   .     A
C8     Cl58    1.771   .     S
C8     C382    1.382   1_545 S
C9     C11     1.400   .     A
C9     Br59    1.930   .     S
C9     C379    1.382   1_545 S
C10    Br60    1.930   .     S
C10    C12     1.400   .     A
C10    C194    1.382   .     S
C13    Cl61    1.754   .     S
C13    N40     1.372   .     A
C13    C77     1.416   .     S
C14    Cl62    1.754   .     S
C14    N39     1.372   .     A
C14    C140    1.416   1_455 S
C15    N39     1.364   .     A
C15    H37     1.082   .     S
C15    C137    1.416   1_455 S
C16    H38     1.082   .     S
C16    N40     1.364   .     A
C16    C76     1.416   .     S
C17    C19     1.471   .     S
C17    O47     1.299   .     A
C17    O45     1.295   .     A
C18    C20     1.471   .     S
C18    O46     1.295   .     A
C18    O48     1.299   .     A
C19    C25     1.392   .     A
C19    C23     1.413   .     A
C20    C26     1.392   .     A
C20    C24     1.413   .     A
C21    C29     1.416   .     A
C21    C23     1.408   .     A
C21    Br177   1.935   1_455 S
C22    C24     1.408   .     A
C22    C30     1.416   .     A
C22    Br116   1.935   .     S
C23    Cl52    1.769   .     S
C24    Cl51    1.769   .     S
C25    C27     1.389   .     A
C25    H36     1.078   .     S
C26    C28     1.389   .     A
C26    H35     1.078   .     S
C27    C29     1.416   .     A
C27    C31     1.420   .     A
C28    C30     1.416   .     A
C28    C32     1.420   .     A
C29    C563    1.396   .     S
C30    C564    1.395   1_554 S
C31    C590    1.419   .     S
C32    C589    1.419   1_554 S
N39    Zn49    2.014   .     S
N40    Zn50    2.014   .     S
O41    Zn49    1.982   .     S
O42    Zn50    1.982   .     S
O43    Zn50    1.979   .     S
O44    Zn49    1.979   .     S
O45    Zn49    1.956   .     S
O46    Zn50    1.956   .     S
O47    Zn50    1.886   .     S
O48    Zn49    1.886   .     S
Br53   C83     1.935   .     S
Br54   C146    1.935   1_455 S
C63    C74     1.404   .     S
C63    O103    1.279   .     A
C63    O105    1.280   .     A
C64    O104    1.279   .     A
C64    C73     1.404   .     S
C64    O106    1.280   .     A
C65    C67     1.390   .     A
C65    C94     1.426   .     A
C65    Br117   1.931   .     S
C66    Br118   1.931   .     S
C66    C93     1.426   .     A
C66    C68     1.390   .     A
C67    H95     1.081   .     S
C67    C649    1.396   1_554 S
C68    H96     1.081   .     S
C68    C650    1.395   .     S
C69    C74     1.399   .     A
C69    Cl119   1.771   .     S
C69    C257    1.382   .     S
C70    C73     1.399   .     A
C70    Cl120   1.771   .     S
C70    C444    1.382   1_545 S
C71    C73     1.400   .     A
C71    Br121   1.930   .     S
C71    C441    1.382   1_545 S
C72    Br122   1.930   .     S
C72    C74     1.400   .     A
C72    C256    1.382   .     S
C75    Cl123   1.754   .     S
C75    N102    1.372   .     A
C75    C139    1.416   .     S
C76    Cl124   1.754   .     S
C76    N101    1.372   .     A
C77    N101    1.364   .     A
C77    H99     1.082   .     S
C78    H100    1.082   .     S
C78    N102    1.364   .     A
C78    C138    1.416   .     S
C79    C81     1.471   .     S
C79    O109    1.299   .     A
C79    O107    1.295   .     A
C80    C82     1.471   .     S
C80    O108    1.295   .     A
C80    O110    1.299   .     A
C81    C87     1.392   .     A
C81    C85     1.413   .     A
C82    C88     1.392   .     A
C82    C86     1.413   .     A
C83    C91     1.416   .     A
C83    C85     1.408   .     A
C84    C86     1.408   .     A
C84    C92     1.416   .     A
C84    Br178   1.935   .     S
C85    Cl114   1.769   .     S
C86    Cl113   1.769   .     S
C87    C89     1.389   .     A
C87    H98     1.078   .     S
C88    C90     1.389   .     A
C88    H97     1.078   .     S
C89    C91     1.416   .     A
C89    C93     1.420   .     A
C90    C92     1.416   .     A
C90    C94     1.420   .     A
C91    C625    1.396   .     S
C92    C626    1.395   1_554 S
C93    C652    1.419   .     S
C94    C651    1.419   1_554 S
N101   Zn111   2.014   .     S
N102   Zn112   2.014   .     S
O103   Zn111   1.982   .     S
O104   Zn112   1.982   .     S
O105   Zn112   1.979   .     S
O106   Zn111   1.979   .     S
O107   Zn111   1.956   .     S
O108   Zn112   1.956   .     S
O109   Zn112   1.886   .     S
O110   Zn111   1.886   .     S
Br115  C145    1.935   .     S
C125   C136    1.404   .     S
C125   O165    1.279   .     A
C125   O167    1.280   .     A
C126   O166    1.279   .     A
C126   C135    1.404   .     S
C126   O168    1.280   .     A
C127   C129    1.390   .     A
C127   C156    1.426   .     A
C127   Br179   1.931   .     S
C128   Br180   1.931   .     S
C128   C155    1.426   .     A
C128   C130    1.390   .     A
C129   H157    1.081   .     S
C129   C711    1.396   1_554 S
C130   H158    1.081   .     S
C130   C712    1.395   .     S
C131   C136    1.399   .     A
C131   Cl181   1.771   .     S
C131   C319    1.382   .     S
C132   C135    1.399   .     A
C132   Cl182   1.771   .     S
C132   C506    1.382   1_545 S
C133   C135    1.400   .     A
C133   Br183   1.930   .     S
C133   C503    1.382   1_545 S
C134   Br184   1.930   .     S
C134   C136    1.400   .     A
C134   C318    1.382   .     S
C137   Cl185   1.754   .     S
C137   N164    1.372   .     A
C137   C15     1.416   1_655 S
C138   Cl186   1.754   .     S
C138   N163    1.372   .     A
C139   N163    1.364   .     A
C139   H161    1.082   .     S
C140   H162    1.082   .     S
C140   N164    1.364   .     A
C140   C14     1.416   1_655 S
C141   C143    1.471   .     S
C141   O171    1.299   .     A
C141   O169    1.295   .     A
C142   C144    1.471   .     S
C142   O170    1.295   .     A
C142   O172    1.299   .     A
C143   C149    1.392   .     A
C143   C147    1.413   .     A
C144   C150    1.392   .     A
C144   C148    1.413   .     A
C145   C153    1.416   .     A
C145   C147    1.408   .     A
C146   C148    1.408   .     A
C146   C154    1.416   .     A
C146   Br54    1.935   1_655 S
C147   Cl176   1.769   .     S
C148   Cl175   1.769   .     S
C149   C151    1.389   .     A
C149   H160    1.078   .     S
C150   C152    1.389   .     A
C150   H159    1.078   .     S
C151   C153    1.416   .     A
C151   C155    1.420   .     A
C152   C154    1.416   .     A
C152   C156    1.420   .     A
C153   C687    1.396   .     S
C154   C688    1.395   1_554 S
C155   C714    1.419   .     S
C156   C713    1.419   1_554 S
N163   Zn173   2.014   .     S
N164   Zn174   2.014   .     S
O165   Zn173   1.982   .     S
O166   Zn174   1.982   .     S
O167   Zn174   1.979   .     S
O168   Zn173   1.979   .     S
O169   Zn173   1.956   .     S
O170   Zn174   1.956   .     S
O171   Zn174   1.886   .     S
O172   Zn173   1.886   .     S
Br177  C21     1.935   1_655 S
C187   C198    1.404   .     S
C187   O227    1.279   .     A
C187   O229    1.280   .     A
C188   O228    1.279   .     A
C188   C197    1.404   .     S
C188   O230    1.280   .     A
C189   C191    1.390   .     A
C189   C218    1.426   .     A
C189   Br241   1.931   .     S
C190   Br242   1.931   .     S
C190   C217    1.426   .     A
C190   C192    1.390   .     A
C191   H219    1.081   .     S
C191   C773    1.396   1_554 S
C192   H220    1.081   .     S
C192   C774    1.395   .     S
C193   C198    1.399   .     A
C193   Cl243   1.771   .     S
C193   C381    1.382   .     S
C194   C197    1.399   .     A
C194   Cl244   1.771   .     S
C195   C197    1.400   .     A
C195   Br245   1.930   .     S
C196   Br246   1.930   .     S
C196   C198    1.400   .     A
C196   C380    1.382   .     S
C199   Cl247   1.754   .     S
C199   N226    1.372   .     A
C199   C263    1.416   .     S
C200   Cl248   1.754   .     S
C200   N225    1.372   .     A
C200   C326    1.416   1_455 S
C201   N225    1.364   .     A
C201   H223    1.082   .     S
C201   C323    1.416   1_455 S
C202   H224    1.082   .     S
C202   N226    1.364   .     A
C202   C262    1.416   .     S
C203   C205    1.471   .     S
C203   O233    1.299   .     A
C203   O231    1.295   .     A
C204   C206    1.471   .     S
C204   O232    1.295   .     A
C204   O234    1.299   .     A
C205   C211    1.392   .     A
C205   C209    1.413   .     A
C206   C212    1.392   .     A
C206   C210    1.413   .     A
C207   C215    1.416   .     A
C207   C209    1.408   .     A
C207   Br363   1.935   1_455 S
C208   C210    1.408   .     A
C208   C216    1.416   .     A
C208   Br302   1.935   .     S
C209   Cl238   1.769   .     S
C210   Cl237   1.769   .     S
C211   C213    1.389   .     A
C211   H222    1.078   .     S
C212   C214    1.389   .     A
C212   H221    1.078   .     S
C213   C215    1.416   .     A
C213   C217    1.420   .     A
C214   C216    1.416   .     A
C214   C218    1.420   .     A
C215   C749    1.396   .     S
C216   C750    1.395   1_554 S
C217   C776    1.419   .     S
C218   C775    1.419   1_554 S
N225   Zn235   2.014   .     S
N226   Zn236   2.014   .     S
O227   Zn235   1.982   .     S
O228   Zn236   1.982   .     S
O229   Zn236   1.979   .     S
O230   Zn235   1.979   .     S
O231   Zn235   1.956   .     S
O232   Zn236   1.956   .     S
O233   Zn236   1.886   .     S
O234   Zn235   1.886   .     S
Br239  C269    1.935   .     S
Br240  C332    1.935   1_455 S
C249   C260    1.404   .     S
C249   O289    1.279   .     A
C249   O291    1.280   .     A
C250   O290    1.279   .     A
C250   C259    1.404   .     S
C250   O292    1.280   .     A
C251   C253    1.390   .     A
C251   C280    1.426   .     A
C251   Br303   1.931   .     S
C252   Br304   1.931   .     S
C252   C279    1.426   .     A
C252   C254    1.390   .     A
C253   H281    1.081   .     S
C253   C835    1.396   1_554 S
C254   H282    1.081   .     S
C254   C836    1.395   .     S
C255   C260    1.399   .     A
C255   Cl305   1.771   .     S
C255   C443    1.382   .     S
C256   C259    1.399   .     A
C256   Cl306   1.771   .     S
C257   C259    1.400   .     A
C257   Br307   1.930   .     S
C258   Br308   1.930   .     S
C258   C260    1.400   .     A
C258   C442    1.382   .     S
C261   Cl309   1.754   .     S
C261   N288    1.372   .     A
C261   C325    1.416   .     S
C262   Cl310   1.754   .     S
C262   N287    1.372   .     A
C263   N287    1.364   .     A
C263   H285    1.082   .     S
C264   H286    1.082   .     S
C264   N288    1.364   .     A
C264   C324    1.416   .     S
C265   C267    1.471   .     S
C265   O295    1.299   .     A
C265   O293    1.295   .     A
C266   C268    1.471   .     S
C266   O294    1.295   .     A
C266   O296    1.299   .     A
C267   C273    1.392   .     A
C267   C271    1.413   .     A
C268   C274    1.392   .     A
C268   C272    1.413   .     A
C269   C277    1.416   .     A
C269   C271    1.408   .     A
C270   C272    1.408   .     A
C270   C278    1.416   .     A
C270   Br364   1.935   .     S
C271   Cl300   1.769   .     S
C272   Cl299   1.769   .     S
C273   C275    1.389   .     A
C273   H284    1.078   .     S
C274   C276    1.389   .     A
C274   H283    1.078   .     S
C275   C277    1.416   .     A
C275   C279    1.420   .     A
C276   C278    1.416   .     A
C276   C280    1.420   .     A
C277   C811    1.396   .     S
C278   C812    1.395   1_554 S
C279   C838    1.419   .     S
C280   C837    1.419   1_554 S
N287   Zn297   2.014   .     S
N288   Zn298   2.014   .     S
O289   Zn297   1.982   .     S
O290   Zn298   1.982   .     S
O291   Zn298   1.979   .     S
O292   Zn297   1.979   .     S
O293   Zn297   1.956   .     S
O294   Zn298   1.956   .     S
O295   Zn298   1.886   .     S
O296   Zn297   1.886   .     S
Br301  C331    1.935   .     S
C311   C322    1.404   .     S
C311   O351    1.279   .     A
C311   O353    1.280   .     A
C312   O352    1.279   .     A
C312   C321    1.404   .     S
C312   O354    1.280   .     A
C313   C315    1.390   .     A
C313   C342    1.426   .     A
C313   Br365   1.931   .     S
C314   Br366   1.931   .     S
C314   C341    1.426   .     A
C314   C316    1.390   .     A
C315   H343    1.081   .     S
C315   C897    1.396   1_554 S
C316   H344    1.081   .     S
C316   C898    1.395   .     S
C317   C322    1.399   .     A
C317   Cl367   1.771   .     S
C317   C505    1.382   .     S
C318   C321    1.399   .     A
C318   Cl368   1.771   .     S
C319   C321    1.400   .     A
C319   Br369   1.930   .     S
C320   Br370   1.930   .     S
C320   C322    1.400   .     A
C320   C504    1.382   .     S
C323   Cl371   1.754   .     S
C323   N350    1.372   .     A
C323   C201    1.416   1_655 S
C324   Cl372   1.754   .     S
C324   N349    1.372   .     A
C325   N349    1.364   .     A
C325   H347    1.082   .     S
C326   H348    1.082   .     S
C326   N350    1.364   .     A
C326   C200    1.416   1_655 S
C327   C329    1.471   .     S
C327   O357    1.299   .     A
C327   O355    1.295   .     A
C328   C330    1.471   .     S
C328   O356    1.295   .     A
C328   O358    1.299   .     A
C329   C335    1.392   .     A
C329   C333    1.413   .     A
C330   C336    1.392   .     A
C330   C334    1.413   .     A
C331   C339    1.416   .     A
C331   C333    1.408   .     A
C332   C334    1.408   .     A
C332   C340    1.416   .     A
C332   Br240   1.935   1_655 S
C333   Cl362   1.769   .     S
C334   Cl361   1.769   .     S
C335   C337    1.389   .     A
C335   H346    1.078   .     S
C336   C338    1.389   .     A
C336   H345    1.078   .     S
C337   C339    1.416   .     A
C337   C341    1.420   .     A
C338   C340    1.416   .     A
C338   C342    1.420   .     A
C339   C873    1.396   .     S
C340   C874    1.395   1_554 S
C341   C900    1.419   .     S
C342   C899    1.419   1_554 S
N349   Zn359   2.014   .     S
N350   Zn360   2.014   .     S
O351   Zn359   1.982   .     S
O352   Zn360   1.982   .     S
O353   Zn360   1.979   .     S
O354   Zn359   1.979   .     S
O355   Zn359   1.956   .     S
O356   Zn360   1.956   .     S
O357   Zn360   1.886   .     S
O358   Zn359   1.886   .     S
Br363  C207    1.935   1_655 S
C373   C384    1.404   .     S
C373   O413    1.279   .     A
C373   O415    1.280   .     A
C374   O414    1.279   .     A
C374   C383    1.404   .     S
C374   O416    1.280   .     A
C375   C377    1.390   .     A
C375   C404    1.426   .     A
C375   Br427   1.931   .     S
C376   Br428   1.931   .     S
C376   C403    1.426   .     A
C376   C378    1.390   .     A
C377   H405    1.081   .     S
C377   C959    1.396   1_554 S
C378   H406    1.081   .     S
C378   C960    1.395   .     S
C379   C384    1.399   .     A
C379   Cl429   1.771   .     S
C379   C9      1.382   1_565 S
C380   C383    1.399   .     A
C380   Cl430   1.771   .     S
C381   C383    1.400   .     A
C381   Br431   1.930   .     S
C382   Br432   1.930   .     S
C382   C384    1.400   .     A
C382   C8      1.382   1_565 S
C385   Cl433   1.754   .     S
C385   N412    1.372   .     A
C385   C449    1.416   .     S
C386   Cl434   1.754   .     S
C386   N411    1.372   .     A
C386   C512    1.416   1_455 S
C387   N411    1.364   .     A
C387   H409    1.082   .     S
C387   C509    1.416   1_455 S
C388   H410    1.082   .     S
C388   N412    1.364   .     A
C388   C448    1.416   .     S
C389   C391    1.471   .     S
C389   O419    1.299   .     A
C389   O417    1.295   .     A
C390   C392    1.471   .     S
C390   O418    1.295   .     A
C390   O420    1.299   .     A
C391   C397    1.392   .     A
C391   C395    1.413   .     A
C392   C398    1.392   .     A
C392   C396    1.413   .     A
C393   C401    1.416   .     A
C393   C395    1.408   .     A
C393   Br549   1.935   1_455 S
C394   C396    1.408   .     A
C394   C402    1.416   .     A
C394   Br488   1.935   .     S
C395   Cl424   1.769   .     S
C396   Cl423   1.769   .     S
C397   C399    1.389   .     A
C397   H408    1.078   .     S
C398   C400    1.389   .     A
C398   H407    1.078   .     S
C399   C401    1.416   .     A
C399   C403    1.420   .     A
C400   C402    1.416   .     A
C400   C404    1.420   .     A
C401   C935    1.396   .     S
C402   C936    1.395   1_554 S
C403   C962    1.419   .     S
C404   C961    1.419   1_554 S
N411   Zn421   2.014   .     S
N412   Zn422   2.014   .     S
O413   Zn421   1.982   .     S
O414   Zn422   1.982   .     S
O415   Zn422   1.979   .     S
O416   Zn421   1.979   .     S
O417   Zn421   1.956   .     S
O418   Zn422   1.956   .     S
O419   Zn422   1.886   .     S
O420   Zn421   1.886   .     S
Br425  C455    1.935   .     S
Br426  C518    1.935   1_455 S
C435   C446    1.404   .     S
C435   O475    1.279   .     A
C435   O477    1.280   .     A
C436   O476    1.279   .     A
C436   C445    1.404   .     S
C436   O478    1.280   .     A
C437   C439    1.390   .     A
C437   C466    1.426   .     A
C437   Br489   1.931   .     S
C438   Br490   1.931   .     S
C438   C465    1.426   .     A
C438   C440    1.390   .     A
C439   H467    1.081   .     S
C439   C1021   1.396   1_554 S
C440   H468    1.081   .     S
C440   C1022   1.395   .     S
C441   C446    1.399   .     A
C441   Cl491   1.771   .     S
C441   C71     1.382   1_565 S
C442   C445    1.399   .     A
C442   Cl492   1.771   .     S
C443   C445    1.400   .     A
C443   Br493   1.930   .     S
C444   Br494   1.930   .     S
C444   C446    1.400   .     A
C444   C70     1.382   1_565 S
C447   Cl495   1.754   .     S
C447   N474    1.372   .     A
C447   C511    1.416   .     S
C448   Cl496   1.754   .     S
C448   N473    1.372   .     A
C449   N473    1.364   .     A
C449   H471    1.082   .     S
C450   H472    1.082   .     S
C450   N474    1.364   .     A
C450   C510    1.416   .     S
C451   C453    1.471   .     S
C451   O481    1.299   .     A
C451   O479    1.295   .     A
C452   C454    1.471   .     S
C452   O480    1.295   .     A
C452   O482    1.299   .     A
C453   C459    1.392   .     A
C453   C457    1.413   .     A
C454   C460    1.392   .     A
C454   C458    1.413   .     A
C455   C463    1.416   .     A
C455   C457    1.408   .     A
C456   C458    1.408   .     A
C456   C464    1.416   .     A
C456   Br550   1.935   .     S
C457   Cl486   1.769   .     S
C458   Cl485   1.769   .     S
C459   C461    1.389   .     A
C459   H470    1.078   .     S
C460   C462    1.389   .     A
C460   H469    1.078   .     S
C461   C463    1.416   .     A
C461   C465    1.420   .     A
C462   C464    1.416   .     A
C462   C466    1.420   .     A
C463   C997    1.396   .     S
C464   C998    1.395   1_554 S
C465   C1024   1.419   .     S
C466   C1023   1.419   1_554 S
N473   Zn483   2.014   .     S
N474   Zn484   2.014   .     S
O475   Zn483   1.982   .     S
O476   Zn484   1.982   .     S
O477   Zn484   1.979   .     S
O478   Zn483   1.979   .     S
O479   Zn483   1.956   .     S
O480   Zn484   1.956   .     S
O481   Zn484   1.886   .     S
O482   Zn483   1.886   .     S
Br487  C517    1.935   .     S
C497   C508    1.404   .     S
C497   O537    1.279   .     A
C497   O539    1.280   .     A
C498   O538    1.279   .     A
C498   C507    1.404   .     S
C498   O540    1.280   .     A
C499   C501    1.390   .     A
C499   C528    1.426   .     A
C499   Br551   1.931   .     S
C500   Br552   1.931   .     S
C500   C527    1.426   .     A
C500   C502    1.390   .     A
C501   H529    1.081   .     S
C501   C1083   1.396   1_554 S
C502   H530    1.081   .     S
C502   C1084   1.395   .     S
C503   C508    1.399   .     A
C503   Cl553   1.771   .     S
C503   C133    1.382   1_565 S
C504   C507    1.399   .     A
C504   Cl554   1.771   .     S
C505   C507    1.400   .     A
C505   Br555   1.930   .     S
C506   Br556   1.930   .     S
C506   C508    1.400   .     A
C506   C132    1.382   1_565 S
C509   Cl557   1.754   .     S
C509   N536    1.372   .     A
C509   C387    1.416   1_655 S
C510   Cl558   1.754   .     S
C510   N535    1.372   .     A
C511   N535    1.364   .     A
C511   H533    1.082   .     S
C512   H534    1.082   .     S
C512   N536    1.364   .     A
C512   C386    1.416   1_655 S
C513   C515    1.471   .     S
C513   O543    1.299   .     A
C513   O541    1.295   .     A
C514   C516    1.471   .     S
C514   O542    1.295   .     A
C514   O544    1.299   .     A
C515   C521    1.392   .     A
C515   C519    1.413   .     A
C516   C522    1.392   .     A
C516   C520    1.413   .     A
C517   C525    1.416   .     A
C517   C519    1.408   .     A
C518   C520    1.408   .     A
C518   C526    1.416   .     A
C518   Br426   1.935   1_655 S
C519   Cl548   1.769   .     S
C520   Cl547   1.769   .     S
C521   C523    1.389   .     A
C521   H532    1.078   .     S
C522   C524    1.389   .     A
C522   H531    1.078   .     S
C523   C525    1.416   .     A
C523   C527    1.420   .     A
C524   C526    1.416   .     A
C524   C528    1.420   .     A
C525   C1059   1.396   .     S
C526   C1060   1.395   1_554 S
C527   C1086   1.419   .     S
C528   C1085   1.419   1_554 S
N535   Zn545   2.014   .     S
N536   Zn546   2.014   .     S
O537   Zn545   1.982   .     S
O538   Zn546   1.982   .     S
O539   Zn546   1.979   .     S
O540   Zn545   1.979   .     S
O541   Zn545   1.956   .     S
O542   Zn546   1.956   .     S
O543   Zn546   1.886   .     S
O544   Zn545   1.886   .     S
Br549  C393    1.935   1_655 S
C559   C570    1.404   .     S
C559   O599    1.279   .     A
C559   O601    1.280   .     A
C560   O600    1.279   .     A
C560   C569    1.404   .     S
C560   O602    1.280   .     A
C561   C563    1.390   .     A
C561   C590    1.426   .     A
C561   Br613   1.931   .     S
C562   Br614   1.931   .     S
C562   C589    1.426   .     A
C562   C564    1.390   .     A
C563   H591    1.081   .     S
C564   H592    1.081   .     S
C564   C30     1.395   1_556 S
C565   C570    1.399   .     A
C565   Cl615   1.771   .     S
C565   C753    1.382   .     S
C566   C569    1.399   .     A
C566   Cl616   1.771   .     S
C566   C940    1.382   1_545 S
C567   C569    1.400   .     A
C567   Br617   1.930   .     S
C567   C937    1.382   1_545 S
C568   Br618   1.930   .     S
C568   C570    1.400   .     A
C568   C752    1.382   .     S
C571   Cl619   1.754   .     S
C571   N598    1.372   .     A
C571   C635    1.416   .     S
C572   Cl620   1.754   .     S
C572   N597    1.372   .     A
C572   C698    1.416   1_455 S
C573   N597    1.364   .     A
C573   H595    1.082   .     S
C573   C695    1.416   1_455 S
C574   H596    1.082   .     S
C574   N598    1.364   .     A
C574   C634    1.416   .     S
C575   C577    1.471   .     S
C575   O605    1.299   .     A
C575   O603    1.295   .     A
C576   C578    1.471   .     S
C576   O604    1.295   .     A
C576   O606    1.299   .     A
C577   C583    1.392   .     A
C577   C581    1.413   .     A
C578   C584    1.392   .     A
C578   C582    1.413   .     A
C579   C587    1.416   .     A
C579   C581    1.408   .     A
C579   Br735   1.935   1_455 S
C580   C582    1.408   .     A
C580   C588    1.416   .     A
C580   Br674   1.935   .     S
C581   Cl610   1.769   .     S
C582   Cl609   1.769   .     S
C583   C585    1.389   .     A
C583   H594    1.078   .     S
C584   C586    1.389   .     A
C584   H593    1.078   .     S
C585   C587    1.416   .     A
C585   C589    1.420   .     A
C586   C588    1.416   .     A
C586   C590    1.420   .     A
C587   C5      1.396   1_556 S
C589   C32     1.419   1_556 S
N597   Zn607   2.014   .     S
N598   Zn608   2.014   .     S
O599   Zn607   1.982   .     S
O600   Zn608   1.982   .     S
O601   Zn608   1.979   .     S
O602   Zn607   1.979   .     S
O603   Zn607   1.956   .     S
O604   Zn608   1.956   .     S
O605   Zn608   1.886   .     S
O606   Zn607   1.886   .     S
Br611  C641    1.935   .     S
Br612  C704    1.935   1_455 S
C621   C632    1.404   .     S
C621   O661    1.279   .     A
C621   O663    1.280   .     A
C622   O662    1.279   .     A
C622   C631    1.404   .     S
C622   O664    1.280   .     A
C623   C625    1.390   .     A
C623   C652    1.426   .     A
C623   Br675   1.931   .     S
C624   Br676   1.931   .     S
C624   C651    1.426   .     A
C624   C626    1.390   .     A
C625   H653    1.081   .     S
C626   H654    1.081   .     S
C626   C92     1.395   1_556 S
C627   C632    1.399   .     A
C627   Cl677   1.771   .     S
C627   C815    1.382   .     S
C628   C631    1.399   .     A
C628   Cl678   1.771   .     S
C628   C1002   1.382   1_545 S
C629   C631    1.400   .     A
C629   Br679   1.930   .     S
C629   C999    1.382   1_545 S
C630   Br680   1.930   .     S
C630   C632    1.400   .     A
C630   C814    1.382   .     S
C633   Cl681   1.754   .     S
C633   N660    1.372   .     A
C633   C697    1.416   .     S
C634   Cl682   1.754   .     S
C634   N659    1.372   .     A
C635   N659    1.364   .     A
C635   H657    1.082   .     S
C636   H658    1.082   .     S
C636   N660    1.364   .     A
C636   C696    1.416   .     S
C637   C639    1.471   .     S
C637   O667    1.299   .     A
C637   O665    1.295   .     A
C638   C640    1.471   .     S
C638   O666    1.295   .     A
C638   O668    1.299   .     A
C639   C645    1.392   .     A
C639   C643    1.413   .     A
C640   C646    1.392   .     A
C640   C644    1.413   .     A
C641   C649    1.416   .     A
C641   C643    1.408   .     A
C642   C644    1.408   .     A
C642   C650    1.416   .     A
C642   Br736   1.935   .     S
C643   Cl672   1.769   .     S
C644   Cl671   1.769   .     S
C645   C647    1.389   .     A
C645   H656    1.078   .     S
C646   C648    1.389   .     A
C646   H655    1.078   .     S
C647   C649    1.416   .     A
C647   C651    1.420   .     A
C648   C650    1.416   .     A
C648   C652    1.420   .     A
C649   C67     1.396   1_556 S
C651   C94     1.419   1_556 S
N659   Zn669   2.014   .     S
N660   Zn670   2.014   .     S
O661   Zn669   1.982   .     S
O662   Zn670   1.982   .     S
O663   Zn670   1.979   .     S
O664   Zn669   1.979   .     S
O665   Zn669   1.956   .     S
O666   Zn670   1.956   .     S
O667   Zn670   1.886   .     S
O668   Zn669   1.886   .     S
Br673  C703    1.935   .     S
C683   C694    1.404   .     S
C683   O723    1.279   .     A
C683   O725    1.280   .     A
C684   O724    1.279   .     A
C684   C693    1.404   .     S
C684   O726    1.280   .     A
C685   C687    1.390   .     A
C685   C714    1.426   .     A
C685   Br737   1.931   .     S
C686   Br738   1.931   .     S
C686   C713    1.426   .     A
C686   C688    1.390   .     A
C687   H715    1.081   .     S
C688   H716    1.081   .     S
C688   C154    1.395   1_556 S
C689   C694    1.399   .     A
C689   Cl739   1.771   .     S
C689   C877    1.382   .     S
C690   C693    1.399   .     A
C690   Cl740   1.771   .     S
C690   C1064   1.382   1_545 S
C691   C693    1.400   .     A
C691   Br741   1.930   .     S
C691   C1061   1.382   1_545 S
C692   Br742   1.930   .     S
C692   C694    1.400   .     A
C692   C876    1.382   .     S
C695   Cl743   1.754   .     S
C695   N722    1.372   .     A
C695   C573    1.416   1_655 S
C696   Cl744   1.754   .     S
C696   N721    1.372   .     A
C697   N721    1.364   .     A
C697   H719    1.082   .     S
C698   H720    1.082   .     S
C698   N722    1.364   .     A
C698   C572    1.416   1_655 S
C699   C701    1.471   .     S
C699   O729    1.299   .     A
C699   O727    1.295   .     A
C700   C702    1.471   .     S
C700   O728    1.295   .     A
C700   O730    1.299   .     A
C701   C707    1.392   .     A
C701   C705    1.413   .     A
C702   C708    1.392   .     A
C702   C706    1.413   .     A
C703   C711    1.416   .     A
C703   C705    1.408   .     A
C704   C706    1.408   .     A
C704   C712    1.416   .     A
C704   Br612   1.935   1_655 S
C705   Cl734   1.769   .     S
C706   Cl733   1.769   .     S
C707   C709    1.389   .     A
C707   H718    1.078   .     S
C708   C710    1.389   .     A
C708   H717    1.078   .     S
C709   C711    1.416   .     A
C709   C713    1.420   .     A
C710   C712    1.416   .     A
C710   C714    1.420   .     A
C711   C129    1.396   1_556 S
C713   C156    1.419   1_556 S
N721   Zn731   2.014   .     S
N722   Zn732   2.014   .     S
O723   Zn731   1.982   .     S
O724   Zn732   1.982   .     S
O725   Zn732   1.979   .     S
O726   Zn731   1.979   .     S
O727   Zn731   1.956   .     S
O728   Zn732   1.956   .     S
O729   Zn732   1.886   .     S
O730   Zn731   1.886   .     S
Br735  C579    1.935   1_655 S
C745   C756    1.404   .     S
C745   O785    1.279   .     A
C745   O787    1.280   .     A
C746   O786    1.279   .     A
C746   C755    1.404   .     S
C746   O788    1.280   .     A
C747   C749    1.390   .     A
C747   C776    1.426   .     A
C747   Br799   1.931   .     S
C748   Br800   1.931   .     S
C748   C775    1.426   .     A
C748   C750    1.390   .     A
C749   H777    1.081   .     S
C750   H778    1.081   .     S
C750   C216    1.395   1_556 S
C751   C756    1.399   .     A
C751   Cl801   1.771   .     S
C751   C939    1.382   .     S
C752   C755    1.399   .     A
C752   Cl802   1.771   .     S
C753   C755    1.400   .     A
C753   Br803   1.930   .     S
C754   Br804   1.930   .     S
C754   C756    1.400   .     A
C754   C938    1.382   .     S
C757   Cl805   1.754   .     S
C757   N784    1.372   .     A
C757   C821    1.416   .     S
C758   Cl806   1.754   .     S
C758   N783    1.372   .     A
C758   C884    1.416   1_455 S
C759   N783    1.364   .     A
C759   H781    1.082   .     S
C759   C881    1.416   1_455 S
C760   H782    1.082   .     S
C760   N784    1.364   .     A
C760   C820    1.416   .     S
C761   C763    1.471   .     S
C761   O791    1.299   .     A
C761   O789    1.295   .     A
C762   C764    1.471   .     S
C762   O790    1.295   .     A
C762   O792    1.299   .     A
C763   C769    1.392   .     A
C763   C767    1.413   .     A
C764   C770    1.392   .     A
C764   C768    1.413   .     A
C765   C773    1.416   .     A
C765   C767    1.408   .     A
C765   Br921   1.935   1_455 S
C766   C768    1.408   .     A
C766   C774    1.416   .     A
C766   Br860   1.935   .     S
C767   Cl796   1.769   .     S
C768   Cl795   1.769   .     S
C769   C771    1.389   .     A
C769   H780    1.078   .     S
C770   C772    1.389   .     A
C770   H779    1.078   .     S
C771   C773    1.416   .     A
C771   C775    1.420   .     A
C772   C774    1.416   .     A
C772   C776    1.420   .     A
C773   C191    1.396   1_556 S
C775   C218    1.419   1_556 S
N783   Zn793   2.014   .     S
N784   Zn794   2.014   .     S
O785   Zn793   1.982   .     S
O786   Zn794   1.982   .     S
O787   Zn794   1.979   .     S
O788   Zn793   1.979   .     S
O789   Zn793   1.956   .     S
O790   Zn794   1.956   .     S
O791   Zn794   1.886   .     S
O792   Zn793   1.886   .     S
Br797  C827    1.935   .     S
Br798  C890    1.935   1_455 S
C807   C818    1.404   .     S
C807   O847    1.279   .     A
C807   O849    1.280   .     A
C808   O848    1.279   .     A
C808   C817    1.404   .     S
C808   O850    1.280   .     A
C809   C811    1.390   .     A
C809   C838    1.426   .     A
C809   Br861   1.931   .     S
C810   Br862   1.931   .     S
C810   C837    1.426   .     A
C810   C812    1.390   .     A
C811   H839    1.081   .     S
C812   H840    1.081   .     S
C812   C278    1.395   1_556 S
C813   C818    1.399   .     A
C813   Cl863   1.771   .     S
C813   C1001   1.382   .     S
C814   C817    1.399   .     A
C814   Cl864   1.771   .     S
C815   C817    1.400   .     A
C815   Br865   1.930   .     S
C816   Br866   1.930   .     S
C816   C818    1.400   .     A
C816   C1000   1.382   .     S
C819   Cl867   1.754   .     S
C819   N846    1.372   .     A
C819   C883    1.416   .     S
C820   Cl868   1.754   .     S
C820   N845    1.372   .     A
C821   N845    1.364   .     A
C821   H843    1.082   .     S
C822   H844    1.082   .     S
C822   N846    1.364   .     A
C822   C882    1.416   .     S
C823   C825    1.471   .     S
C823   O853    1.299   .     A
C823   O851    1.295   .     A
C824   C826    1.471   .     S
C824   O852    1.295   .     A
C824   O854    1.299   .     A
C825   C831    1.392   .     A
C825   C829    1.413   .     A
C826   C832    1.392   .     A
C826   C830    1.413   .     A
C827   C835    1.416   .     A
C827   C829    1.408   .     A
C828   C830    1.408   .     A
C828   C836    1.416   .     A
C828   Br922   1.935   .     S
C829   Cl858   1.769   .     S
C830   Cl857   1.769   .     S
C831   C833    1.389   .     A
C831   H842    1.078   .     S
C832   C834    1.389   .     A
C832   H841    1.078   .     S
C833   C835    1.416   .     A
C833   C837    1.420   .     A
C834   C836    1.416   .     A
C834   C838    1.420   .     A
C835   C253    1.396   1_556 S
C837   C280    1.419   1_556 S
N845   Zn855   2.014   .     S
N846   Zn856   2.014   .     S
O847   Zn855   1.982   .     S
O848   Zn856   1.982   .     S
O849   Zn856   1.979   .     S
O850   Zn855   1.979   .     S
O851   Zn855   1.956   .     S
O852   Zn856   1.956   .     S
O853   Zn856   1.886   .     S
O854   Zn855   1.886   .     S
Br859  C889    1.935   .     S
C869   C880    1.404   .     S
C869   O909    1.279   .     A
C869   O911    1.280   .     A
C870   O910    1.279   .     A
C870   C879    1.404   .     S
C870   O912    1.280   .     A
C871   C873    1.390   .     A
C871   C900    1.426   .     A
C871   Br923   1.931   .     S
C872   Br924   1.931   .     S
C872   C899    1.426   .     A
C872   C874    1.390   .     A
C873   H901    1.081   .     S
C874   H902    1.081   .     S
C874   C340    1.395   1_556 S
C875   C880    1.399   .     A
C875   Cl925   1.771   .     S
C875   C1063   1.382   .     S
C876   C879    1.399   .     A
C876   Cl926   1.771   .     S
C877   C879    1.400   .     A
C877   Br927   1.930   .     S
C878   Br928   1.930   .     S
C878   C880    1.400   .     A
C878   C1062   1.382   .     S
C881   Cl929   1.754   .     S
C881   N908    1.372   .     A
C881   C759    1.416   1_655 S
C882   Cl930   1.754   .     S
C882   N907    1.372   .     A
C883   N907    1.364   .     A
C883   H905    1.082   .     S
C884   H906    1.082   .     S
C884   N908    1.364   .     A
C884   C758    1.416   1_655 S
C885   C887    1.471   .     S
C885   O915    1.299   .     A
C885   O913    1.295   .     A
C886   C888    1.471   .     S
C886   O914    1.295   .     A
C886   O916    1.299   .     A
C887   C893    1.392   .     A
C887   C891    1.413   .     A
C888   C894    1.392   .     A
C888   C892    1.413   .     A
C889   C897    1.416   .     A
C889   C891    1.408   .     A
C890   C892    1.408   .     A
C890   C898    1.416   .     A
C890   Br798   1.935   1_655 S
C891   Cl920   1.769   .     S
C892   Cl919   1.769   .     S
C893   C895    1.389   .     A
C893   H904    1.078   .     S
C894   C896    1.389   .     A
C894   H903    1.078   .     S
C895   C897    1.416   .     A
C895   C899    1.420   .     A
C896   C898    1.416   .     A
C896   C900    1.420   .     A
C897   C315    1.396   1_556 S
C899   C342    1.419   1_556 S
N907   Zn917   2.014   .     S
N908   Zn918   2.014   .     S
O909   Zn917   1.982   .     S
O910   Zn918   1.982   .     S
O911   Zn918   1.979   .     S
O912   Zn917   1.979   .     S
O913   Zn917   1.956   .     S
O914   Zn918   1.956   .     S
O915   Zn918   1.886   .     S
O916   Zn917   1.886   .     S
Br921  C765    1.935   1_655 S
C931   C942    1.404   .     S
C931   O971    1.279   .     A
C931   O973    1.280   .     A
C932   O972    1.279   .     A
C932   C941    1.404   .     S
C932   O974    1.280   .     A
C933   C935    1.390   .     A
C933   C962    1.426   .     A
C933   Br985   1.931   .     S
C934   Br986   1.931   .     S
C934   C961    1.426   .     A
C934   C936    1.390   .     A
C935   H963    1.081   .     S
C936   H964    1.081   .     S
C936   C402    1.395   1_556 S
C937   C942    1.399   .     A
C937   Cl987   1.771   .     S
C937   C567    1.382   1_565 S
C938   C941    1.399   .     A
C938   Cl988   1.771   .     S
C939   C941    1.400   .     A
C939   Br989   1.930   .     S
C940   Br990   1.930   .     S
C940   C942    1.400   .     A
C940   C566    1.382   1_565 S
C943   Cl991   1.754   .     S
C943   N970    1.372   .     A
C943   C1007   1.416   .     S
C944   Cl992   1.754   .     S
C944   N969    1.372   .     A
C944   C1070   1.416   1_455 S
C945   N969    1.364   .     A
C945   H967    1.082   .     S
C945   C1067   1.416   1_455 S
C946   H968    1.082   .     S
C946   N970    1.364   .     A
C946   C1006   1.416   .     S
C947   C949    1.471   .     S
C947   O977    1.299   .     A
C947   O975    1.295   .     A
C948   C950    1.471   .     S
C948   O976    1.295   .     A
C948   O978    1.299   .     A
C949   C955    1.392   .     A
C949   C953    1.413   .     A
C950   C956    1.392   .     A
C950   C954    1.413   .     A
C951   C959    1.416   .     A
C951   C953    1.408   .     A
C951   Br1107  1.935   1_455 S
C952   C954    1.408   .     A
C952   C960    1.416   .     A
C952   Br1046  1.935   .     S
C953   Cl982   1.769   .     S
C954   Cl981   1.769   .     S
C955   C957    1.389   .     A
C955   H966    1.078   .     S
C956   C958    1.389   .     A
C956   H965    1.078   .     S
C957   C959    1.416   .     A
C957   C961    1.420   .     A
C958   C960    1.416   .     A
C958   C962    1.420   .     A
C959   C377    1.396   1_556 S
C961   C404    1.419   1_556 S
N969   Zn979   2.014   .     S
N970   Zn980   2.014   .     S
O971   Zn979   1.982   .     S
O972   Zn980   1.982   .     S
O973   Zn980   1.979   .     S
O974   Zn979   1.979   .     S
O975   Zn979   1.956   .     S
O976   Zn980   1.956   .     S
O977   Zn980   1.886   .     S
O978   Zn979   1.886   .     S
Br983  C1013   1.935   .     S
Br984  C1076   1.935   1_455 S
C993   C1004   1.404   .     S
C993   O1033   1.279   .     A
C993   O1035   1.280   .     A
C994   O1034   1.279   .     A
C994   C1003   1.404   .     S
C994   O1036   1.280   .     A
C995   C997    1.390   .     A
C995   C1024   1.426   .     A
C995   Br1047  1.931   .     S
C996   Br1048  1.931   .     S
C996   C1023   1.426   .     A
C996   C998    1.390   .     A
C997   H1025   1.081   .     S
C998   H1026   1.081   .     S
C998   C464    1.395   1_556 S
C999   C1004   1.399   .     A
C999   Cl1049  1.771   .     S
C999   C629    1.382   1_565 S
C1000  C1003   1.399   .     A
C1000  Cl1050  1.771   .     S
C1001  C1003   1.400   .     A
C1001  Br1051  1.930   .     S
C1002  Br1052  1.930   .     S
C1002  C1004   1.400   .     A
C1002  C628    1.382   1_565 S
C1005  Cl1053  1.754   .     S
C1005  N1032   1.372   .     A
C1005  C1069   1.416   .     S
C1006  Cl1054  1.754   .     S
C1006  N1031   1.372   .     A
C1007  N1031   1.364   .     A
C1007  H1029   1.082   .     S
C1008  H1030   1.082   .     S
C1008  N1032   1.364   .     A
C1008  C1068   1.416   .     S
C1009  C1011   1.471   .     S
C1009  O1039   1.299   .     A
C1009  O1037   1.295   .     A
C1010  C1012   1.471   .     S
C1010  O1038   1.295   .     A
C1010  O1040   1.299   .     A
C1011  C1017   1.392   .     A
C1011  C1015   1.413   .     A
C1012  C1018   1.392   .     A
C1012  C1016   1.413   .     A
C1013  C1021   1.416   .     A
C1013  C1015   1.408   .     A
C1014  C1016   1.408   .     A
C1014  C1022   1.416   .     A
C1014  Br1108  1.935   .     S
C1015  Cl1044  1.769   .     S
C1016  Cl1043  1.769   .     S
C1017  C1019   1.389   .     A
C1017  H1028   1.078   .     S
C1018  C1020   1.389   .     A
C1018  H1027   1.078   .     S
C1019  C1021   1.416   .     A
C1019  C1023   1.420   .     A
C1020  C1022   1.416   .     A
C1020  C1024   1.420   .     A
C1021  C439    1.396   1_556 S
C1023  C466    1.419   1_556 S
N1031  Zn1041  2.014   .     S
N1032  Zn1042  2.014   .     S
O1033  Zn1041  1.982   .     S
O1034  Zn1042  1.982   .     S
O1035  Zn1042  1.979   .     S
O1036  Zn1041  1.979   .     S
O1037  Zn1041  1.956   .     S
O1038  Zn1042  1.956   .     S
O1039  Zn1042  1.886   .     S
O1040  Zn1041  1.886   .     S
Br1045 C1075   1.935   .     S
C1055  C1066   1.404   .     S
C1055  O1095   1.279   .     A
C1055  O1097   1.280   .     A
C1056  O1096   1.279   .     A
C1056  C1065   1.404   .     S
C1056  O1098   1.280   .     A
C1057  C1059   1.390   .     A
C1057  C1086   1.426   .     A
C1057  Br1109  1.931   .     S
C1058  Br1110  1.931   .     S
C1058  C1085   1.426   .     A
C1058  C1060   1.390   .     A
C1059  H1087   1.081   .     S
C1060  H1088   1.081   .     S
C1060  C526    1.395   1_556 S
C1061  C1066   1.399   .     A
C1061  Cl1111  1.771   .     S
C1061  C691    1.382   1_565 S
C1062  C1065   1.399   .     A
C1062  Cl1112  1.771   .     S
C1063  C1065   1.400   .     A
C1063  Br1113  1.930   .     S
C1064  Br1114  1.930   .     S
C1064  C1066   1.400   .     A
C1064  C690    1.382   1_565 S
C1067  Cl1115  1.754   .     S
C1067  N1094   1.372   .     A
C1067  C945    1.416   1_655 S
C1068  Cl1116  1.754   .     S
C1068  N1093   1.372   .     A
C1069  N1093   1.364   .     A
C1069  H1091   1.082   .     S
C1070  H1092   1.082   .     S
C1070  N1094   1.364   .     A
C1070  C944    1.416   1_655 S
C1071  C1073   1.471   .     S
C1071  O1101   1.299   .     A
C1071  O1099   1.295   .     A
C1072  C1074   1.471   .     S
C1072  O1100   1.295   .     A
C1072  O1102   1.299   .     A
C1073  C1079   1.392   .     A
C1073  C1077   1.413   .     A
C1074  C1080   1.392   .     A
C1074  C1078   1.413   .     A
C1075  C1083   1.416   .     A
C1075  C1077   1.408   .     A
C1076  C1078   1.408   .     A
C1076  C1084   1.416   .     A
C1076  Br984   1.935   1_655 S
C1077  Cl1106  1.769   .     S
C1078  Cl1105  1.769   .     S
C1079  C1081   1.389   .     A
C1079  H1090   1.078   .     S
C1080  C1082   1.389   .     A
C1080  H1089   1.078   .     S
C1081  C1083   1.416   .     A
C1081  C1085   1.420   .     A
C1082  C1084   1.416   .     A
C1082  C1086   1.420   .     A
C1083  C501    1.396   1_556 S
C1085  C528    1.419   1_556 S
N1093  Zn1103  2.014   .     S
N1094  Zn1104  2.014   .     S
O1095  Zn1103  1.982   .     S
O1096  Zn1104  1.982   .     S
O1097  Zn1104  1.979   .     S
O1098  Zn1103  1.979   .     S
O1099  Zn1103  1.956   .     S
O1100  Zn1104  1.956   .     S
O1101  Zn1104  1.886   .     S
O1102  Zn1103  1.886   .     S
Br1107 C951    1.935   1_655 S
