data_str_m2_o1_o10_pcu_sym.78
_audit_creation_date              2020-01-03
_audit_creation_method            'Materials Studio'
_symmetry_space_group_name_H-M    'P1'
_symmetry_Int_Tables_number       1
_symmetry_cell_setting            triclinic
loop_
_symmetry_equiv_pos_as_xyz
  x,y,z
_cell_length_a                    26.3307
_cell_length_b                    32.3845
_cell_length_c                    28.5829
_cell_angle_alpha                 89.6405
_cell_angle_beta                  97.2838
_cell_angle_gamma                 90.6273
loop_
_atom_site_label
_atom_site_type_symbol
_atom_site_fract_x
_atom_site_fract_y
_atom_site_fract_z
_atom_site_U_iso_or_equiv
_atom_site_adp_type
_atom_site_occupancy
C1     C     0.16654   0.08750   0.16676   0.00000  Uiso   1.00
C2     C     0.20222   0.02171   0.19850   0.00000  Uiso   1.00
C3     C     0.16628   0.29051   0.16622   0.00000  Uiso   1.00
C4     C     0.16624   0.04290   0.16695   0.00000  Uiso   1.00
C5     C     0.13525   0.14054   0.02150   0.00000  Uiso   1.00
C6     C     0.19808   0.19280   0.31184   0.00000  Uiso   1.00
C7     C     0.13431   0.14063   0.30452   0.00000  Uiso   1.00
C8     C     0.19901   0.19271   0.02881   0.00000  Uiso   1.00
C9     C     0.05882   0.10076   0.29304   0.00000  Uiso   1.00
C10    C     0.27451   0.23258   0.04030   0.00000  Uiso   1.00
C11    C     0.16633   0.24586   0.16649   0.00000  Uiso   1.00
C12    C     0.06817   0.16599   0.15492   0.00000  Uiso   1.00
C13    C     0.26517   0.16737   0.17841   0.00000  Uiso   1.00
C14    C     0.01349   0.16056   0.14937   0.00000  Uiso   1.00
C15    C     0.31985   0.17283   0.18395   0.00000  Uiso   1.00
C16    C     0.13014   0.02168   0.13527   0.00000  Uiso   1.00
C17    C     0.20229   0.31178   0.19810   0.00000  Uiso   1.00
C18    C     0.13001   0.31197   0.13481   0.00000  Uiso   1.00
Cu19   Cu    0.16667   0.16667   0.21355   0.00000  Uiso   1.00
Cu20   Cu    0.16667   0.16666   0.11978   0.00000  Uiso   1.00
H21    H     0.11139   0.11953   0.03876   0.00000  Uiso   1.00
H22    H     0.23559   0.29655   0.26388   0.00000  Uiso   1.00
H23    H     0.10944   0.27466   0.07850   0.00000  Uiso   1.00
H24    H     0.07207   0.26979   0.12279   0.00000  Uiso   1.00
H25    H     0.27596   0.03686   0.22260   0.00000  Uiso   1.00
H26    H     0.23550   0.03608   0.26449   0.00000  Uiso   1.00
H27    H     0.03959   0.12663   0.30901   0.00000  Uiso   1.00
H28    H     0.06730   0.07511   0.31873   0.00000  Uiso   1.00
H29    H     0.03144   0.08863   0.26348   0.00000  Uiso   1.00
H30    H     0.26602   0.25824   0.01462   0.00000  Uiso   1.00
H31    H     0.29372   0.20672   0.02431   0.00000  Uiso   1.00
H32    H     0.22194   0.21381   0.29457   0.00000  Uiso   1.00
H33    H     0.30188   0.24470   0.06987   0.00000  Uiso   1.00
H34    H     0.33107   0.15451   0.07839   0.00000  Uiso   1.00
H35    H     0.00672   0.10952   0.10831   0.00000  Uiso   1.00
H36    H     0.32660   0.22388   0.22499   0.00000  Uiso   1.00
H37    H     0.00229   0.17890   0.25492   0.00000  Uiso   1.00
H38    H     0.09664   0.03626   0.06959   0.00000  Uiso   1.00
H39    H     0.05635   0.03504   0.11137   0.00000  Uiso   1.00
H40    H     0.27611   0.29777   0.22205   0.00000  Uiso   1.00
N41    N     0.16668   0.16668   0.28403   0.00000  Uiso   1.00
N42    N     0.16665   0.16666   0.04931   0.00000  Uiso   1.00
N43    N     0.32313   0.13856   0.10856   0.00000  Uiso   1.00
N44    N     0.01020   0.19484   0.22475   0.00000  Uiso   1.00
N45    N     0.09285   0.04418   0.10437   0.00000  Uiso   1.00
N46    N     0.23945   0.28910   0.22899   0.00000  Uiso   1.00
N47    N     0.09162   0.29075   0.10336   0.00000  Uiso   1.00
N48    N     0.23926   0.04448   0.22973   0.00000  Uiso   1.00
O49    O     0.16666   0.10655   0.20625   0.00000  Uiso   1.00
O50    O     0.22948   0.21964   0.05844   0.00000  Uiso   1.00
O51    O     0.16667   0.22678   0.12709   0.00000  Uiso   1.00
O52    O     0.16666   0.10654   0.12706   0.00000  Uiso   1.00
O53    O     0.16667   0.22679   0.20628   0.00000  Uiso   1.00
O54    O     0.09161   0.16667   0.19712   0.00000  Uiso   1.00
O55    O     0.24172   0.16666   0.13621   0.00000  Uiso   1.00
O56    O     0.09161   0.16666   0.11793   0.00000  Uiso   1.00
O57    O     0.24172   0.16667   0.21540   0.00000  Uiso   1.00
O58    O     0.10383   0.11371   0.27489   0.00000  Uiso   1.00
C59    C     0.49987   0.08750   0.16676   0.00000  Uiso   1.00
C60    C     0.53555   0.02171   0.19850   0.00000  Uiso   1.00
C61    C     0.49962   0.29051   0.16622   0.00000  Uiso   1.00
C62    C     0.49957   0.04290   0.16695   0.00000  Uiso   1.00
C63    C     0.46858   0.14054   0.02150   0.00000  Uiso   1.00
C64    C     0.53141   0.19280   0.31184   0.00000  Uiso   1.00
C65    C     0.46765   0.14063   0.30452   0.00000  Uiso   1.00
C66    C     0.53234   0.19271   0.02881   0.00000  Uiso   1.00
C67    C     0.39215   0.10076   0.29304   0.00000  Uiso   1.00
C68    C     0.60784   0.23258   0.04030   0.00000  Uiso   1.00
C69    C     0.49966   0.24586   0.16649   0.00000  Uiso   1.00
C70    C     0.40150   0.16599   0.15492   0.00000  Uiso   1.00
C71    C     0.59850   0.16737   0.17841   0.00000  Uiso   1.00
C72    C     0.34682   0.16056   0.14937   0.00000  Uiso   1.00
C73    C     0.65318   0.17283   0.18395   0.00000  Uiso   1.00
C74    C     0.46348   0.02168   0.13527   0.00000  Uiso   1.00
C75    C     0.53563   0.31178   0.19810   0.00000  Uiso   1.00
C76    C     0.46334   0.31197   0.13481   0.00000  Uiso   1.00
Cu77   Cu    0.50000   0.16667   0.21355   0.00000  Uiso   1.00
Cu78   Cu    0.50000   0.16666   0.11978   0.00000  Uiso   1.00
H79    H     0.44472   0.11953   0.03876   0.00000  Uiso   1.00
H80    H     0.56892   0.29655   0.26388   0.00000  Uiso   1.00
H81    H     0.44277   0.27466   0.07850   0.00000  Uiso   1.00
H82    H     0.40541   0.26979   0.12279   0.00000  Uiso   1.00
H83    H     0.60930   0.03686   0.22260   0.00000  Uiso   1.00
H84    H     0.56883   0.03608   0.26449   0.00000  Uiso   1.00
H85    H     0.37293   0.12663   0.30901   0.00000  Uiso   1.00
H86    H     0.40064   0.07511   0.31873   0.00000  Uiso   1.00
H87    H     0.36478   0.08863   0.26348   0.00000  Uiso   1.00
H88    H     0.59936   0.25824   0.01462   0.00000  Uiso   1.00
H89    H     0.62705   0.20672   0.02431   0.00000  Uiso   1.00
H90    H     0.55527   0.21381   0.29457   0.00000  Uiso   1.00
H91    H     0.63522   0.24470   0.06987   0.00000  Uiso   1.00
H92    H     0.66440   0.15451   0.07839   0.00000  Uiso   1.00
H93    H     0.34005   0.10952   0.10831   0.00000  Uiso   1.00
H94    H     0.65993   0.22388   0.22499   0.00000  Uiso   1.00
H95    H     0.33562   0.17890   0.25492   0.00000  Uiso   1.00
H96    H     0.42997   0.03626   0.06959   0.00000  Uiso   1.00
H97    H     0.38968   0.03504   0.11137   0.00000  Uiso   1.00
H98    H     0.60944   0.29777   0.22205   0.00000  Uiso   1.00
N99    N     0.50001   0.16668   0.28403   0.00000  Uiso   1.00
N100   N     0.49999   0.16666   0.04931   0.00000  Uiso   1.00
N101   N     0.65647   0.13856   0.10856   0.00000  Uiso   1.00
N102   N     0.34353   0.19484   0.22475   0.00000  Uiso   1.00
N103   N     0.42618   0.04418   0.10437   0.00000  Uiso   1.00
N104   N     0.57278   0.28910   0.22899   0.00000  Uiso   1.00
N105   N     0.42496   0.29075   0.10336   0.00000  Uiso   1.00
N106   N     0.57259   0.04448   0.22973   0.00000  Uiso   1.00
O107   O     0.50000   0.10655   0.20625   0.00000  Uiso   1.00
O108   O     0.56282   0.21964   0.05844   0.00000  Uiso   1.00
O109   O     0.50000   0.22678   0.12709   0.00000  Uiso   1.00
O110   O     0.50000   0.10654   0.12706   0.00000  Uiso   1.00
O111   O     0.50000   0.22679   0.20628   0.00000  Uiso   1.00
O112   O     0.42495   0.16667   0.19712   0.00000  Uiso   1.00
O113   O     0.57505   0.16666   0.13621   0.00000  Uiso   1.00
O114   O     0.42494   0.16666   0.11793   0.00000  Uiso   1.00
O115   O     0.57506   0.16667   0.21540   0.00000  Uiso   1.00
O116   O     0.43717   0.11371   0.27489   0.00000  Uiso   1.00
C117   C     0.83320   0.08750   0.16676   0.00000  Uiso   1.00
C118   C     0.86888   0.02171   0.19850   0.00000  Uiso   1.00
C119   C     0.83295   0.29051   0.16622   0.00000  Uiso   1.00
C120   C     0.83290   0.04290   0.16695   0.00000  Uiso   1.00
C121   C     0.80191   0.14054   0.02150   0.00000  Uiso   1.00
C122   C     0.86475   0.19280   0.31184   0.00000  Uiso   1.00
C123   C     0.80098   0.14063   0.30452   0.00000  Uiso   1.00
C124   C     0.86568   0.19271   0.02881   0.00000  Uiso   1.00
C125   C     0.72548   0.10076   0.29304   0.00000  Uiso   1.00
C126   C     0.94117   0.23258   0.04030   0.00000  Uiso   1.00
C127   C     0.83299   0.24586   0.16649   0.00000  Uiso   1.00
C128   C     0.73484   0.16599   0.15492   0.00000  Uiso   1.00
C129   C     0.93183   0.16737   0.17841   0.00000  Uiso   1.00
C130   C     0.68015   0.16056   0.14937   0.00000  Uiso   1.00
C131   C     0.98651   0.17283   0.18395   0.00000  Uiso   1.00
C132   C     0.79681   0.02168   0.13527   0.00000  Uiso   1.00
C133   C     0.86896   0.31178   0.19810   0.00000  Uiso   1.00
C134   C     0.79667   0.31197   0.13481   0.00000  Uiso   1.00
Cu135  Cu    0.83333   0.16667   0.21355   0.00000  Uiso   1.00
Cu136  Cu    0.83333   0.16666   0.11978   0.00000  Uiso   1.00
H137   H     0.77805   0.11953   0.03876   0.00000  Uiso   1.00
H138   H     0.90225   0.29655   0.26388   0.00000  Uiso   1.00
H139   H     0.77610   0.27466   0.07850   0.00000  Uiso   1.00
H140   H     0.73874   0.26979   0.12279   0.00000  Uiso   1.00
H141   H     0.94263   0.03686   0.22260   0.00000  Uiso   1.00
H142   H     0.90217   0.03608   0.26449   0.00000  Uiso   1.00
H143   H     0.70626   0.12663   0.30901   0.00000  Uiso   1.00
H144   H     0.73397   0.07511   0.31873   0.00000  Uiso   1.00
H145   H     0.69811   0.08863   0.26348   0.00000  Uiso   1.00
H146   H     0.93269   0.25824   0.01462   0.00000  Uiso   1.00
H147   H     0.96039   0.20672   0.02431   0.00000  Uiso   1.00
H148   H     0.88861   0.21381   0.29457   0.00000  Uiso   1.00
H149   H     0.96855   0.24470   0.06987   0.00000  Uiso   1.00
H150   H     0.99773   0.15451   0.07839   0.00000  Uiso   1.00
H151   H     0.67339   0.10952   0.10831   0.00000  Uiso   1.00
H152   H     0.99326   0.22388   0.22499   0.00000  Uiso   1.00
H153   H     0.66896   0.17890   0.25492   0.00000  Uiso   1.00
H154   H     0.76331   0.03626   0.06959   0.00000  Uiso   1.00
H155   H     0.72301   0.03504   0.11137   0.00000  Uiso   1.00
H156   H     0.94278   0.29777   0.22205   0.00000  Uiso   1.00
N157   N     0.83335   0.16668   0.28403   0.00000  Uiso   1.00
N158   N     0.83332   0.16666   0.04931   0.00000  Uiso   1.00
N159   N     0.98980   0.13856   0.10856   0.00000  Uiso   1.00
N160   N     0.67687   0.19484   0.22475   0.00000  Uiso   1.00
N161   N     0.75952   0.04418   0.10437   0.00000  Uiso   1.00
N162   N     0.90612   0.28910   0.22899   0.00000  Uiso   1.00
N163   N     0.75829   0.29075   0.10336   0.00000  Uiso   1.00
N164   N     0.90593   0.04448   0.22973   0.00000  Uiso   1.00
O165   O     0.83333   0.10655   0.20625   0.00000  Uiso   1.00
O166   O     0.89615   0.21964   0.05844   0.00000  Uiso   1.00
O167   O     0.83334   0.22678   0.12709   0.00000  Uiso   1.00
O168   O     0.83333   0.10654   0.12706   0.00000  Uiso   1.00
O169   O     0.83334   0.22679   0.20628   0.00000  Uiso   1.00
O170   O     0.75828   0.16667   0.19712   0.00000  Uiso   1.00
O171   O     0.90839   0.16666   0.13621   0.00000  Uiso   1.00
O172   O     0.75828   0.16666   0.11793   0.00000  Uiso   1.00
O173   O     0.90839   0.16667   0.21540   0.00000  Uiso   1.00
O174   O     0.77050   0.11371   0.27489   0.00000  Uiso   1.00
C175   C     0.16654   0.42083   0.16676   0.00000  Uiso   1.00
C176   C     0.20222   0.35504   0.19850   0.00000  Uiso   1.00
C177   C     0.16628   0.62385   0.16622   0.00000  Uiso   1.00
C178   C     0.16624   0.37623   0.16695   0.00000  Uiso   1.00
C179   C     0.13525   0.47387   0.02150   0.00000  Uiso   1.00
C180   C     0.19808   0.52613   0.31184   0.00000  Uiso   1.00
C181   C     0.13431   0.47397   0.30452   0.00000  Uiso   1.00
C182   C     0.19901   0.52604   0.02881   0.00000  Uiso   1.00
C183   C     0.05882   0.43409   0.29304   0.00000  Uiso   1.00
C184   C     0.27451   0.56592   0.04030   0.00000  Uiso   1.00
C185   C     0.16633   0.57919   0.16649   0.00000  Uiso   1.00
C186   C     0.06817   0.49932   0.15492   0.00000  Uiso   1.00
C187   C     0.26517   0.50070   0.17841   0.00000  Uiso   1.00
C188   C     0.01349   0.49389   0.14937   0.00000  Uiso   1.00
C189   C     0.31985   0.50616   0.18395   0.00000  Uiso   1.00
C190   C     0.13014   0.35502   0.13527   0.00000  Uiso   1.00
C191   C     0.20229   0.64511   0.19810   0.00000  Uiso   1.00
C192   C     0.13001   0.64530   0.13481   0.00000  Uiso   1.00
Cu193  Cu    0.16667   0.50001   0.21355   0.00000  Uiso   1.00
Cu194  Cu    0.16667   0.49999   0.11978   0.00000  Uiso   1.00
H195   H     0.11139   0.45286   0.03876   0.00000  Uiso   1.00
H196   H     0.23559   0.62988   0.26388   0.00000  Uiso   1.00
H197   H     0.10944   0.60800   0.07850   0.00000  Uiso   1.00
H198   H     0.07207   0.60313   0.12279   0.00000  Uiso   1.00
H199   H     0.27596   0.37019   0.22260   0.00000  Uiso   1.00
H200   H     0.23550   0.36941   0.26449   0.00000  Uiso   1.00
H201   H     0.03959   0.45996   0.30901   0.00000  Uiso   1.00
H202   H     0.06730   0.40844   0.31873   0.00000  Uiso   1.00
H203   H     0.03144   0.42196   0.26348   0.00000  Uiso   1.00
H204   H     0.26602   0.59157   0.01462   0.00000  Uiso   1.00
H205   H     0.29372   0.54005   0.02431   0.00000  Uiso   1.00
H206   H     0.22194   0.54714   0.29457   0.00000  Uiso   1.00
H207   H     0.30188   0.57803   0.06987   0.00000  Uiso   1.00
H208   H     0.33107   0.48784   0.07839   0.00000  Uiso   1.00
H209   H     0.00672   0.44285   0.10831   0.00000  Uiso   1.00
H210   H     0.32660   0.55721   0.22499   0.00000  Uiso   1.00
H211   H     0.00229   0.51223   0.25492   0.00000  Uiso   1.00
H212   H     0.09664   0.36959   0.06959   0.00000  Uiso   1.00
H213   H     0.05635   0.36838   0.11137   0.00000  Uiso   1.00
H214   H     0.27611   0.63111   0.22205   0.00000  Uiso   1.00
N215   N     0.16668   0.50001   0.28403   0.00000  Uiso   1.00
N216   N     0.16665   0.49999   0.04931   0.00000  Uiso   1.00
N217   N     0.32313   0.47190   0.10856   0.00000  Uiso   1.00
N218   N     0.01020   0.52817   0.22475   0.00000  Uiso   1.00
N219   N     0.09285   0.37751   0.10437   0.00000  Uiso   1.00
N220   N     0.23945   0.62244   0.22899   0.00000  Uiso   1.00
N221   N     0.09162   0.62408   0.10336   0.00000  Uiso   1.00
N222   N     0.23926   0.37782   0.22973   0.00000  Uiso   1.00
O223   O     0.16666   0.43989   0.20625   0.00000  Uiso   1.00
O224   O     0.22948   0.55297   0.05844   0.00000  Uiso   1.00
O225   O     0.16667   0.56011   0.12709   0.00000  Uiso   1.00
O226   O     0.16666   0.43988   0.12706   0.00000  Uiso   1.00
O227   O     0.16667   0.56012   0.20628   0.00000  Uiso   1.00
O228   O     0.09161   0.50000   0.19712   0.00000  Uiso   1.00
O229   O     0.24172   0.50000   0.13621   0.00000  Uiso   1.00
O230   O     0.09161   0.49999   0.11793   0.00000  Uiso   1.00
O231   O     0.24172   0.50001   0.21540   0.00000  Uiso   1.00
O232   O     0.10383   0.44704   0.27489   0.00000  Uiso   1.00
C233   C     0.49987   0.42083   0.16676   0.00000  Uiso   1.00
C234   C     0.53555   0.35504   0.19850   0.00000  Uiso   1.00
C235   C     0.49962   0.62385   0.16622   0.00000  Uiso   1.00
C236   C     0.49957   0.37623   0.16695   0.00000  Uiso   1.00
C237   C     0.46858   0.47387   0.02150   0.00000  Uiso   1.00
C238   C     0.53141   0.52613   0.31184   0.00000  Uiso   1.00
C239   C     0.46765   0.47397   0.30452   0.00000  Uiso   1.00
C240   C     0.53234   0.52604   0.02881   0.00000  Uiso   1.00
C241   C     0.39215   0.43409   0.29304   0.00000  Uiso   1.00
C242   C     0.60784   0.56592   0.04030   0.00000  Uiso   1.00
C243   C     0.49966   0.57919   0.16649   0.00000  Uiso   1.00
C244   C     0.40150   0.49932   0.15492   0.00000  Uiso   1.00
C245   C     0.59850   0.50070   0.17841   0.00000  Uiso   1.00
C246   C     0.34682   0.49389   0.14937   0.00000  Uiso   1.00
C247   C     0.65318   0.50616   0.18395   0.00000  Uiso   1.00
C248   C     0.46348   0.35502   0.13527   0.00000  Uiso   1.00
C249   C     0.53563   0.64511   0.19810   0.00000  Uiso   1.00
C250   C     0.46334   0.64530   0.13481   0.00000  Uiso   1.00
Cu251  Cu    0.50000   0.50001   0.21355   0.00000  Uiso   1.00
Cu252  Cu    0.50000   0.49999   0.11978   0.00000  Uiso   1.00
H253   H     0.44472   0.45286   0.03876   0.00000  Uiso   1.00
H254   H     0.56892   0.62988   0.26388   0.00000  Uiso   1.00
H255   H     0.44277   0.60800   0.07850   0.00000  Uiso   1.00
H256   H     0.40541   0.60313   0.12279   0.00000  Uiso   1.00
H257   H     0.60930   0.37019   0.22260   0.00000  Uiso   1.00
H258   H     0.56883   0.36941   0.26449   0.00000  Uiso   1.00
H259   H     0.37293   0.45996   0.30901   0.00000  Uiso   1.00
H260   H     0.40064   0.40844   0.31873   0.00000  Uiso   1.00
H261   H     0.36478   0.42196   0.26348   0.00000  Uiso   1.00
H262   H     0.59936   0.59157   0.01462   0.00000  Uiso   1.00
H263   H     0.62705   0.54005   0.02431   0.00000  Uiso   1.00
H264   H     0.55527   0.54714   0.29457   0.00000  Uiso   1.00
H265   H     0.63522   0.57803   0.06987   0.00000  Uiso   1.00
H266   H     0.66440   0.48784   0.07839   0.00000  Uiso   1.00
H267   H     0.34005   0.44285   0.10831   0.00000  Uiso   1.00
H268   H     0.65993   0.55721   0.22499   0.00000  Uiso   1.00
H269   H     0.33562   0.51223   0.25492   0.00000  Uiso   1.00
H270   H     0.42997   0.36959   0.06959   0.00000  Uiso   1.00
H271   H     0.38968   0.36838   0.11137   0.00000  Uiso   1.00
H272   H     0.60944   0.63111   0.22205   0.00000  Uiso   1.00
N273   N     0.50001   0.50001   0.28403   0.00000  Uiso   1.00
N274   N     0.49999   0.49999   0.04931   0.00000  Uiso   1.00
N275   N     0.65647   0.47190   0.10856   0.00000  Uiso   1.00
N276   N     0.34353   0.52817   0.22475   0.00000  Uiso   1.00
N277   N     0.42618   0.37751   0.10437   0.00000  Uiso   1.00
N278   N     0.57278   0.62244   0.22899   0.00000  Uiso   1.00
N279   N     0.42496   0.62408   0.10336   0.00000  Uiso   1.00
N280   N     0.57259   0.37782   0.22973   0.00000  Uiso   1.00
O281   O     0.50000   0.43989   0.20625   0.00000  Uiso   1.00
O282   O     0.56282   0.55297   0.05844   0.00000  Uiso   1.00
O283   O     0.50000   0.56011   0.12709   0.00000  Uiso   1.00
O284   O     0.50000   0.43988   0.12706   0.00000  Uiso   1.00
O285   O     0.50000   0.56012   0.20628   0.00000  Uiso   1.00
O286   O     0.42495   0.50000   0.19712   0.00000  Uiso   1.00
O287   O     0.57505   0.50000   0.13621   0.00000  Uiso   1.00
O288   O     0.42494   0.49999   0.11793   0.00000  Uiso   1.00
O289   O     0.57506   0.50001   0.21540   0.00000  Uiso   1.00
O290   O     0.43717   0.44704   0.27489   0.00000  Uiso   1.00
C291   C     0.83320   0.42083   0.16676   0.00000  Uiso   1.00
C292   C     0.86888   0.35504   0.19850   0.00000  Uiso   1.00
C293   C     0.83295   0.62385   0.16622   0.00000  Uiso   1.00
C294   C     0.83290   0.37623   0.16695   0.00000  Uiso   1.00
C295   C     0.80191   0.47387   0.02150   0.00000  Uiso   1.00
C296   C     0.86475   0.52613   0.31184   0.00000  Uiso   1.00
C297   C     0.80098   0.47397   0.30452   0.00000  Uiso   1.00
C298   C     0.86568   0.52604   0.02881   0.00000  Uiso   1.00
C299   C     0.72548   0.43409   0.29304   0.00000  Uiso   1.00
C300   C     0.94117   0.56592   0.04030   0.00000  Uiso   1.00
C301   C     0.83299   0.57919   0.16649   0.00000  Uiso   1.00
C302   C     0.73484   0.49932   0.15492   0.00000  Uiso   1.00
C303   C     0.93183   0.50070   0.17841   0.00000  Uiso   1.00
C304   C     0.68015   0.49389   0.14937   0.00000  Uiso   1.00
C305   C     0.98651   0.50616   0.18395   0.00000  Uiso   1.00
C306   C     0.79681   0.35502   0.13527   0.00000  Uiso   1.00
C307   C     0.86896   0.64511   0.19810   0.00000  Uiso   1.00
C308   C     0.79667   0.64530   0.13481   0.00000  Uiso   1.00
Cu309  Cu    0.83333   0.50001   0.21355   0.00000  Uiso   1.00
Cu310  Cu    0.83333   0.49999   0.11978   0.00000  Uiso   1.00
H311   H     0.77805   0.45286   0.03876   0.00000  Uiso   1.00
H312   H     0.90225   0.62988   0.26388   0.00000  Uiso   1.00
H313   H     0.77610   0.60800   0.07850   0.00000  Uiso   1.00
H314   H     0.73874   0.60313   0.12279   0.00000  Uiso   1.00
H315   H     0.94263   0.37019   0.22260   0.00000  Uiso   1.00
H316   H     0.90217   0.36941   0.26449   0.00000  Uiso   1.00
H317   H     0.70626   0.45996   0.30901   0.00000  Uiso   1.00
H318   H     0.73397   0.40844   0.31873   0.00000  Uiso   1.00
H319   H     0.69811   0.42196   0.26348   0.00000  Uiso   1.00
H320   H     0.93269   0.59157   0.01462   0.00000  Uiso   1.00
H321   H     0.96039   0.54005   0.02431   0.00000  Uiso   1.00
H322   H     0.88861   0.54714   0.29457   0.00000  Uiso   1.00
H323   H     0.96855   0.57803   0.06987   0.00000  Uiso   1.00
H324   H     0.99773   0.48784   0.07839   0.00000  Uiso   1.00
H325   H     0.67339   0.44285   0.10831   0.00000  Uiso   1.00
H326   H     0.99326   0.55721   0.22499   0.00000  Uiso   1.00
H327   H     0.66896   0.51223   0.25492   0.00000  Uiso   1.00
H328   H     0.76331   0.36959   0.06959   0.00000  Uiso   1.00
H329   H     0.72301   0.36838   0.11137   0.00000  Uiso   1.00
H330   H     0.94278   0.63111   0.22205   0.00000  Uiso   1.00
N331   N     0.83335   0.50001   0.28403   0.00000  Uiso   1.00
N332   N     0.83332   0.49999   0.04931   0.00000  Uiso   1.00
N333   N     0.98980   0.47190   0.10856   0.00000  Uiso   1.00
N334   N     0.67687   0.52817   0.22475   0.00000  Uiso   1.00
N335   N     0.75952   0.37751   0.10437   0.00000  Uiso   1.00
N336   N     0.90612   0.62244   0.22899   0.00000  Uiso   1.00
N337   N     0.75829   0.62408   0.10336   0.00000  Uiso   1.00
N338   N     0.90593   0.37782   0.22973   0.00000  Uiso   1.00
O339   O     0.83333   0.43989   0.20625   0.00000  Uiso   1.00
O340   O     0.89615   0.55297   0.05844   0.00000  Uiso   1.00
O341   O     0.83334   0.56011   0.12709   0.00000  Uiso   1.00
O342   O     0.83333   0.43988   0.12706   0.00000  Uiso   1.00
O343   O     0.83334   0.56012   0.20628   0.00000  Uiso   1.00
O344   O     0.75828   0.50000   0.19712   0.00000  Uiso   1.00
O345   O     0.90839   0.50000   0.13621   0.00000  Uiso   1.00
O346   O     0.75828   0.49999   0.11793   0.00000  Uiso   1.00
O347   O     0.90839   0.50001   0.21540   0.00000  Uiso   1.00
O348   O     0.77050   0.44704   0.27489   0.00000  Uiso   1.00
C349   C     0.16654   0.75416   0.16676   0.00000  Uiso   1.00
C350   C     0.20222   0.68837   0.19850   0.00000  Uiso   1.00
C351   C     0.16628   0.95718   0.16622   0.00000  Uiso   1.00
C352   C     0.16624   0.70957   0.16695   0.00000  Uiso   1.00
C353   C     0.13525   0.80720   0.02150   0.00000  Uiso   1.00
C354   C     0.19808   0.85947   0.31184   0.00000  Uiso   1.00
C355   C     0.13431   0.80730   0.30452   0.00000  Uiso   1.00
C356   C     0.19901   0.85937   0.02881   0.00000  Uiso   1.00
C357   C     0.05882   0.76743   0.29304   0.00000  Uiso   1.00
C358   C     0.27451   0.89925   0.04030   0.00000  Uiso   1.00
C359   C     0.16633   0.91253   0.16649   0.00000  Uiso   1.00
C360   C     0.06817   0.83266   0.15492   0.00000  Uiso   1.00
C361   C     0.26517   0.83404   0.17841   0.00000  Uiso   1.00
C362   C     0.01349   0.82722   0.14937   0.00000  Uiso   1.00
C363   C     0.31985   0.83950   0.18395   0.00000  Uiso   1.00
C364   C     0.13014   0.68835   0.13527   0.00000  Uiso   1.00
C365   C     0.20229   0.97844   0.19810   0.00000  Uiso   1.00
C366   C     0.13001   0.97863   0.13481   0.00000  Uiso   1.00
Cu367  Cu    0.16667   0.83334   0.21355   0.00000  Uiso   1.00
Cu368  Cu    0.16667   0.83333   0.11978   0.00000  Uiso   1.00
H369   H     0.11139   0.78620   0.03876   0.00000  Uiso   1.00
H370   H     0.23559   0.96322   0.26388   0.00000  Uiso   1.00
H371   H     0.10944   0.94133   0.07850   0.00000  Uiso   1.00
H372   H     0.07207   0.93646   0.12279   0.00000  Uiso   1.00
H373   H     0.27596   0.70352   0.22260   0.00000  Uiso   1.00
H374   H     0.23550   0.70275   0.26449   0.00000  Uiso   1.00
H375   H     0.03959   0.79330   0.30901   0.00000  Uiso   1.00
H376   H     0.06730   0.74178   0.31873   0.00000  Uiso   1.00
H377   H     0.03144   0.75530   0.26348   0.00000  Uiso   1.00
H378   H     0.26602   0.92491   0.01462   0.00000  Uiso   1.00
H379   H     0.29372   0.87338   0.02431   0.00000  Uiso   1.00
H380   H     0.22194   0.88048   0.29457   0.00000  Uiso   1.00
H381   H     0.30188   0.91136   0.06987   0.00000  Uiso   1.00
H382   H     0.33107   0.82118   0.07839   0.00000  Uiso   1.00
H383   H     0.00672   0.77618   0.10831   0.00000  Uiso   1.00
H384   H     0.32660   0.89055   0.22499   0.00000  Uiso   1.00
H385   H     0.00229   0.84556   0.25492   0.00000  Uiso   1.00
H386   H     0.09664   0.70292   0.06959   0.00000  Uiso   1.00
H387   H     0.05635   0.70171   0.11137   0.00000  Uiso   1.00
H388   H     0.27611   0.96444   0.22205   0.00000  Uiso   1.00
N389   N     0.16668   0.83334   0.28403   0.00000  Uiso   1.00
N390   N     0.16665   0.83332   0.04931   0.00000  Uiso   1.00
N391   N     0.32313   0.80523   0.10856   0.00000  Uiso   1.00
N392   N     0.01020   0.86151   0.22475   0.00000  Uiso   1.00
N393   N     0.09285   0.71084   0.10437   0.00000  Uiso   1.00
N394   N     0.23945   0.95577   0.22899   0.00000  Uiso   1.00
N395   N     0.09162   0.95741   0.10336   0.00000  Uiso   1.00
N396   N     0.23926   0.71115   0.22973   0.00000  Uiso   1.00
O397   O     0.16666   0.77322   0.20625   0.00000  Uiso   1.00
O398   O     0.22948   0.88631   0.05844   0.00000  Uiso   1.00
O399   O     0.16667   0.89345   0.12709   0.00000  Uiso   1.00
O400   O     0.16666   0.77321   0.12706   0.00000  Uiso   1.00
O401   O     0.16667   0.89346   0.20628   0.00000  Uiso   1.00
O402   O     0.09161   0.83334   0.19712   0.00000  Uiso   1.00
O403   O     0.24172   0.83333   0.13621   0.00000  Uiso   1.00
O404   O     0.09161   0.83333   0.11793   0.00000  Uiso   1.00
O405   O     0.24172   0.83334   0.21540   0.00000  Uiso   1.00
O406   O     0.10383   0.78037   0.27489   0.00000  Uiso   1.00
C407   C     0.49987   0.75416   0.16676   0.00000  Uiso   1.00
C408   C     0.53555   0.68837   0.19850   0.00000  Uiso   1.00
C409   C     0.49962   0.95718   0.16622   0.00000  Uiso   1.00
C410   C     0.49957   0.70957   0.16695   0.00000  Uiso   1.00
C411   C     0.46858   0.80720   0.02150   0.00000  Uiso   1.00
C412   C     0.53141   0.85947   0.31184   0.00000  Uiso   1.00
C413   C     0.46765   0.80730   0.30452   0.00000  Uiso   1.00
C414   C     0.53234   0.85937   0.02881   0.00000  Uiso   1.00
C415   C     0.39215   0.76743   0.29304   0.00000  Uiso   1.00
C416   C     0.60784   0.89925   0.04030   0.00000  Uiso   1.00
C417   C     0.49966   0.91253   0.16649   0.00000  Uiso   1.00
C418   C     0.40150   0.83266   0.15492   0.00000  Uiso   1.00
C419   C     0.59850   0.83404   0.17841   0.00000  Uiso   1.00
C420   C     0.34682   0.82722   0.14937   0.00000  Uiso   1.00
C421   C     0.65318   0.83950   0.18395   0.00000  Uiso   1.00
C422   C     0.46348   0.68835   0.13527   0.00000  Uiso   1.00
C423   C     0.53563   0.97844   0.19810   0.00000  Uiso   1.00
C424   C     0.46334   0.97863   0.13481   0.00000  Uiso   1.00
Cu425  Cu    0.50000   0.83334   0.21355   0.00000  Uiso   1.00
Cu426  Cu    0.50000   0.83333   0.11978   0.00000  Uiso   1.00
H427   H     0.44472   0.78620   0.03876   0.00000  Uiso   1.00
H428   H     0.56892   0.96322   0.26388   0.00000  Uiso   1.00
H429   H     0.44277   0.94133   0.07850   0.00000  Uiso   1.00
H430   H     0.40541   0.93646   0.12279   0.00000  Uiso   1.00
H431   H     0.60930   0.70352   0.22260   0.00000  Uiso   1.00
H432   H     0.56883   0.70275   0.26449   0.00000  Uiso   1.00
H433   H     0.37293   0.79330   0.30901   0.00000  Uiso   1.00
H434   H     0.40064   0.74178   0.31873   0.00000  Uiso   1.00
H435   H     0.36478   0.75530   0.26348   0.00000  Uiso   1.00
H436   H     0.59936   0.92491   0.01462   0.00000  Uiso   1.00
H437   H     0.62705   0.87338   0.02431   0.00000  Uiso   1.00
H438   H     0.55527   0.88048   0.29457   0.00000  Uiso   1.00
H439   H     0.63522   0.91136   0.06987   0.00000  Uiso   1.00
H440   H     0.66440   0.82118   0.07839   0.00000  Uiso   1.00
H441   H     0.34005   0.77618   0.10831   0.00000  Uiso   1.00
H442   H     0.65993   0.89055   0.22499   0.00000  Uiso   1.00
H443   H     0.33562   0.84556   0.25492   0.00000  Uiso   1.00
H444   H     0.42997   0.70292   0.06959   0.00000  Uiso   1.00
H445   H     0.38968   0.70171   0.11137   0.00000  Uiso   1.00
H446   H     0.60944   0.96444   0.22205   0.00000  Uiso   1.00
N447   N     0.50001   0.83334   0.28403   0.00000  Uiso   1.00
N448   N     0.49999   0.83332   0.04931   0.00000  Uiso   1.00
N449   N     0.65647   0.80523   0.10856   0.00000  Uiso   1.00
N450   N     0.34353   0.86151   0.22475   0.00000  Uiso   1.00
N451   N     0.42618   0.71084   0.10437   0.00000  Uiso   1.00
N452   N     0.57278   0.95577   0.22899   0.00000  Uiso   1.00
N453   N     0.42496   0.95741   0.10336   0.00000  Uiso   1.00
N454   N     0.57259   0.71115   0.22973   0.00000  Uiso   1.00
O455   O     0.50000   0.77322   0.20625   0.00000  Uiso   1.00
O456   O     0.56282   0.88631   0.05844   0.00000  Uiso   1.00
O457   O     0.50000   0.89345   0.12709   0.00000  Uiso   1.00
O458   O     0.50000   0.77321   0.12706   0.00000  Uiso   1.00
O459   O     0.50000   0.89346   0.20628   0.00000  Uiso   1.00
O460   O     0.42495   0.83334   0.19712   0.00000  Uiso   1.00
O461   O     0.57505   0.83333   0.13621   0.00000  Uiso   1.00
O462   O     0.42494   0.83333   0.11793   0.00000  Uiso   1.00
O463   O     0.57506   0.83334   0.21540   0.00000  Uiso   1.00
O464   O     0.43717   0.78037   0.27489   0.00000  Uiso   1.00
C465   C     0.83320   0.75416   0.16676   0.00000  Uiso   1.00
C466   C     0.86888   0.68837   0.19850   0.00000  Uiso   1.00
C467   C     0.83295   0.95718   0.16622   0.00000  Uiso   1.00
C468   C     0.83290   0.70957   0.16695   0.00000  Uiso   1.00
C469   C     0.80191   0.80720   0.02150   0.00000  Uiso   1.00
C470   C     0.86475   0.85947   0.31184   0.00000  Uiso   1.00
C471   C     0.80098   0.80730   0.30452   0.00000  Uiso   1.00
C472   C     0.86568   0.85937   0.02881   0.00000  Uiso   1.00
C473   C     0.72548   0.76743   0.29304   0.00000  Uiso   1.00
C474   C     0.94117   0.89925   0.04030   0.00000  Uiso   1.00
C475   C     0.83299   0.91253   0.16649   0.00000  Uiso   1.00
C476   C     0.73484   0.83266   0.15492   0.00000  Uiso   1.00
C477   C     0.93183   0.83404   0.17841   0.00000  Uiso   1.00
C478   C     0.68015   0.82722   0.14937   0.00000  Uiso   1.00
C479   C     0.98651   0.83950   0.18395   0.00000  Uiso   1.00
C480   C     0.79681   0.68835   0.13527   0.00000  Uiso   1.00
C481   C     0.86896   0.97844   0.19810   0.00000  Uiso   1.00
C482   C     0.79667   0.97863   0.13481   0.00000  Uiso   1.00
Cu483  Cu    0.83333   0.83334   0.21355   0.00000  Uiso   1.00
Cu484  Cu    0.83333   0.83333   0.11978   0.00000  Uiso   1.00
H485   H     0.77805   0.78620   0.03876   0.00000  Uiso   1.00
H486   H     0.90225   0.96322   0.26388   0.00000  Uiso   1.00
H487   H     0.77610   0.94133   0.07850   0.00000  Uiso   1.00
H488   H     0.73874   0.93646   0.12279   0.00000  Uiso   1.00
H489   H     0.94263   0.70352   0.22260   0.00000  Uiso   1.00
H490   H     0.90217   0.70275   0.26449   0.00000  Uiso   1.00
H491   H     0.70626   0.79330   0.30901   0.00000  Uiso   1.00
H492   H     0.73397   0.74178   0.31873   0.00000  Uiso   1.00
H493   H     0.69811   0.75530   0.26348   0.00000  Uiso   1.00
H494   H     0.93269   0.92491   0.01462   0.00000  Uiso   1.00
H495   H     0.96039   0.87338   0.02431   0.00000  Uiso   1.00
H496   H     0.88861   0.88048   0.29457   0.00000  Uiso   1.00
H497   H     0.96855   0.91136   0.06987   0.00000  Uiso   1.00
H498   H     0.99773   0.82118   0.07839   0.00000  Uiso   1.00
H499   H     0.67339   0.77618   0.10831   0.00000  Uiso   1.00
H500   H     0.99326   0.89055   0.22499   0.00000  Uiso   1.00
H501   H     0.66896   0.84556   0.25492   0.00000  Uiso   1.00
H502   H     0.76331   0.70292   0.06959   0.00000  Uiso   1.00
H503   H     0.72301   0.70171   0.11137   0.00000  Uiso   1.00
H504   H     0.94278   0.96444   0.22205   0.00000  Uiso   1.00
N505   N     0.83335   0.83334   0.28403   0.00000  Uiso   1.00
N506   N     0.83332   0.83332   0.04931   0.00000  Uiso   1.00
N507   N     0.98980   0.80523   0.10856   0.00000  Uiso   1.00
N508   N     0.67687   0.86151   0.22475   0.00000  Uiso   1.00
N509   N     0.75952   0.71084   0.10437   0.00000  Uiso   1.00
N510   N     0.90612   0.95577   0.22899   0.00000  Uiso   1.00
N511   N     0.75829   0.95741   0.10336   0.00000  Uiso   1.00
N512   N     0.90593   0.71115   0.22973   0.00000  Uiso   1.00
O513   O     0.83333   0.77322   0.20625   0.00000  Uiso   1.00
O514   O     0.89615   0.88631   0.05844   0.00000  Uiso   1.00
O515   O     0.83334   0.89345   0.12709   0.00000  Uiso   1.00
O516   O     0.83333   0.77321   0.12706   0.00000  Uiso   1.00
O517   O     0.83334   0.89346   0.20628   0.00000  Uiso   1.00
O518   O     0.75828   0.83334   0.19712   0.00000  Uiso   1.00
O519   O     0.90839   0.83333   0.13621   0.00000  Uiso   1.00
O520   O     0.75828   0.83333   0.11793   0.00000  Uiso   1.00
O521   O     0.90839   0.83334   0.21540   0.00000  Uiso   1.00
O522   O     0.77050   0.78037   0.27489   0.00000  Uiso   1.00
C523   C     0.16654   0.08750   0.50010   0.00000  Uiso   1.00
C524   C     0.20222   0.02171   0.53183   0.00000  Uiso   1.00
C525   C     0.16628   0.29051   0.49956   0.00000  Uiso   1.00
C526   C     0.16624   0.04290   0.50028   0.00000  Uiso   1.00
C527   C     0.13525   0.14054   0.35483   0.00000  Uiso   1.00
C528   C     0.19808   0.19280   0.64517   0.00000  Uiso   1.00
C529   C     0.13431   0.14063   0.63785   0.00000  Uiso   1.00
C530   C     0.19901   0.19271   0.36215   0.00000  Uiso   1.00
C531   C     0.05882   0.10076   0.62637   0.00000  Uiso   1.00
C532   C     0.27451   0.23258   0.37363   0.00000  Uiso   1.00
C533   C     0.16633   0.24586   0.49982   0.00000  Uiso   1.00
C534   C     0.06817   0.16599   0.48825   0.00000  Uiso   1.00
C535   C     0.26517   0.16737   0.51174   0.00000  Uiso   1.00
C536   C     0.01349   0.16056   0.48271   0.00000  Uiso   1.00
C537   C     0.31985   0.17283   0.51728   0.00000  Uiso   1.00
C538   C     0.13014   0.02168   0.46861   0.00000  Uiso   1.00
C539   C     0.20229   0.31178   0.53144   0.00000  Uiso   1.00
C540   C     0.13001   0.31197   0.46814   0.00000  Uiso   1.00
Cu541  Cu    0.16667   0.16667   0.54689   0.00000  Uiso   1.00
Cu542  Cu    0.16667   0.16666   0.45311   0.00000  Uiso   1.00
H543   H     0.11139   0.11953   0.37210   0.00000  Uiso   1.00
H544   H     0.23559   0.29655   0.59721   0.00000  Uiso   1.00
H545   H     0.10944   0.27466   0.41183   0.00000  Uiso   1.00
H546   H     0.07207   0.26979   0.45612   0.00000  Uiso   1.00
H547   H     0.27596   0.03686   0.55594   0.00000  Uiso   1.00
H548   H     0.23550   0.03608   0.59783   0.00000  Uiso   1.00
H549   H     0.03959   0.12663   0.64234   0.00000  Uiso   1.00
H550   H     0.06730   0.07511   0.65207   0.00000  Uiso   1.00
H551   H     0.03144   0.08863   0.59681   0.00000  Uiso   1.00
H552   H     0.26602   0.25824   0.34795   0.00000  Uiso   1.00
H553   H     0.29372   0.20672   0.35765   0.00000  Uiso   1.00
H554   H     0.22194   0.21381   0.62791   0.00000  Uiso   1.00
H555   H     0.30188   0.24470   0.40320   0.00000  Uiso   1.00
H556   H     0.33107   0.15451   0.41173   0.00000  Uiso   1.00
H557   H     0.00672   0.10952   0.44164   0.00000  Uiso   1.00
H558   H     0.32660   0.22388   0.55833   0.00000  Uiso   1.00
H559   H     0.00229   0.17890   0.58826   0.00000  Uiso   1.00
H560   H     0.09664   0.03626   0.40292   0.00000  Uiso   1.00
H561   H     0.05635   0.03504   0.44471   0.00000  Uiso   1.00
H562   H     0.27611   0.29777   0.55538   0.00000  Uiso   1.00
N563   N     0.16668   0.16668   0.61736   0.00000  Uiso   1.00
N564   N     0.16665   0.16666   0.38264   0.00000  Uiso   1.00
N565   N     0.32313   0.13856   0.44189   0.00000  Uiso   1.00
N566   N     0.01020   0.19484   0.55808   0.00000  Uiso   1.00
N567   N     0.09285   0.04418   0.43770   0.00000  Uiso   1.00
N568   N     0.23945   0.28910   0.56233   0.00000  Uiso   1.00
N569   N     0.09162   0.29075   0.43670   0.00000  Uiso   1.00
N570   N     0.23926   0.04448   0.56306   0.00000  Uiso   1.00
O571   O     0.16666   0.10655   0.53958   0.00000  Uiso   1.00
O572   O     0.22948   0.21964   0.39177   0.00000  Uiso   1.00
O573   O     0.16667   0.22678   0.46042   0.00000  Uiso   1.00
O574   O     0.16666   0.10654   0.46039   0.00000  Uiso   1.00
O575   O     0.16667   0.22679   0.53961   0.00000  Uiso   1.00
O576   O     0.09161   0.16667   0.53046   0.00000  Uiso   1.00
O577   O     0.24172   0.16666   0.46954   0.00000  Uiso   1.00
O578   O     0.09161   0.16666   0.45127   0.00000  Uiso   1.00
O579   O     0.24172   0.16667   0.54873   0.00000  Uiso   1.00
O580   O     0.10383   0.11371   0.60823   0.00000  Uiso   1.00
C581   C     0.49987   0.08750   0.50010   0.00000  Uiso   1.00
C582   C     0.53555   0.02171   0.53183   0.00000  Uiso   1.00
C583   C     0.49962   0.29051   0.49956   0.00000  Uiso   1.00
C584   C     0.49957   0.04290   0.50028   0.00000  Uiso   1.00
C585   C     0.46858   0.14054   0.35483   0.00000  Uiso   1.00
C586   C     0.53141   0.19280   0.64517   0.00000  Uiso   1.00
C587   C     0.46765   0.14063   0.63785   0.00000  Uiso   1.00
C588   C     0.53234   0.19271   0.36215   0.00000  Uiso   1.00
C589   C     0.39215   0.10076   0.62637   0.00000  Uiso   1.00
C590   C     0.60784   0.23258   0.37363   0.00000  Uiso   1.00
C591   C     0.49966   0.24586   0.49982   0.00000  Uiso   1.00
C592   C     0.40150   0.16599   0.48825   0.00000  Uiso   1.00
C593   C     0.59850   0.16737   0.51174   0.00000  Uiso   1.00
C594   C     0.34682   0.16056   0.48271   0.00000  Uiso   1.00
C595   C     0.65318   0.17283   0.51728   0.00000  Uiso   1.00
C596   C     0.46348   0.02168   0.46861   0.00000  Uiso   1.00
C597   C     0.53563   0.31178   0.53144   0.00000  Uiso   1.00
C598   C     0.46334   0.31197   0.46814   0.00000  Uiso   1.00
Cu599  Cu    0.50000   0.16667   0.54689   0.00000  Uiso   1.00
Cu600  Cu    0.50000   0.16666   0.45311   0.00000  Uiso   1.00
H601   H     0.44472   0.11953   0.37210   0.00000  Uiso   1.00
H602   H     0.56892   0.29655   0.59721   0.00000  Uiso   1.00
H603   H     0.44277   0.27466   0.41183   0.00000  Uiso   1.00
H604   H     0.40541   0.26979   0.45612   0.00000  Uiso   1.00
H605   H     0.60930   0.03686   0.55594   0.00000  Uiso   1.00
H606   H     0.56883   0.03608   0.59783   0.00000  Uiso   1.00
H607   H     0.37293   0.12663   0.64234   0.00000  Uiso   1.00
H608   H     0.40064   0.07511   0.65207   0.00000  Uiso   1.00
H609   H     0.36478   0.08863   0.59681   0.00000  Uiso   1.00
H610   H     0.59936   0.25824   0.34795   0.00000  Uiso   1.00
H611   H     0.62705   0.20672   0.35765   0.00000  Uiso   1.00
H612   H     0.55527   0.21381   0.62791   0.00000  Uiso   1.00
H613   H     0.63522   0.24470   0.40320   0.00000  Uiso   1.00
H614   H     0.66440   0.15451   0.41173   0.00000  Uiso   1.00
H615   H     0.34005   0.10952   0.44164   0.00000  Uiso   1.00
H616   H     0.65993   0.22388   0.55833   0.00000  Uiso   1.00
H617   H     0.33562   0.17890   0.58826   0.00000  Uiso   1.00
H618   H     0.42997   0.03626   0.40292   0.00000  Uiso   1.00
H619   H     0.38968   0.03504   0.44471   0.00000  Uiso   1.00
H620   H     0.60944   0.29777   0.55538   0.00000  Uiso   1.00
N621   N     0.50001   0.16668   0.61736   0.00000  Uiso   1.00
N622   N     0.49999   0.16666   0.38264   0.00000  Uiso   1.00
N623   N     0.65647   0.13856   0.44189   0.00000  Uiso   1.00
N624   N     0.34353   0.19484   0.55808   0.00000  Uiso   1.00
N625   N     0.42618   0.04418   0.43770   0.00000  Uiso   1.00
N626   N     0.57278   0.28910   0.56233   0.00000  Uiso   1.00
N627   N     0.42496   0.29075   0.43670   0.00000  Uiso   1.00
N628   N     0.57259   0.04448   0.56306   0.00000  Uiso   1.00
O629   O     0.50000   0.10655   0.53958   0.00000  Uiso   1.00
O630   O     0.56282   0.21964   0.39177   0.00000  Uiso   1.00
O631   O     0.50000   0.22678   0.46042   0.00000  Uiso   1.00
O632   O     0.50000   0.10654   0.46039   0.00000  Uiso   1.00
O633   O     0.50000   0.22679   0.53961   0.00000  Uiso   1.00
O634   O     0.42495   0.16667   0.53046   0.00000  Uiso   1.00
O635   O     0.57505   0.16666   0.46954   0.00000  Uiso   1.00
O636   O     0.42494   0.16666   0.45127   0.00000  Uiso   1.00
O637   O     0.57506   0.16667   0.54873   0.00000  Uiso   1.00
O638   O     0.43717   0.11371   0.60823   0.00000  Uiso   1.00
C639   C     0.83320   0.08750   0.50010   0.00000  Uiso   1.00
C640   C     0.86888   0.02171   0.53183   0.00000  Uiso   1.00
C641   C     0.83295   0.29051   0.49956   0.00000  Uiso   1.00
C642   C     0.83290   0.04290   0.50028   0.00000  Uiso   1.00
C643   C     0.80191   0.14054   0.35483   0.00000  Uiso   1.00
C644   C     0.86475   0.19280   0.64517   0.00000  Uiso   1.00
C645   C     0.80098   0.14063   0.63785   0.00000  Uiso   1.00
C646   C     0.86568   0.19271   0.36215   0.00000  Uiso   1.00
C647   C     0.72548   0.10076   0.62637   0.00000  Uiso   1.00
C648   C     0.94117   0.23258   0.37363   0.00000  Uiso   1.00
C649   C     0.83299   0.24586   0.49982   0.00000  Uiso   1.00
C650   C     0.73484   0.16599   0.48825   0.00000  Uiso   1.00
C651   C     0.93183   0.16737   0.51174   0.00000  Uiso   1.00
C652   C     0.68015   0.16056   0.48271   0.00000  Uiso   1.00
C653   C     0.98651   0.17283   0.51728   0.00000  Uiso   1.00
C654   C     0.79681   0.02168   0.46861   0.00000  Uiso   1.00
C655   C     0.86896   0.31178   0.53144   0.00000  Uiso   1.00
C656   C     0.79667   0.31197   0.46814   0.00000  Uiso   1.00
Cu657  Cu    0.83333   0.16667   0.54689   0.00000  Uiso   1.00
Cu658  Cu    0.83333   0.16666   0.45311   0.00000  Uiso   1.00
H659   H     0.77805   0.11953   0.37210   0.00000  Uiso   1.00
H660   H     0.90225   0.29655   0.59721   0.00000  Uiso   1.00
H661   H     0.77610   0.27466   0.41183   0.00000  Uiso   1.00
H662   H     0.73874   0.26979   0.45612   0.00000  Uiso   1.00
H663   H     0.94263   0.03686   0.55594   0.00000  Uiso   1.00
H664   H     0.90217   0.03608   0.59783   0.00000  Uiso   1.00
H665   H     0.70626   0.12663   0.64234   0.00000  Uiso   1.00
H666   H     0.73397   0.07511   0.65207   0.00000  Uiso   1.00
H667   H     0.69811   0.08863   0.59681   0.00000  Uiso   1.00
H668   H     0.93269   0.25824   0.34795   0.00000  Uiso   1.00
H669   H     0.96039   0.20672   0.35765   0.00000  Uiso   1.00
H670   H     0.88861   0.21381   0.62791   0.00000  Uiso   1.00
H671   H     0.96855   0.24470   0.40320   0.00000  Uiso   1.00
H672   H     0.99773   0.15451   0.41173   0.00000  Uiso   1.00
H673   H     0.67339   0.10952   0.44164   0.00000  Uiso   1.00
H674   H     0.99326   0.22388   0.55833   0.00000  Uiso   1.00
H675   H     0.66896   0.17890   0.58826   0.00000  Uiso   1.00
H676   H     0.76331   0.03626   0.40292   0.00000  Uiso   1.00
H677   H     0.72301   0.03504   0.44471   0.00000  Uiso   1.00
H678   H     0.94278   0.29777   0.55538   0.00000  Uiso   1.00
N679   N     0.83335   0.16668   0.61736   0.00000  Uiso   1.00
N680   N     0.83332   0.16666   0.38264   0.00000  Uiso   1.00
N681   N     0.98980   0.13856   0.44189   0.00000  Uiso   1.00
N682   N     0.67687   0.19484   0.55808   0.00000  Uiso   1.00
N683   N     0.75952   0.04418   0.43770   0.00000  Uiso   1.00
N684   N     0.90612   0.28910   0.56233   0.00000  Uiso   1.00
N685   N     0.75829   0.29075   0.43670   0.00000  Uiso   1.00
N686   N     0.90593   0.04448   0.56306   0.00000  Uiso   1.00
O687   O     0.83333   0.10655   0.53958   0.00000  Uiso   1.00
O688   O     0.89615   0.21964   0.39177   0.00000  Uiso   1.00
O689   O     0.83334   0.22678   0.46042   0.00000  Uiso   1.00
O690   O     0.83333   0.10654   0.46039   0.00000  Uiso   1.00
O691   O     0.83334   0.22679   0.53961   0.00000  Uiso   1.00
O692   O     0.75828   0.16667   0.53046   0.00000  Uiso   1.00
O693   O     0.90839   0.16666   0.46954   0.00000  Uiso   1.00
O694   O     0.75828   0.16666   0.45127   0.00000  Uiso   1.00
O695   O     0.90839   0.16667   0.54873   0.00000  Uiso   1.00
O696   O     0.77050   0.11371   0.60823   0.00000  Uiso   1.00
C697   C     0.16654   0.42083   0.50010   0.00000  Uiso   1.00
C698   C     0.20222   0.35504   0.53183   0.00000  Uiso   1.00
C699   C     0.16628   0.62385   0.49956   0.00000  Uiso   1.00
C700   C     0.16624   0.37623   0.50028   0.00000  Uiso   1.00
C701   C     0.13525   0.47387   0.35483   0.00000  Uiso   1.00
C702   C     0.19808   0.52613   0.64517   0.00000  Uiso   1.00
C703   C     0.13431   0.47397   0.63785   0.00000  Uiso   1.00
C704   C     0.19901   0.52604   0.36215   0.00000  Uiso   1.00
C705   C     0.05882   0.43409   0.62637   0.00000  Uiso   1.00
C706   C     0.27451   0.56592   0.37363   0.00000  Uiso   1.00
C707   C     0.16633   0.57919   0.49982   0.00000  Uiso   1.00
C708   C     0.06817   0.49932   0.48825   0.00000  Uiso   1.00
C709   C     0.26517   0.50070   0.51174   0.00000  Uiso   1.00
C710   C     0.01349   0.49389   0.48271   0.00000  Uiso   1.00
C711   C     0.31985   0.50616   0.51728   0.00000  Uiso   1.00
C712   C     0.13014   0.35502   0.46861   0.00000  Uiso   1.00
C713   C     0.20229   0.64511   0.53144   0.00000  Uiso   1.00
C714   C     0.13001   0.64530   0.46814   0.00000  Uiso   1.00
Cu715  Cu    0.16667   0.50001   0.54689   0.00000  Uiso   1.00
Cu716  Cu    0.16667   0.49999   0.45311   0.00000  Uiso   1.00
H717   H     0.11139   0.45286   0.37210   0.00000  Uiso   1.00
H718   H     0.23559   0.62988   0.59721   0.00000  Uiso   1.00
H719   H     0.10944   0.60800   0.41183   0.00000  Uiso   1.00
H720   H     0.07207   0.60313   0.45612   0.00000  Uiso   1.00
H721   H     0.27596   0.37019   0.55594   0.00000  Uiso   1.00
H722   H     0.23550   0.36941   0.59783   0.00000  Uiso   1.00
H723   H     0.03959   0.45996   0.64234   0.00000  Uiso   1.00
H724   H     0.06730   0.40844   0.65207   0.00000  Uiso   1.00
H725   H     0.03144   0.42196   0.59681   0.00000  Uiso   1.00
H726   H     0.26602   0.59157   0.34795   0.00000  Uiso   1.00
H727   H     0.29372   0.54005   0.35765   0.00000  Uiso   1.00
H728   H     0.22194   0.54714   0.62791   0.00000  Uiso   1.00
H729   H     0.30188   0.57803   0.40320   0.00000  Uiso   1.00
H730   H     0.33107   0.48784   0.41173   0.00000  Uiso   1.00
H731   H     0.00672   0.44285   0.44164   0.00000  Uiso   1.00
H732   H     0.32660   0.55721   0.55833   0.00000  Uiso   1.00
H733   H     0.00229   0.51223   0.58826   0.00000  Uiso   1.00
H734   H     0.09664   0.36959   0.40292   0.00000  Uiso   1.00
H735   H     0.05635   0.36838   0.44471   0.00000  Uiso   1.00
H736   H     0.27611   0.63111   0.55538   0.00000  Uiso   1.00
N737   N     0.16668   0.50001   0.61736   0.00000  Uiso   1.00
N738   N     0.16665   0.49999   0.38264   0.00000  Uiso   1.00
N739   N     0.32313   0.47190   0.44189   0.00000  Uiso   1.00
N740   N     0.01020   0.52817   0.55808   0.00000  Uiso   1.00
N741   N     0.09285   0.37751   0.43770   0.00000  Uiso   1.00
N742   N     0.23945   0.62244   0.56233   0.00000  Uiso   1.00
N743   N     0.09162   0.62408   0.43670   0.00000  Uiso   1.00
N744   N     0.23926   0.37782   0.56306   0.00000  Uiso   1.00
O745   O     0.16666   0.43989   0.53958   0.00000  Uiso   1.00
O746   O     0.22948   0.55297   0.39177   0.00000  Uiso   1.00
O747   O     0.16667   0.56011   0.46042   0.00000  Uiso   1.00
O748   O     0.16666   0.43988   0.46039   0.00000  Uiso   1.00
O749   O     0.16667   0.56012   0.53961   0.00000  Uiso   1.00
O750   O     0.09161   0.50000   0.53046   0.00000  Uiso   1.00
O751   O     0.24172   0.50000   0.46954   0.00000  Uiso   1.00
O752   O     0.09161   0.49999   0.45127   0.00000  Uiso   1.00
O753   O     0.24172   0.50001   0.54873   0.00000  Uiso   1.00
O754   O     0.10383   0.44704   0.60823   0.00000  Uiso   1.00
C755   C     0.49987   0.42083   0.50010   0.00000  Uiso   1.00
C756   C     0.53555   0.35504   0.53183   0.00000  Uiso   1.00
C757   C     0.49962   0.62385   0.49956   0.00000  Uiso   1.00
C758   C     0.49957   0.37623   0.50028   0.00000  Uiso   1.00
C759   C     0.46858   0.47387   0.35483   0.00000  Uiso   1.00
C760   C     0.53141   0.52613   0.64517   0.00000  Uiso   1.00
C761   C     0.46765   0.47397   0.63785   0.00000  Uiso   1.00
C762   C     0.53234   0.52604   0.36215   0.00000  Uiso   1.00
C763   C     0.39215   0.43409   0.62637   0.00000  Uiso   1.00
C764   C     0.60784   0.56592   0.37363   0.00000  Uiso   1.00
C765   C     0.49966   0.57919   0.49982   0.00000  Uiso   1.00
C766   C     0.40150   0.49932   0.48825   0.00000  Uiso   1.00
C767   C     0.59850   0.50070   0.51174   0.00000  Uiso   1.00
C768   C     0.34682   0.49389   0.48271   0.00000  Uiso   1.00
C769   C     0.65318   0.50616   0.51728   0.00000  Uiso   1.00
C770   C     0.46348   0.35502   0.46861   0.00000  Uiso   1.00
C771   C     0.53563   0.64511   0.53144   0.00000  Uiso   1.00
C772   C     0.46334   0.64530   0.46814   0.00000  Uiso   1.00
Cu773  Cu    0.50000   0.50001   0.54689   0.00000  Uiso   1.00
Cu774  Cu    0.50000   0.49999   0.45311   0.00000  Uiso   1.00
H775   H     0.44472   0.45286   0.37210   0.00000  Uiso   1.00
H776   H     0.56892   0.62988   0.59721   0.00000  Uiso   1.00
H777   H     0.44277   0.60800   0.41183   0.00000  Uiso   1.00
H778   H     0.40541   0.60313   0.45612   0.00000  Uiso   1.00
H779   H     0.60930   0.37019   0.55594   0.00000  Uiso   1.00
H780   H     0.56883   0.36941   0.59783   0.00000  Uiso   1.00
H781   H     0.37293   0.45996   0.64234   0.00000  Uiso   1.00
H782   H     0.40064   0.40844   0.65207   0.00000  Uiso   1.00
H783   H     0.36478   0.42196   0.59681   0.00000  Uiso   1.00
H784   H     0.59936   0.59157   0.34795   0.00000  Uiso   1.00
H785   H     0.62705   0.54005   0.35765   0.00000  Uiso   1.00
H786   H     0.55527   0.54714   0.62791   0.00000  Uiso   1.00
H787   H     0.63522   0.57803   0.40320   0.00000  Uiso   1.00
H788   H     0.66440   0.48784   0.41173   0.00000  Uiso   1.00
H789   H     0.34005   0.44285   0.44164   0.00000  Uiso   1.00
H790   H     0.65993   0.55721   0.55833   0.00000  Uiso   1.00
H791   H     0.33562   0.51223   0.58826   0.00000  Uiso   1.00
H792   H     0.42997   0.36959   0.40292   0.00000  Uiso   1.00
H793   H     0.38968   0.36838   0.44471   0.00000  Uiso   1.00
H794   H     0.60944   0.63111   0.55538   0.00000  Uiso   1.00
N795   N     0.50001   0.50001   0.61736   0.00000  Uiso   1.00
N796   N     0.49999   0.49999   0.38264   0.00000  Uiso   1.00
N797   N     0.65647   0.47190   0.44189   0.00000  Uiso   1.00
N798   N     0.34353   0.52817   0.55808   0.00000  Uiso   1.00
N799   N     0.42618   0.37751   0.43770   0.00000  Uiso   1.00
N800   N     0.57278   0.62244   0.56233   0.00000  Uiso   1.00
N801   N     0.42496   0.62408   0.43670   0.00000  Uiso   1.00
N802   N     0.57259   0.37782   0.56306   0.00000  Uiso   1.00
O803   O     0.50000   0.43989   0.53958   0.00000  Uiso   1.00
O804   O     0.56282   0.55297   0.39177   0.00000  Uiso   1.00
O805   O     0.50000   0.56011   0.46042   0.00000  Uiso   1.00
O806   O     0.50000   0.43988   0.46039   0.00000  Uiso   1.00
O807   O     0.50000   0.56012   0.53961   0.00000  Uiso   1.00
O808   O     0.42495   0.50000   0.53046   0.00000  Uiso   1.00
O809   O     0.57505   0.50000   0.46954   0.00000  Uiso   1.00
O810   O     0.42494   0.49999   0.45127   0.00000  Uiso   1.00
O811   O     0.57506   0.50001   0.54873   0.00000  Uiso   1.00
O812   O     0.43717   0.44704   0.60823   0.00000  Uiso   1.00
C813   C     0.83320   0.42083   0.50010   0.00000  Uiso   1.00
C814   C     0.86888   0.35504   0.53183   0.00000  Uiso   1.00
C815   C     0.83295   0.62385   0.49956   0.00000  Uiso   1.00
C816   C     0.83290   0.37623   0.50028   0.00000  Uiso   1.00
C817   C     0.80191   0.47387   0.35483   0.00000  Uiso   1.00
C818   C     0.86475   0.52613   0.64517   0.00000  Uiso   1.00
C819   C     0.80098   0.47397   0.63785   0.00000  Uiso   1.00
C820   C     0.86568   0.52604   0.36215   0.00000  Uiso   1.00
C821   C     0.72548   0.43409   0.62637   0.00000  Uiso   1.00
C822   C     0.94117   0.56592   0.37363   0.00000  Uiso   1.00
C823   C     0.83299   0.57919   0.49982   0.00000  Uiso   1.00
C824   C     0.73484   0.49932   0.48825   0.00000  Uiso   1.00
C825   C     0.93183   0.50070   0.51174   0.00000  Uiso   1.00
C826   C     0.68015   0.49389   0.48271   0.00000  Uiso   1.00
C827   C     0.98651   0.50616   0.51728   0.00000  Uiso   1.00
C828   C     0.79681   0.35502   0.46861   0.00000  Uiso   1.00
C829   C     0.86896   0.64511   0.53144   0.00000  Uiso   1.00
C830   C     0.79667   0.64530   0.46814   0.00000  Uiso   1.00
Cu831  Cu    0.83333   0.50001   0.54689   0.00000  Uiso   1.00
Cu832  Cu    0.83333   0.49999   0.45311   0.00000  Uiso   1.00
H833   H     0.77805   0.45286   0.37210   0.00000  Uiso   1.00
H834   H     0.90225   0.62988   0.59721   0.00000  Uiso   1.00
H835   H     0.77610   0.60800   0.41183   0.00000  Uiso   1.00
H836   H     0.73874   0.60313   0.45612   0.00000  Uiso   1.00
H837   H     0.94263   0.37019   0.55594   0.00000  Uiso   1.00
H838   H     0.90217   0.36941   0.59783   0.00000  Uiso   1.00
H839   H     0.70626   0.45996   0.64234   0.00000  Uiso   1.00
H840   H     0.73397   0.40844   0.65207   0.00000  Uiso   1.00
H841   H     0.69811   0.42196   0.59681   0.00000  Uiso   1.00
H842   H     0.93269   0.59157   0.34795   0.00000  Uiso   1.00
H843   H     0.96039   0.54005   0.35765   0.00000  Uiso   1.00
H844   H     0.88861   0.54714   0.62791   0.00000  Uiso   1.00
H845   H     0.96855   0.57803   0.40320   0.00000  Uiso   1.00
H846   H     0.99773   0.48784   0.41173   0.00000  Uiso   1.00
H847   H     0.67339   0.44285   0.44164   0.00000  Uiso   1.00
H848   H     0.99326   0.55721   0.55833   0.00000  Uiso   1.00
H849   H     0.66896   0.51223   0.58826   0.00000  Uiso   1.00
H850   H     0.76331   0.36959   0.40292   0.00000  Uiso   1.00
H851   H     0.72301   0.36838   0.44471   0.00000  Uiso   1.00
H852   H     0.94278   0.63111   0.55538   0.00000  Uiso   1.00
N853   N     0.83335   0.50001   0.61736   0.00000  Uiso   1.00
N854   N     0.83332   0.49999   0.38264   0.00000  Uiso   1.00
N855   N     0.98980   0.47190   0.44189   0.00000  Uiso   1.00
N856   N     0.67687   0.52817   0.55808   0.00000  Uiso   1.00
N857   N     0.75952   0.37751   0.43770   0.00000  Uiso   1.00
N858   N     0.90612   0.62244   0.56233   0.00000  Uiso   1.00
N859   N     0.75829   0.62408   0.43670   0.00000  Uiso   1.00
N860   N     0.90593   0.37782   0.56306   0.00000  Uiso   1.00
O861   O     0.83333   0.43989   0.53958   0.00000  Uiso   1.00
O862   O     0.89615   0.55297   0.39177   0.00000  Uiso   1.00
O863   O     0.83334   0.56011   0.46042   0.00000  Uiso   1.00
O864   O     0.83333   0.43988   0.46039   0.00000  Uiso   1.00
O865   O     0.83334   0.56012   0.53961   0.00000  Uiso   1.00
O866   O     0.75828   0.50000   0.53046   0.00000  Uiso   1.00
O867   O     0.90839   0.50000   0.46954   0.00000  Uiso   1.00
O868   O     0.75828   0.49999   0.45127   0.00000  Uiso   1.00
O869   O     0.90839   0.50001   0.54873   0.00000  Uiso   1.00
O870   O     0.77050   0.44704   0.60823   0.00000  Uiso   1.00
C871   C     0.16654   0.75416   0.50010   0.00000  Uiso   1.00
C872   C     0.20222   0.68837   0.53183   0.00000  Uiso   1.00
C873   C     0.16628   0.95718   0.49956   0.00000  Uiso   1.00
C874   C     0.16624   0.70957   0.50028   0.00000  Uiso   1.00
C875   C     0.13525   0.80720   0.35483   0.00000  Uiso   1.00
C876   C     0.19808   0.85947   0.64517   0.00000  Uiso   1.00
C877   C     0.13431   0.80730   0.63785   0.00000  Uiso   1.00
C878   C     0.19901   0.85937   0.36215   0.00000  Uiso   1.00
C879   C     0.05882   0.76743   0.62637   0.00000  Uiso   1.00
C880   C     0.27451   0.89925   0.37363   0.00000  Uiso   1.00
C881   C     0.16633   0.91253   0.49982   0.00000  Uiso   1.00
C882   C     0.06817   0.83266   0.48825   0.00000  Uiso   1.00
C883   C     0.26517   0.83404   0.51174   0.00000  Uiso   1.00
C884   C     0.01349   0.82722   0.48271   0.00000  Uiso   1.00
C885   C     0.31985   0.83950   0.51728   0.00000  Uiso   1.00
C886   C     0.13014   0.68835   0.46861   0.00000  Uiso   1.00
C887   C     0.20229   0.97844   0.53144   0.00000  Uiso   1.00
C888   C     0.13001   0.97863   0.46814   0.00000  Uiso   1.00
Cu889  Cu    0.16667   0.83334   0.54689   0.00000  Uiso   1.00
Cu890  Cu    0.16667   0.83333   0.45311   0.00000  Uiso   1.00
H891   H     0.11139   0.78620   0.37210   0.00000  Uiso   1.00
H892   H     0.23559   0.96322   0.59721   0.00000  Uiso   1.00
H893   H     0.10944   0.94133   0.41183   0.00000  Uiso   1.00
H894   H     0.07207   0.93646   0.45612   0.00000  Uiso   1.00
H895   H     0.27596   0.70352   0.55594   0.00000  Uiso   1.00
H896   H     0.23550   0.70275   0.59783   0.00000  Uiso   1.00
H897   H     0.03959   0.79330   0.64234   0.00000  Uiso   1.00
H898   H     0.06730   0.74178   0.65207   0.00000  Uiso   1.00
H899   H     0.03144   0.75530   0.59681   0.00000  Uiso   1.00
H900   H     0.26602   0.92491   0.34795   0.00000  Uiso   1.00
H901   H     0.29372   0.87338   0.35765   0.00000  Uiso   1.00
H902   H     0.22194   0.88048   0.62791   0.00000  Uiso   1.00
H903   H     0.30188   0.91136   0.40320   0.00000  Uiso   1.00
H904   H     0.33107   0.82118   0.41173   0.00000  Uiso   1.00
H905   H     0.00672   0.77618   0.44164   0.00000  Uiso   1.00
H906   H     0.32660   0.89055   0.55833   0.00000  Uiso   1.00
H907   H     0.00229   0.84556   0.58826   0.00000  Uiso   1.00
H908   H     0.09664   0.70292   0.40292   0.00000  Uiso   1.00
H909   H     0.05635   0.70171   0.44471   0.00000  Uiso   1.00
H910   H     0.27611   0.96444   0.55538   0.00000  Uiso   1.00
N911   N     0.16668   0.83334   0.61736   0.00000  Uiso   1.00
N912   N     0.16665   0.83332   0.38264   0.00000  Uiso   1.00
N913   N     0.32313   0.80523   0.44189   0.00000  Uiso   1.00
N914   N     0.01020   0.86151   0.55808   0.00000  Uiso   1.00
N915   N     0.09285   0.71084   0.43770   0.00000  Uiso   1.00
N916   N     0.23945   0.95577   0.56233   0.00000  Uiso   1.00
N917   N     0.09162   0.95741   0.43670   0.00000  Uiso   1.00
N918   N     0.23926   0.71115   0.56306   0.00000  Uiso   1.00
O919   O     0.16666   0.77322   0.53958   0.00000  Uiso   1.00
O920   O     0.22948   0.88631   0.39177   0.00000  Uiso   1.00
O921   O     0.16667   0.89345   0.46042   0.00000  Uiso   1.00
O922   O     0.16666   0.77321   0.46039   0.00000  Uiso   1.00
O923   O     0.16667   0.89346   0.53961   0.00000  Uiso   1.00
O924   O     0.09161   0.83334   0.53046   0.00000  Uiso   1.00
O925   O     0.24172   0.83333   0.46954   0.00000  Uiso   1.00
O926   O     0.09161   0.83333   0.45127   0.00000  Uiso   1.00
O927   O     0.24172   0.83334   0.54873   0.00000  Uiso   1.00
O928   O     0.10383   0.78037   0.60823   0.00000  Uiso   1.00
C929   C     0.49987   0.75416   0.50010   0.00000  Uiso   1.00
C930   C     0.53555   0.68837   0.53183   0.00000  Uiso   1.00
C931   C     0.49962   0.95718   0.49956   0.00000  Uiso   1.00
C932   C     0.49957   0.70957   0.50028   0.00000  Uiso   1.00
C933   C     0.46858   0.80720   0.35483   0.00000  Uiso   1.00
C934   C     0.53141   0.85947   0.64517   0.00000  Uiso   1.00
C935   C     0.46765   0.80730   0.63785   0.00000  Uiso   1.00
C936   C     0.53234   0.85937   0.36215   0.00000  Uiso   1.00
C937   C     0.39215   0.76743   0.62637   0.00000  Uiso   1.00
C938   C     0.60784   0.89925   0.37363   0.00000  Uiso   1.00
C939   C     0.49966   0.91253   0.49982   0.00000  Uiso   1.00
C940   C     0.40150   0.83266   0.48825   0.00000  Uiso   1.00
C941   C     0.59850   0.83404   0.51174   0.00000  Uiso   1.00
C942   C     0.34682   0.82722   0.48271   0.00000  Uiso   1.00
C943   C     0.65318   0.83950   0.51728   0.00000  Uiso   1.00
C944   C     0.46348   0.68835   0.46861   0.00000  Uiso   1.00
C945   C     0.53563   0.97844   0.53144   0.00000  Uiso   1.00
C946   C     0.46334   0.97863   0.46814   0.00000  Uiso   1.00
Cu947  Cu    0.50000   0.83334   0.54689   0.00000  Uiso   1.00
Cu948  Cu    0.50000   0.83333   0.45311   0.00000  Uiso   1.00
H949   H     0.44472   0.78620   0.37210   0.00000  Uiso   1.00
H950   H     0.56892   0.96322   0.59721   0.00000  Uiso   1.00
H951   H     0.44277   0.94133   0.41183   0.00000  Uiso   1.00
H952   H     0.40541   0.93646   0.45612   0.00000  Uiso   1.00
H953   H     0.60930   0.70352   0.55594   0.00000  Uiso   1.00
H954   H     0.56883   0.70275   0.59783   0.00000  Uiso   1.00
H955   H     0.37293   0.79330   0.64234   0.00000  Uiso   1.00
H956   H     0.40064   0.74178   0.65207   0.00000  Uiso   1.00
H957   H     0.36478   0.75530   0.59681   0.00000  Uiso   1.00
H958   H     0.59936   0.92491   0.34795   0.00000  Uiso   1.00
H959   H     0.62705   0.87338   0.35765   0.00000  Uiso   1.00
H960   H     0.55527   0.88048   0.62791   0.00000  Uiso   1.00
H961   H     0.63522   0.91136   0.40320   0.00000  Uiso   1.00
H962   H     0.66440   0.82118   0.41173   0.00000  Uiso   1.00
H963   H     0.34005   0.77618   0.44164   0.00000  Uiso   1.00
H964   H     0.65993   0.89055   0.55833   0.00000  Uiso   1.00
H965   H     0.33562   0.84556   0.58826   0.00000  Uiso   1.00
H966   H     0.42997   0.70292   0.40292   0.00000  Uiso   1.00
H967   H     0.38968   0.70171   0.44471   0.00000  Uiso   1.00
H968   H     0.60944   0.96444   0.55538   0.00000  Uiso   1.00
N969   N     0.50001   0.83334   0.61736   0.00000  Uiso   1.00
N970   N     0.49999   0.83332   0.38264   0.00000  Uiso   1.00
N971   N     0.65647   0.80523   0.44189   0.00000  Uiso   1.00
N972   N     0.34353   0.86151   0.55808   0.00000  Uiso   1.00
N973   N     0.42618   0.71084   0.43770   0.00000  Uiso   1.00
N974   N     0.57278   0.95577   0.56233   0.00000  Uiso   1.00
N975   N     0.42496   0.95741   0.43670   0.00000  Uiso   1.00
N976   N     0.57259   0.71115   0.56306   0.00000  Uiso   1.00
O977   O     0.50000   0.77322   0.53958   0.00000  Uiso   1.00
O978   O     0.56282   0.88631   0.39177   0.00000  Uiso   1.00
O979   O     0.50000   0.89345   0.46042   0.00000  Uiso   1.00
O980   O     0.50000   0.77321   0.46039   0.00000  Uiso   1.00
O981   O     0.50000   0.89346   0.53961   0.00000  Uiso   1.00
O982   O     0.42495   0.83334   0.53046   0.00000  Uiso   1.00
O983   O     0.57505   0.83333   0.46954   0.00000  Uiso   1.00
O984   O     0.42494   0.83333   0.45127   0.00000  Uiso   1.00
O985   O     0.57506   0.83334   0.54873   0.00000  Uiso   1.00
O986   O     0.43717   0.78037   0.60823   0.00000  Uiso   1.00
C987   C     0.83320   0.75416   0.50010   0.00000  Uiso   1.00
C988   C     0.86888   0.68837   0.53183   0.00000  Uiso   1.00
C989   C     0.83295   0.95718   0.49956   0.00000  Uiso   1.00
C990   C     0.83290   0.70957   0.50028   0.00000  Uiso   1.00
C991   C     0.80191   0.80720   0.35483   0.00000  Uiso   1.00
C992   C     0.86475   0.85947   0.64517   0.00000  Uiso   1.00
C993   C     0.80098   0.80730   0.63785   0.00000  Uiso   1.00
C994   C     0.86568   0.85937   0.36215   0.00000  Uiso   1.00
C995   C     0.72548   0.76743   0.62637   0.00000  Uiso   1.00
C996   C     0.94117   0.89925   0.37363   0.00000  Uiso   1.00
C997   C     0.83299   0.91253   0.49982   0.00000  Uiso   1.00
C998   C     0.73484   0.83266   0.48825   0.00000  Uiso   1.00
C999   C     0.93183   0.83404   0.51174   0.00000  Uiso   1.00
C1000  C     0.68015   0.82722   0.48271   0.00000  Uiso   1.00
C1001  C     0.98651   0.83950   0.51728   0.00000  Uiso   1.00
C1002  C     0.79681   0.68835   0.46861   0.00000  Uiso   1.00
C1003  C     0.86896   0.97844   0.53144   0.00000  Uiso   1.00
C1004  C     0.79667   0.97863   0.46814   0.00000  Uiso   1.00
Cu1005 Cu    0.83333   0.83334   0.54689   0.00000  Uiso   1.00
Cu1006 Cu    0.83333   0.83333   0.45311   0.00000  Uiso   1.00
H1007  H     0.77805   0.78620   0.37210   0.00000  Uiso   1.00
H1008  H     0.90225   0.96322   0.59721   0.00000  Uiso   1.00
H1009  H     0.77610   0.94133   0.41183   0.00000  Uiso   1.00
H1010  H     0.73874   0.93646   0.45612   0.00000  Uiso   1.00
H1011  H     0.94263   0.70352   0.55594   0.00000  Uiso   1.00
H1012  H     0.90217   0.70275   0.59783   0.00000  Uiso   1.00
H1013  H     0.70626   0.79330   0.64234   0.00000  Uiso   1.00
H1014  H     0.73397   0.74178   0.65207   0.00000  Uiso   1.00
H1015  H     0.69811   0.75530   0.59681   0.00000  Uiso   1.00
H1016  H     0.93269   0.92491   0.34795   0.00000  Uiso   1.00
H1017  H     0.96039   0.87338   0.35765   0.00000  Uiso   1.00
H1018  H     0.88861   0.88048   0.62791   0.00000  Uiso   1.00
H1019  H     0.96855   0.91136   0.40320   0.00000  Uiso   1.00
H1020  H     0.99773   0.82118   0.41173   0.00000  Uiso   1.00
H1021  H     0.67339   0.77618   0.44164   0.00000  Uiso   1.00
H1022  H     0.99326   0.89055   0.55833   0.00000  Uiso   1.00
H1023  H     0.66896   0.84556   0.58826   0.00000  Uiso   1.00
H1024  H     0.76331   0.70292   0.40292   0.00000  Uiso   1.00
H1025  H     0.72301   0.70171   0.44471   0.00000  Uiso   1.00
H1026  H     0.94278   0.96444   0.55538   0.00000  Uiso   1.00
N1027  N     0.83335   0.83334   0.61736   0.00000  Uiso   1.00
N1028  N     0.83332   0.83332   0.38264   0.00000  Uiso   1.00
N1029  N     0.98980   0.80523   0.44189   0.00000  Uiso   1.00
N1030  N     0.67687   0.86151   0.55808   0.00000  Uiso   1.00
N1031  N     0.75952   0.71084   0.43770   0.00000  Uiso   1.00
N1032  N     0.90612   0.95577   0.56233   0.00000  Uiso   1.00
N1033  N     0.75829   0.95741   0.43670   0.00000  Uiso   1.00
N1034  N     0.90593   0.71115   0.56306   0.00000  Uiso   1.00
O1035  O     0.83333   0.77322   0.53958   0.00000  Uiso   1.00
O1036  O     0.89615   0.88631   0.39177   0.00000  Uiso   1.00
O1037  O     0.83334   0.89345   0.46042   0.00000  Uiso   1.00
O1038  O     0.83333   0.77321   0.46039   0.00000  Uiso   1.00
O1039  O     0.83334   0.89346   0.53961   0.00000  Uiso   1.00
O1040  O     0.75828   0.83334   0.53046   0.00000  Uiso   1.00
O1041  O     0.90839   0.83333   0.46954   0.00000  Uiso   1.00
O1042  O     0.75828   0.83333   0.45127   0.00000  Uiso   1.00
O1043  O     0.90839   0.83334   0.54873   0.00000  Uiso   1.00
O1044  O     0.77050   0.78037   0.60823   0.00000  Uiso   1.00
C1045  C     0.16654   0.08750   0.83343   0.00000  Uiso   1.00
C1046  C     0.20222   0.02171   0.86516   0.00000  Uiso   1.00
C1047  C     0.16628   0.29051   0.83289   0.00000  Uiso   1.00
C1048  C     0.16624   0.04290   0.83362   0.00000  Uiso   1.00
C1049  C     0.13525   0.14054   0.68816   0.00000  Uiso   1.00
C1050  C     0.19808   0.19280   0.97850   0.00000  Uiso   1.00
C1051  C     0.13431   0.14063   0.97119   0.00000  Uiso   1.00
C1052  C     0.19901   0.19271   0.69548   0.00000  Uiso   1.00
C1053  C     0.05882   0.10076   0.95970   0.00000  Uiso   1.00
C1054  C     0.27451   0.23258   0.70697   0.00000  Uiso   1.00
C1055  C     0.16633   0.24586   0.83315   0.00000  Uiso   1.00
C1056  C     0.06817   0.16599   0.82159   0.00000  Uiso   1.00
C1057  C     0.26517   0.16737   0.84508   0.00000  Uiso   1.00
C1058  C     0.01349   0.16056   0.81604   0.00000  Uiso   1.00
C1059  C     0.31985   0.17283   0.85061   0.00000  Uiso   1.00
C1060  C     0.13014   0.02168   0.80194   0.00000  Uiso   1.00
C1061  C     0.20229   0.31178   0.86477   0.00000  Uiso   1.00
C1062  C     0.13001   0.31197   0.80147   0.00000  Uiso   1.00
Cu1063 Cu    0.16667   0.16667   0.88022   0.00000  Uiso   1.00
Cu1064 Cu    0.16667   0.16666   0.78645   0.00000  Uiso   1.00
H1065  H     0.11139   0.11953   0.70543   0.00000  Uiso   1.00
H1066  H     0.23559   0.29655   0.93054   0.00000  Uiso   1.00
H1067  H     0.10944   0.27466   0.74516   0.00000  Uiso   1.00
H1068  H     0.07207   0.26979   0.78945   0.00000  Uiso   1.00
H1069  H     0.27596   0.03686   0.88927   0.00000  Uiso   1.00
H1070  H     0.23550   0.03608   0.93116   0.00000  Uiso   1.00
H1071  H     0.03959   0.12663   0.97568   0.00000  Uiso   1.00
H1072  H     0.06730   0.07511   0.98540   0.00000  Uiso   1.00
H1073  H     0.03144   0.08863   0.93015   0.00000  Uiso   1.00
H1074  H     0.26602   0.25824   0.68128   0.00000  Uiso   1.00
H1075  H     0.29372   0.20672   0.69098   0.00000  Uiso   1.00
H1076  H     0.22194   0.21381   0.96124   0.00000  Uiso   1.00
H1077  H     0.30188   0.24470   0.73653   0.00000  Uiso   1.00
H1078  H     0.33107   0.15451   0.74506   0.00000  Uiso   1.00
H1079  H     0.00672   0.10952   0.77497   0.00000  Uiso   1.00
H1080  H     0.32660   0.22388   0.89166   0.00000  Uiso   1.00
H1081  H     0.00229   0.17890   0.92159   0.00000  Uiso   1.00
H1082  H     0.09664   0.03626   0.73625   0.00000  Uiso   1.00
H1083  H     0.05635   0.03504   0.77804   0.00000  Uiso   1.00
H1084  H     0.27611   0.29777   0.88872   0.00000  Uiso   1.00
N1085  N     0.16668   0.16668   0.95069   0.00000  Uiso   1.00
N1086  N     0.16665   0.16666   0.71597   0.00000  Uiso   1.00
N1087  N     0.32313   0.13856   0.77522   0.00000  Uiso   1.00
N1088  N     0.01020   0.19484   0.89142   0.00000  Uiso   1.00
N1089  N     0.09285   0.04418   0.77104   0.00000  Uiso   1.00
N1090  N     0.23945   0.28910   0.89566   0.00000  Uiso   1.00
N1091  N     0.09162   0.29075   0.77003   0.00000  Uiso   1.00
N1092  N     0.23926   0.04448   0.89640   0.00000  Uiso   1.00
O1093  O     0.16666   0.10655   0.87291   0.00000  Uiso   1.00
O1094  O     0.22948   0.21964   0.72511   0.00000  Uiso   1.00
O1095  O     0.16667   0.22678   0.79375   0.00000  Uiso   1.00
O1096  O     0.16666   0.10654   0.79372   0.00000  Uiso   1.00
O1097  O     0.16667   0.22679   0.87294   0.00000  Uiso   1.00
O1098  O     0.09161   0.16667   0.86379   0.00000  Uiso   1.00
O1099  O     0.24172   0.16666   0.80288   0.00000  Uiso   1.00
O1100  O     0.09161   0.16666   0.78460   0.00000  Uiso   1.00
O1101  O     0.24172   0.16667   0.88207   0.00000  Uiso   1.00
O1102  O     0.10383   0.11371   0.94156   0.00000  Uiso   1.00
C1103  C     0.49987   0.08750   0.83343   0.00000  Uiso   1.00
C1104  C     0.53555   0.02171   0.86516   0.00000  Uiso   1.00
C1105  C     0.49962   0.29051   0.83289   0.00000  Uiso   1.00
C1106  C     0.49957   0.04290   0.83362   0.00000  Uiso   1.00
C1107  C     0.46858   0.14054   0.68816   0.00000  Uiso   1.00
C1108  C     0.53141   0.19280   0.97850   0.00000  Uiso   1.00
C1109  C     0.46765   0.14063   0.97119   0.00000  Uiso   1.00
C1110  C     0.53234   0.19271   0.69548   0.00000  Uiso   1.00
C1111  C     0.39215   0.10076   0.95970   0.00000  Uiso   1.00
C1112  C     0.60784   0.23258   0.70697   0.00000  Uiso   1.00
C1113  C     0.49966   0.24586   0.83315   0.00000  Uiso   1.00
C1114  C     0.40150   0.16599   0.82159   0.00000  Uiso   1.00
C1115  C     0.59850   0.16737   0.84508   0.00000  Uiso   1.00
C1116  C     0.34682   0.16056   0.81604   0.00000  Uiso   1.00
C1117  C     0.65318   0.17283   0.85061   0.00000  Uiso   1.00
C1118  C     0.46348   0.02168   0.80194   0.00000  Uiso   1.00
C1119  C     0.53563   0.31178   0.86477   0.00000  Uiso   1.00
C1120  C     0.46334   0.31197   0.80147   0.00000  Uiso   1.00
Cu1121 Cu    0.50000   0.16667   0.88022   0.00000  Uiso   1.00
Cu1122 Cu    0.50000   0.16666   0.78645   0.00000  Uiso   1.00
H1123  H     0.44472   0.11953   0.70543   0.00000  Uiso   1.00
H1124  H     0.56892   0.29655   0.93054   0.00000  Uiso   1.00
H1125  H     0.44277   0.27466   0.74516   0.00000  Uiso   1.00
H1126  H     0.40541   0.26979   0.78945   0.00000  Uiso   1.00
H1127  H     0.60930   0.03686   0.88927   0.00000  Uiso   1.00
H1128  H     0.56883   0.03608   0.93116   0.00000  Uiso   1.00
H1129  H     0.37293   0.12663   0.97568   0.00000  Uiso   1.00
H1130  H     0.40064   0.07511   0.98540   0.00000  Uiso   1.00
H1131  H     0.36478   0.08863   0.93015   0.00000  Uiso   1.00
H1132  H     0.59936   0.25824   0.68128   0.00000  Uiso   1.00
H1133  H     0.62705   0.20672   0.69098   0.00000  Uiso   1.00
H1134  H     0.55527   0.21381   0.96124   0.00000  Uiso   1.00
H1135  H     0.63522   0.24470   0.73653   0.00000  Uiso   1.00
H1136  H     0.66440   0.15451   0.74506   0.00000  Uiso   1.00
H1137  H     0.34005   0.10952   0.77497   0.00000  Uiso   1.00
H1138  H     0.65993   0.22388   0.89166   0.00000  Uiso   1.00
H1139  H     0.33562   0.17890   0.92159   0.00000  Uiso   1.00
H1140  H     0.42997   0.03626   0.73625   0.00000  Uiso   1.00
H1141  H     0.38968   0.03504   0.77804   0.00000  Uiso   1.00
H1142  H     0.60944   0.29777   0.88872   0.00000  Uiso   1.00
N1143  N     0.50001   0.16668   0.95069   0.00000  Uiso   1.00
N1144  N     0.49999   0.16666   0.71597   0.00000  Uiso   1.00
N1145  N     0.65647   0.13856   0.77522   0.00000  Uiso   1.00
N1146  N     0.34353   0.19484   0.89142   0.00000  Uiso   1.00
N1147  N     0.42618   0.04418   0.77104   0.00000  Uiso   1.00
N1148  N     0.57278   0.28910   0.89566   0.00000  Uiso   1.00
N1149  N     0.42496   0.29075   0.77003   0.00000  Uiso   1.00
N1150  N     0.57259   0.04448   0.89640   0.00000  Uiso   1.00
O1151  O     0.50000   0.10655   0.87291   0.00000  Uiso   1.00
O1152  O     0.56282   0.21964   0.72511   0.00000  Uiso   1.00
O1153  O     0.50000   0.22678   0.79375   0.00000  Uiso   1.00
O1154  O     0.50000   0.10654   0.79372   0.00000  Uiso   1.00
O1155  O     0.50000   0.22679   0.87294   0.00000  Uiso   1.00
O1156  O     0.42495   0.16667   0.86379   0.00000  Uiso   1.00
O1157  O     0.57505   0.16666   0.80288   0.00000  Uiso   1.00
O1158  O     0.42494   0.16666   0.78460   0.00000  Uiso   1.00
O1159  O     0.57506   0.16667   0.88207   0.00000  Uiso   1.00
O1160  O     0.43717   0.11371   0.94156   0.00000  Uiso   1.00
C1161  C     0.83320   0.08750   0.83343   0.00000  Uiso   1.00
C1162  C     0.86888   0.02171   0.86516   0.00000  Uiso   1.00
C1163  C     0.83295   0.29051   0.83289   0.00000  Uiso   1.00
C1164  C     0.83290   0.04290   0.83362   0.00000  Uiso   1.00
C1165  C     0.80191   0.14054   0.68816   0.00000  Uiso   1.00
C1166  C     0.86475   0.19280   0.97850   0.00000  Uiso   1.00
C1167  C     0.80098   0.14063   0.97119   0.00000  Uiso   1.00
C1168  C     0.86568   0.19271   0.69548   0.00000  Uiso   1.00
C1169  C     0.72548   0.10076   0.95970   0.00000  Uiso   1.00
C1170  C     0.94117   0.23258   0.70697   0.00000  Uiso   1.00
C1171  C     0.83299   0.24586   0.83315   0.00000  Uiso   1.00
C1172  C     0.73484   0.16599   0.82159   0.00000  Uiso   1.00
C1173  C     0.93183   0.16737   0.84508   0.00000  Uiso   1.00
C1174  C     0.68015   0.16056   0.81604   0.00000  Uiso   1.00
C1175  C     0.98651   0.17283   0.85061   0.00000  Uiso   1.00
C1176  C     0.79681   0.02168   0.80194   0.00000  Uiso   1.00
C1177  C     0.86896   0.31178   0.86477   0.00000  Uiso   1.00
C1178  C     0.79667   0.31197   0.80147   0.00000  Uiso   1.00
Cu1179 Cu    0.83333   0.16667   0.88022   0.00000  Uiso   1.00
Cu1180 Cu    0.83333   0.16666   0.78645   0.00000  Uiso   1.00
H1181  H     0.77805   0.11953   0.70543   0.00000  Uiso   1.00
H1182  H     0.90225   0.29655   0.93054   0.00000  Uiso   1.00
H1183  H     0.77610   0.27466   0.74516   0.00000  Uiso   1.00
H1184  H     0.73874   0.26979   0.78945   0.00000  Uiso   1.00
H1185  H     0.94263   0.03686   0.88927   0.00000  Uiso   1.00
H1186  H     0.90217   0.03608   0.93116   0.00000  Uiso   1.00
H1187  H     0.70626   0.12663   0.97568   0.00000  Uiso   1.00
H1188  H     0.73397   0.07511   0.98540   0.00000  Uiso   1.00
H1189  H     0.69811   0.08863   0.93015   0.00000  Uiso   1.00
H1190  H     0.93269   0.25824   0.68128   0.00000  Uiso   1.00
H1191  H     0.96039   0.20672   0.69098   0.00000  Uiso   1.00
H1192  H     0.88861   0.21381   0.96124   0.00000  Uiso   1.00
H1193  H     0.96855   0.24470   0.73653   0.00000  Uiso   1.00
H1194  H     0.99773   0.15451   0.74506   0.00000  Uiso   1.00
H1195  H     0.67339   0.10952   0.77497   0.00000  Uiso   1.00
H1196  H     0.99326   0.22388   0.89166   0.00000  Uiso   1.00
H1197  H     0.66896   0.17890   0.92159   0.00000  Uiso   1.00
H1198  H     0.76331   0.03626   0.73625   0.00000  Uiso   1.00
H1199  H     0.72301   0.03504   0.77804   0.00000  Uiso   1.00
H1200  H     0.94278   0.29777   0.88872   0.00000  Uiso   1.00
N1201  N     0.83335   0.16668   0.95069   0.00000  Uiso   1.00
N1202  N     0.83332   0.16666   0.71597   0.00000  Uiso   1.00
N1203  N     0.98980   0.13856   0.77522   0.00000  Uiso   1.00
N1204  N     0.67687   0.19484   0.89142   0.00000  Uiso   1.00
N1205  N     0.75952   0.04418   0.77104   0.00000  Uiso   1.00
N1206  N     0.90612   0.28910   0.89566   0.00000  Uiso   1.00
N1207  N     0.75829   0.29075   0.77003   0.00000  Uiso   1.00
N1208  N     0.90593   0.04448   0.89640   0.00000  Uiso   1.00
O1209  O     0.83333   0.10655   0.87291   0.00000  Uiso   1.00
O1210  O     0.89615   0.21964   0.72511   0.00000  Uiso   1.00
O1211  O     0.83334   0.22678   0.79375   0.00000  Uiso   1.00
O1212  O     0.83333   0.10654   0.79372   0.00000  Uiso   1.00
O1213  O     0.83334   0.22679   0.87294   0.00000  Uiso   1.00
O1214  O     0.75828   0.16667   0.86379   0.00000  Uiso   1.00
O1215  O     0.90839   0.16666   0.80288   0.00000  Uiso   1.00
O1216  O     0.75828   0.16666   0.78460   0.00000  Uiso   1.00
O1217  O     0.90839   0.16667   0.88207   0.00000  Uiso   1.00
O1218  O     0.77050   0.11371   0.94156   0.00000  Uiso   1.00
C1219  C     0.16654   0.42083   0.83343   0.00000  Uiso   1.00
C1220  C     0.20222   0.35504   0.86516   0.00000  Uiso   1.00
C1221  C     0.16628   0.62385   0.83289   0.00000  Uiso   1.00
C1222  C     0.16624   0.37623   0.83362   0.00000  Uiso   1.00
C1223  C     0.13525   0.47387   0.68816   0.00000  Uiso   1.00
C1224  C     0.19808   0.52613   0.97850   0.00000  Uiso   1.00
C1225  C     0.13431   0.47397   0.97119   0.00000  Uiso   1.00
C1226  C     0.19901   0.52604   0.69548   0.00000  Uiso   1.00
C1227  C     0.05882   0.43409   0.95970   0.00000  Uiso   1.00
C1228  C     0.27451   0.56592   0.70697   0.00000  Uiso   1.00
C1229  C     0.16633   0.57919   0.83315   0.00000  Uiso   1.00
C1230  C     0.06817   0.49932   0.82159   0.00000  Uiso   1.00
C1231  C     0.26517   0.50070   0.84508   0.00000  Uiso   1.00
C1232  C     0.01349   0.49389   0.81604   0.00000  Uiso   1.00
C1233  C     0.31985   0.50616   0.85061   0.00000  Uiso   1.00
C1234  C     0.13014   0.35502   0.80194   0.00000  Uiso   1.00
C1235  C     0.20229   0.64511   0.86477   0.00000  Uiso   1.00
C1236  C     0.13001   0.64530   0.80147   0.00000  Uiso   1.00
Cu1237 Cu    0.16667   0.50001   0.88022   0.00000  Uiso   1.00
Cu1238 Cu    0.16667   0.49999   0.78645   0.00000  Uiso   1.00
H1239  H     0.11139   0.45286   0.70543   0.00000  Uiso   1.00
H1240  H     0.23559   0.62988   0.93054   0.00000  Uiso   1.00
H1241  H     0.10944   0.60800   0.74516   0.00000  Uiso   1.00
H1242  H     0.07207   0.60313   0.78945   0.00000  Uiso   1.00
H1243  H     0.27596   0.37019   0.88927   0.00000  Uiso   1.00
H1244  H     0.23550   0.36941   0.93116   0.00000  Uiso   1.00
H1245  H     0.03959   0.45996   0.97568   0.00000  Uiso   1.00
H1246  H     0.06730   0.40844   0.98540   0.00000  Uiso   1.00
H1247  H     0.03144   0.42196   0.93015   0.00000  Uiso   1.00
H1248  H     0.26602   0.59157   0.68128   0.00000  Uiso   1.00
H1249  H     0.29372   0.54005   0.69098   0.00000  Uiso   1.00
H1250  H     0.22194   0.54714   0.96124   0.00000  Uiso   1.00
H1251  H     0.30188   0.57803   0.73653   0.00000  Uiso   1.00
H1252  H     0.33107   0.48784   0.74506   0.00000  Uiso   1.00
H1253  H     0.00672   0.44285   0.77497   0.00000  Uiso   1.00
H1254  H     0.32660   0.55721   0.89166   0.00000  Uiso   1.00
H1255  H     0.00229   0.51223   0.92159   0.00000  Uiso   1.00
H1256  H     0.09664   0.36959   0.73625   0.00000  Uiso   1.00
H1257  H     0.05635   0.36838   0.77804   0.00000  Uiso   1.00
H1258  H     0.27611   0.63111   0.88872   0.00000  Uiso   1.00
N1259  N     0.16668   0.50001   0.95069   0.00000  Uiso   1.00
N1260  N     0.16665   0.49999   0.71597   0.00000  Uiso   1.00
N1261  N     0.32313   0.47190   0.77522   0.00000  Uiso   1.00
N1262  N     0.01020   0.52817   0.89142   0.00000  Uiso   1.00
N1263  N     0.09285   0.37751   0.77104   0.00000  Uiso   1.00
N1264  N     0.23945   0.62244   0.89566   0.00000  Uiso   1.00
N1265  N     0.09162   0.62408   0.77003   0.00000  Uiso   1.00
N1266  N     0.23926   0.37782   0.89640   0.00000  Uiso   1.00
O1267  O     0.16666   0.43989   0.87291   0.00000  Uiso   1.00
O1268  O     0.22948   0.55297   0.72511   0.00000  Uiso   1.00
O1269  O     0.16667   0.56011   0.79375   0.00000  Uiso   1.00
O1270  O     0.16666   0.43988   0.79372   0.00000  Uiso   1.00
O1271  O     0.16667   0.56012   0.87294   0.00000  Uiso   1.00
O1272  O     0.09161   0.50000   0.86379   0.00000  Uiso   1.00
O1273  O     0.24172   0.50000   0.80288   0.00000  Uiso   1.00
O1274  O     0.09161   0.49999   0.78460   0.00000  Uiso   1.00
O1275  O     0.24172   0.50001   0.88207   0.00000  Uiso   1.00
O1276  O     0.10383   0.44704   0.94156   0.00000  Uiso   1.00
C1277  C     0.49987   0.42083   0.83343   0.00000  Uiso   1.00
C1278  C     0.53555   0.35504   0.86516   0.00000  Uiso   1.00
C1279  C     0.49962   0.62385   0.83289   0.00000  Uiso   1.00
C1280  C     0.49957   0.37623   0.83362   0.00000  Uiso   1.00
C1281  C     0.46858   0.47387   0.68816   0.00000  Uiso   1.00
C1282  C     0.53141   0.52613   0.97850   0.00000  Uiso   1.00
C1283  C     0.46765   0.47397   0.97119   0.00000  Uiso   1.00
C1284  C     0.53234   0.52604   0.69548   0.00000  Uiso   1.00
C1285  C     0.39215   0.43409   0.95970   0.00000  Uiso   1.00
C1286  C     0.60784   0.56592   0.70697   0.00000  Uiso   1.00
C1287  C     0.49966   0.57919   0.83315   0.00000  Uiso   1.00
C1288  C     0.40150   0.49932   0.82159   0.00000  Uiso   1.00
C1289  C     0.59850   0.50070   0.84508   0.00000  Uiso   1.00
C1290  C     0.34682   0.49389   0.81604   0.00000  Uiso   1.00
C1291  C     0.65318   0.50616   0.85061   0.00000  Uiso   1.00
C1292  C     0.46348   0.35502   0.80194   0.00000  Uiso   1.00
C1293  C     0.53563   0.64511   0.86477   0.00000  Uiso   1.00
C1294  C     0.46334   0.64530   0.80147   0.00000  Uiso   1.00
Cu1295 Cu    0.50000   0.50001   0.88022   0.00000  Uiso   1.00
Cu1296 Cu    0.50000   0.49999   0.78645   0.00000  Uiso   1.00
H1297  H     0.44472   0.45286   0.70543   0.00000  Uiso   1.00
H1298  H     0.56892   0.62988   0.93054   0.00000  Uiso   1.00
H1299  H     0.44277   0.60800   0.74516   0.00000  Uiso   1.00
H1300  H     0.40541   0.60313   0.78945   0.00000  Uiso   1.00
H1301  H     0.60930   0.37019   0.88927   0.00000  Uiso   1.00
H1302  H     0.56883   0.36941   0.93116   0.00000  Uiso   1.00
H1303  H     0.37293   0.45996   0.97568   0.00000  Uiso   1.00
H1304  H     0.40064   0.40844   0.98540   0.00000  Uiso   1.00
H1305  H     0.36478   0.42196   0.93015   0.00000  Uiso   1.00
H1306  H     0.59936   0.59157   0.68128   0.00000  Uiso   1.00
H1307  H     0.62705   0.54005   0.69098   0.00000  Uiso   1.00
H1308  H     0.55527   0.54714   0.96124   0.00000  Uiso   1.00
H1309  H     0.63522   0.57803   0.73653   0.00000  Uiso   1.00
H1310  H     0.66440   0.48784   0.74506   0.00000  Uiso   1.00
H1311  H     0.34005   0.44285   0.77497   0.00000  Uiso   1.00
H1312  H     0.65993   0.55721   0.89166   0.00000  Uiso   1.00
H1313  H     0.33562   0.51223   0.92159   0.00000  Uiso   1.00
H1314  H     0.42997   0.36959   0.73625   0.00000  Uiso   1.00
H1315  H     0.38968   0.36838   0.77804   0.00000  Uiso   1.00
H1316  H     0.60944   0.63111   0.88872   0.00000  Uiso   1.00
N1317  N     0.50001   0.50001   0.95069   0.00000  Uiso   1.00
N1318  N     0.49999   0.49999   0.71597   0.00000  Uiso   1.00
N1319  N     0.65647   0.47190   0.77522   0.00000  Uiso   1.00
N1320  N     0.34353   0.52817   0.89142   0.00000  Uiso   1.00
N1321  N     0.42618   0.37751   0.77104   0.00000  Uiso   1.00
N1322  N     0.57278   0.62244   0.89566   0.00000  Uiso   1.00
N1323  N     0.42496   0.62408   0.77003   0.00000  Uiso   1.00
N1324  N     0.57259   0.37782   0.89640   0.00000  Uiso   1.00
O1325  O     0.50000   0.43989   0.87291   0.00000  Uiso   1.00
O1326  O     0.56282   0.55297   0.72511   0.00000  Uiso   1.00
O1327  O     0.50000   0.56011   0.79375   0.00000  Uiso   1.00
O1328  O     0.50000   0.43988   0.79372   0.00000  Uiso   1.00
O1329  O     0.50000   0.56012   0.87294   0.00000  Uiso   1.00
O1330  O     0.42495   0.50000   0.86379   0.00000  Uiso   1.00
O1331  O     0.57505   0.50000   0.80288   0.00000  Uiso   1.00
O1332  O     0.42494   0.49999   0.78460   0.00000  Uiso   1.00
O1333  O     0.57506   0.50001   0.88207   0.00000  Uiso   1.00
O1334  O     0.43717   0.44704   0.94156   0.00000  Uiso   1.00
C1335  C     0.83320   0.42083   0.83343   0.00000  Uiso   1.00
C1336  C     0.86888   0.35504   0.86516   0.00000  Uiso   1.00
C1337  C     0.83295   0.62385   0.83289   0.00000  Uiso   1.00
C1338  C     0.83290   0.37623   0.83362   0.00000  Uiso   1.00
C1339  C     0.80191   0.47387   0.68816   0.00000  Uiso   1.00
C1340  C     0.86475   0.52613   0.97850   0.00000  Uiso   1.00
C1341  C     0.80098   0.47397   0.97119   0.00000  Uiso   1.00
C1342  C     0.86568   0.52604   0.69548   0.00000  Uiso   1.00
C1343  C     0.72548   0.43409   0.95970   0.00000  Uiso   1.00
C1344  C     0.94117   0.56592   0.70697   0.00000  Uiso   1.00
C1345  C     0.83299   0.57919   0.83315   0.00000  Uiso   1.00
C1346  C     0.73484   0.49932   0.82159   0.00000  Uiso   1.00
C1347  C     0.93183   0.50070   0.84508   0.00000  Uiso   1.00
C1348  C     0.68015   0.49389   0.81604   0.00000  Uiso   1.00
C1349  C     0.98651   0.50616   0.85061   0.00000  Uiso   1.00
C1350  C     0.79681   0.35502   0.80194   0.00000  Uiso   1.00
C1351  C     0.86896   0.64511   0.86477   0.00000  Uiso   1.00
C1352  C     0.79667   0.64530   0.80147   0.00000  Uiso   1.00
Cu1353 Cu    0.83333   0.50001   0.88022   0.00000  Uiso   1.00
Cu1354 Cu    0.83333   0.49999   0.78645   0.00000  Uiso   1.00
H1355  H     0.77805   0.45286   0.70543   0.00000  Uiso   1.00
H1356  H     0.90225   0.62988   0.93054   0.00000  Uiso   1.00
H1357  H     0.77610   0.60800   0.74516   0.00000  Uiso   1.00
H1358  H     0.73874   0.60313   0.78945   0.00000  Uiso   1.00
H1359  H     0.94263   0.37019   0.88927   0.00000  Uiso   1.00
H1360  H     0.90217   0.36941   0.93116   0.00000  Uiso   1.00
H1361  H     0.70626   0.45996   0.97568   0.00000  Uiso   1.00
H1362  H     0.73397   0.40844   0.98540   0.00000  Uiso   1.00
H1363  H     0.69811   0.42196   0.93015   0.00000  Uiso   1.00
H1364  H     0.93269   0.59157   0.68128   0.00000  Uiso   1.00
H1365  H     0.96039   0.54005   0.69098   0.00000  Uiso   1.00
H1366  H     0.88861   0.54714   0.96124   0.00000  Uiso   1.00
H1367  H     0.96855   0.57803   0.73653   0.00000  Uiso   1.00
H1368  H     0.99773   0.48784   0.74506   0.00000  Uiso   1.00
H1369  H     0.67339   0.44285   0.77497   0.00000  Uiso   1.00
H1370  H     0.99326   0.55721   0.89166   0.00000  Uiso   1.00
H1371  H     0.66896   0.51223   0.92159   0.00000  Uiso   1.00
H1372  H     0.76331   0.36959   0.73625   0.00000  Uiso   1.00
H1373  H     0.72301   0.36838   0.77804   0.00000  Uiso   1.00
H1374  H     0.94278   0.63111   0.88872   0.00000  Uiso   1.00
N1375  N     0.83335   0.50001   0.95069   0.00000  Uiso   1.00
N1376  N     0.83332   0.49999   0.71597   0.00000  Uiso   1.00
N1377  N     0.98980   0.47190   0.77522   0.00000  Uiso   1.00
N1378  N     0.67687   0.52817   0.89142   0.00000  Uiso   1.00
N1379  N     0.75952   0.37751   0.77104   0.00000  Uiso   1.00
N1380  N     0.90612   0.62244   0.89566   0.00000  Uiso   1.00
N1381  N     0.75829   0.62408   0.77003   0.00000  Uiso   1.00
N1382  N     0.90593   0.37782   0.89640   0.00000  Uiso   1.00
O1383  O     0.83333   0.43989   0.87291   0.00000  Uiso   1.00
O1384  O     0.89615   0.55297   0.72511   0.00000  Uiso   1.00
O1385  O     0.83334   0.56011   0.79375   0.00000  Uiso   1.00
O1386  O     0.83333   0.43988   0.79372   0.00000  Uiso   1.00
O1387  O     0.83334   0.56012   0.87294   0.00000  Uiso   1.00
O1388  O     0.75828   0.50000   0.86379   0.00000  Uiso   1.00
O1389  O     0.90839   0.50000   0.80288   0.00000  Uiso   1.00
O1390  O     0.75828   0.49999   0.78460   0.00000  Uiso   1.00
O1391  O     0.90839   0.50001   0.88207   0.00000  Uiso   1.00
O1392  O     0.77050   0.44704   0.94156   0.00000  Uiso   1.00
C1393  C     0.16654   0.75416   0.83343   0.00000  Uiso   1.00
C1394  C     0.20222   0.68837   0.86516   0.00000  Uiso   1.00
C1395  C     0.16628   0.95718   0.83289   0.00000  Uiso   1.00
C1396  C     0.16624   0.70957   0.83362   0.00000  Uiso   1.00
C1397  C     0.13525   0.80720   0.68816   0.00000  Uiso   1.00
C1398  C     0.19808   0.85947   0.97850   0.00000  Uiso   1.00
C1399  C     0.13431   0.80730   0.97119   0.00000  Uiso   1.00
C1400  C     0.19901   0.85937   0.69548   0.00000  Uiso   1.00
C1401  C     0.05882   0.76743   0.95970   0.00000  Uiso   1.00
C1402  C     0.27451   0.89925   0.70697   0.00000  Uiso   1.00
C1403  C     0.16633   0.91253   0.83315   0.00000  Uiso   1.00
C1404  C     0.06817   0.83266   0.82159   0.00000  Uiso   1.00
C1405  C     0.26517   0.83404   0.84508   0.00000  Uiso   1.00
C1406  C     0.01349   0.82722   0.81604   0.00000  Uiso   1.00
C1407  C     0.31985   0.83950   0.85061   0.00000  Uiso   1.00
C1408  C     0.13014   0.68835   0.80194   0.00000  Uiso   1.00
C1409  C     0.20229   0.97844   0.86477   0.00000  Uiso   1.00
C1410  C     0.13001   0.97863   0.80147   0.00000  Uiso   1.00
Cu1411 Cu    0.16667   0.83334   0.88022   0.00000  Uiso   1.00
Cu1412 Cu    0.16667   0.83333   0.78645   0.00000  Uiso   1.00
H1413  H     0.11139   0.78620   0.70543   0.00000  Uiso   1.00
H1414  H     0.23559   0.96322   0.93054   0.00000  Uiso   1.00
H1415  H     0.10944   0.94133   0.74516   0.00000  Uiso   1.00
H1416  H     0.07207   0.93646   0.78945   0.00000  Uiso   1.00
H1417  H     0.27596   0.70352   0.88927   0.00000  Uiso   1.00
H1418  H     0.23550   0.70275   0.93116   0.00000  Uiso   1.00
H1419  H     0.03959   0.79330   0.97568   0.00000  Uiso   1.00
H1420  H     0.06730   0.74178   0.98540   0.00000  Uiso   1.00
H1421  H     0.03144   0.75530   0.93015   0.00000  Uiso   1.00
H1422  H     0.26602   0.92491   0.68128   0.00000  Uiso   1.00
H1423  H     0.29372   0.87338   0.69098   0.00000  Uiso   1.00
H1424  H     0.22194   0.88048   0.96124   0.00000  Uiso   1.00
H1425  H     0.30188   0.91136   0.73653   0.00000  Uiso   1.00
H1426  H     0.33107   0.82118   0.74506   0.00000  Uiso   1.00
H1427  H     0.00672   0.77618   0.77497   0.00000  Uiso   1.00
H1428  H     0.32660   0.89055   0.89166   0.00000  Uiso   1.00
H1429  H     0.00229   0.84556   0.92159   0.00000  Uiso   1.00
H1430  H     0.09664   0.70292   0.73625   0.00000  Uiso   1.00
H1431  H     0.05635   0.70171   0.77804   0.00000  Uiso   1.00
H1432  H     0.27611   0.96444   0.88872   0.00000  Uiso   1.00
N1433  N     0.16668   0.83334   0.95069   0.00000  Uiso   1.00
N1434  N     0.16665   0.83332   0.71597   0.00000  Uiso   1.00
N1435  N     0.32313   0.80523   0.77522   0.00000  Uiso   1.00
N1436  N     0.01020   0.86151   0.89142   0.00000  Uiso   1.00
N1437  N     0.09285   0.71084   0.77104   0.00000  Uiso   1.00
N1438  N     0.23945   0.95577   0.89566   0.00000  Uiso   1.00
N1439  N     0.09162   0.95741   0.77003   0.00000  Uiso   1.00
N1440  N     0.23926   0.71115   0.89640   0.00000  Uiso   1.00
O1441  O     0.16666   0.77322   0.87291   0.00000  Uiso   1.00
O1442  O     0.22948   0.88631   0.72511   0.00000  Uiso   1.00
O1443  O     0.16667   0.89345   0.79375   0.00000  Uiso   1.00
O1444  O     0.16666   0.77321   0.79372   0.00000  Uiso   1.00
O1445  O     0.16667   0.89346   0.87294   0.00000  Uiso   1.00
O1446  O     0.09161   0.83334   0.86379   0.00000  Uiso   1.00
O1447  O     0.24172   0.83333   0.80288   0.00000  Uiso   1.00
O1448  O     0.09161   0.83333   0.78460   0.00000  Uiso   1.00
O1449  O     0.24172   0.83334   0.88207   0.00000  Uiso   1.00
O1450  O     0.10383   0.78037   0.94156   0.00000  Uiso   1.00
C1451  C     0.49987   0.75416   0.83343   0.00000  Uiso   1.00
C1452  C     0.53555   0.68837   0.86516   0.00000  Uiso   1.00
C1453  C     0.49962   0.95718   0.83289   0.00000  Uiso   1.00
C1454  C     0.49957   0.70957   0.83362   0.00000  Uiso   1.00
C1455  C     0.46858   0.80720   0.68816   0.00000  Uiso   1.00
C1456  C     0.53141   0.85947   0.97850   0.00000  Uiso   1.00
C1457  C     0.46765   0.80730   0.97119   0.00000  Uiso   1.00
C1458  C     0.53234   0.85937   0.69548   0.00000  Uiso   1.00
C1459  C     0.39215   0.76743   0.95970   0.00000  Uiso   1.00
C1460  C     0.60784   0.89925   0.70697   0.00000  Uiso   1.00
C1461  C     0.49966   0.91253   0.83315   0.00000  Uiso   1.00
C1462  C     0.40150   0.83266   0.82159   0.00000  Uiso   1.00
C1463  C     0.59850   0.83404   0.84508   0.00000  Uiso   1.00
C1464  C     0.34682   0.82722   0.81604   0.00000  Uiso   1.00
C1465  C     0.65318   0.83950   0.85061   0.00000  Uiso   1.00
C1466  C     0.46348   0.68835   0.80194   0.00000  Uiso   1.00
C1467  C     0.53563   0.97844   0.86477   0.00000  Uiso   1.00
C1468  C     0.46334   0.97863   0.80147   0.00000  Uiso   1.00
Cu1469 Cu    0.50000   0.83334   0.88022   0.00000  Uiso   1.00
Cu1470 Cu    0.50000   0.83333   0.78645   0.00000  Uiso   1.00
H1471  H     0.44472   0.78620   0.70543   0.00000  Uiso   1.00
H1472  H     0.56892   0.96322   0.93054   0.00000  Uiso   1.00
H1473  H     0.44277   0.94133   0.74516   0.00000  Uiso   1.00
H1474  H     0.40541   0.93646   0.78945   0.00000  Uiso   1.00
H1475  H     0.60930   0.70352   0.88927   0.00000  Uiso   1.00
H1476  H     0.56883   0.70275   0.93116   0.00000  Uiso   1.00
H1477  H     0.37293   0.79330   0.97568   0.00000  Uiso   1.00
H1478  H     0.40064   0.74178   0.98540   0.00000  Uiso   1.00
H1479  H     0.36478   0.75530   0.93015   0.00000  Uiso   1.00
H1480  H     0.59936   0.92491   0.68128   0.00000  Uiso   1.00
H1481  H     0.62705   0.87338   0.69098   0.00000  Uiso   1.00
H1482  H     0.55527   0.88048   0.96124   0.00000  Uiso   1.00
H1483  H     0.63522   0.91136   0.73653   0.00000  Uiso   1.00
H1484  H     0.66440   0.82118   0.74506   0.00000  Uiso   1.00
H1485  H     0.34005   0.77618   0.77497   0.00000  Uiso   1.00
H1486  H     0.65993   0.89055   0.89166   0.00000  Uiso   1.00
H1487  H     0.33562   0.84556   0.92159   0.00000  Uiso   1.00
H1488  H     0.42997   0.70292   0.73625   0.00000  Uiso   1.00
H1489  H     0.38968   0.70171   0.77804   0.00000  Uiso   1.00
H1490  H     0.60944   0.96444   0.88872   0.00000  Uiso   1.00
N1491  N     0.50001   0.83334   0.95069   0.00000  Uiso   1.00
N1492  N     0.49999   0.83332   0.71597   0.00000  Uiso   1.00
N1493  N     0.65647   0.80523   0.77522   0.00000  Uiso   1.00
N1494  N     0.34353   0.86151   0.89142   0.00000  Uiso   1.00
N1495  N     0.42618   0.71084   0.77104   0.00000  Uiso   1.00
N1496  N     0.57278   0.95577   0.89566   0.00000  Uiso   1.00
N1497  N     0.42496   0.95741   0.77003   0.00000  Uiso   1.00
N1498  N     0.57259   0.71115   0.89640   0.00000  Uiso   1.00
O1499  O     0.50000   0.77322   0.87291   0.00000  Uiso   1.00
O1500  O     0.56282   0.88631   0.72511   0.00000  Uiso   1.00
O1501  O     0.50000   0.89345   0.79375   0.00000  Uiso   1.00
O1502  O     0.50000   0.77321   0.79372   0.00000  Uiso   1.00
O1503  O     0.50000   0.89346   0.87294   0.00000  Uiso   1.00
O1504  O     0.42495   0.83334   0.86379   0.00000  Uiso   1.00
O1505  O     0.57505   0.83333   0.80288   0.00000  Uiso   1.00
O1506  O     0.42494   0.83333   0.78460   0.00000  Uiso   1.00
O1507  O     0.57506   0.83334   0.88207   0.00000  Uiso   1.00
O1508  O     0.43717   0.78037   0.94156   0.00000  Uiso   1.00
C1509  C     0.83320   0.75416   0.83343   0.00000  Uiso   1.00
C1510  C     0.86888   0.68837   0.86516   0.00000  Uiso   1.00
C1511  C     0.83295   0.95718   0.83289   0.00000  Uiso   1.00
C1512  C     0.83290   0.70957   0.83362   0.00000  Uiso   1.00
C1513  C     0.80191   0.80720   0.68816   0.00000  Uiso   1.00
C1514  C     0.86475   0.85947   0.97850   0.00000  Uiso   1.00
C1515  C     0.80098   0.80730   0.97119   0.00000  Uiso   1.00
C1516  C     0.86568   0.85937   0.69548   0.00000  Uiso   1.00
C1517  C     0.72548   0.76743   0.95970   0.00000  Uiso   1.00
C1518  C     0.94117   0.89925   0.70697   0.00000  Uiso   1.00
C1519  C     0.83299   0.91253   0.83315   0.00000  Uiso   1.00
C1520  C     0.73484   0.83266   0.82159   0.00000  Uiso   1.00
C1521  C     0.93183   0.83404   0.84508   0.00000  Uiso   1.00
C1522  C     0.68015   0.82722   0.81604   0.00000  Uiso   1.00
C1523  C     0.98651   0.83950   0.85061   0.00000  Uiso   1.00
C1524  C     0.79681   0.68835   0.80194   0.00000  Uiso   1.00
C1525  C     0.86896   0.97844   0.86477   0.00000  Uiso   1.00
C1526  C     0.79667   0.97863   0.80147   0.00000  Uiso   1.00
Cu1527 Cu    0.83333   0.83334   0.88022   0.00000  Uiso   1.00
Cu1528 Cu    0.83333   0.83333   0.78645   0.00000  Uiso   1.00
H1529  H     0.77805   0.78620   0.70543   0.00000  Uiso   1.00
H1530  H     0.90225   0.96322   0.93054   0.00000  Uiso   1.00
H1531  H     0.77610   0.94133   0.74516   0.00000  Uiso   1.00
H1532  H     0.73874   0.93646   0.78945   0.00000  Uiso   1.00
H1533  H     0.94263   0.70352   0.88927   0.00000  Uiso   1.00
H1534  H     0.90217   0.70275   0.93116   0.00000  Uiso   1.00
H1535  H     0.70626   0.79330   0.97568   0.00000  Uiso   1.00
H1536  H     0.73397   0.74178   0.98540   0.00000  Uiso   1.00
H1537  H     0.69811   0.75530   0.93015   0.00000  Uiso   1.00
H1538  H     0.93269   0.92491   0.68128   0.00000  Uiso   1.00
H1539  H     0.96039   0.87338   0.69098   0.00000  Uiso   1.00
H1540  H     0.88861   0.88048   0.96124   0.00000  Uiso   1.00
H1541  H     0.96855   0.91136   0.73653   0.00000  Uiso   1.00
H1542  H     0.99773   0.82118   0.74506   0.00000  Uiso   1.00
H1543  H     0.67339   0.77618   0.77497   0.00000  Uiso   1.00
H1544  H     0.99326   0.89055   0.89166   0.00000  Uiso   1.00
H1545  H     0.66896   0.84556   0.92159   0.00000  Uiso   1.00
H1546  H     0.76331   0.70292   0.73625   0.00000  Uiso   1.00
H1547  H     0.72301   0.70171   0.77804   0.00000  Uiso   1.00
H1548  H     0.94278   0.96444   0.88872   0.00000  Uiso   1.00
N1549  N     0.83335   0.83334   0.95069   0.00000  Uiso   1.00
N1550  N     0.83332   0.83332   0.71597   0.00000  Uiso   1.00
N1551  N     0.98980   0.80523   0.77522   0.00000  Uiso   1.00
N1552  N     0.67687   0.86151   0.89142   0.00000  Uiso   1.00
N1553  N     0.75952   0.71084   0.77104   0.00000  Uiso   1.00
N1554  N     0.90612   0.95577   0.89566   0.00000  Uiso   1.00
N1555  N     0.75829   0.95741   0.77003   0.00000  Uiso   1.00
N1556  N     0.90593   0.71115   0.89640   0.00000  Uiso   1.00
O1557  O     0.83333   0.77322   0.87291   0.00000  Uiso   1.00
O1558  O     0.89615   0.88631   0.72511   0.00000  Uiso   1.00
O1559  O     0.83334   0.89345   0.79375   0.00000  Uiso   1.00
O1560  O     0.83333   0.77321   0.79372   0.00000  Uiso   1.00
O1561  O     0.83334   0.89346   0.87294   0.00000  Uiso   1.00
O1562  O     0.75828   0.83334   0.86379   0.00000  Uiso   1.00
O1563  O     0.90839   0.83333   0.80288   0.00000  Uiso   1.00
O1564  O     0.75828   0.83333   0.78460   0.00000  Uiso   1.00
O1565  O     0.90839   0.83334   0.88207   0.00000  Uiso   1.00
O1566  O     0.77050   0.78037   0.94156   0.00000  Uiso   1.00
loop_
_geom_bond_atom_site_label_1
_geom_bond_atom_site_label_2
_geom_bond_distance
_geom_bond_site_symmetry_2
_ccdc_geom_bond_type
C1     C4      1.444   .     S
C1     O52     1.289   .     A
C1     O49     1.289   .     A
C2     C4      1.404   .     A
C2     N48     1.437   .     S
C2     C365    1.401   1_545 S
C3     C17     1.406   .     A
C3     C11     1.446   .     S
C3     C18     1.411   .     A
C4     C16     1.404   .     A
C5     N42     1.363   .     A
C5     H21     1.080   .     S
C5     C1051   1.435   1_554 S
C6     H32     1.080   .     S
C6     N41     1.363   .     A
C6     C530    1.435   .     S
C7     O58     1.394   .     S
C7     N41     1.373   .     A
C7     C527    1.435   .     S
C8     O50     1.394   .     S
C8     N42     1.373   .     A
C8     C1050   1.435   1_554 S
C9     H29     1.110   .     S
C9     H27     1.113   .     S
C9     O58     1.411   .     S
C9     H28     1.111   .     S
C10    H33     1.110   .     S
C10    O50     1.411   .     S
C10    H30     1.111   .     S
C10    H31     1.113   .     S
C11    O53     1.290   .     A
C11    O51     1.289   .     A
C12    O56     1.290   .     A
C12    C14     1.437   .     S
C12    O54     1.284   .     A
C13    C15     1.437   .     S
C13    O57     1.290   .     A
C13    O55     1.284   .     A
C14    C131    1.352   1_455 S
C14    N159    1.440   1_455 S
C15    C72     1.352   .     S
C15    N102    1.440   .     S
C16    N45     1.436   .     S
C16    C366    1.394   1_545 S
C17    N46     1.437   .     S
C17    C176    1.401   .     S
C18    N47     1.437   .     S
C18    C190    1.394   .     S
Cu19   O49     1.959   .     S
Cu19   Cu20    2.680   .     S
Cu19   O53     1.957   .     S
Cu19   O57     1.970   .     S
Cu19   O54     1.972   .     S
Cu19   N41     2.014   .     S
Cu20   N42     2.014   .     S
Cu20   O56     1.970   .     S
Cu20   O52     1.957   .     S
Cu20   O55     1.972   .     S
Cu20   O51     1.959   .     S
H22    N46     1.045   .     S
H23    N47     1.045   .     S
H24    N47     1.046   .     S
H25    N48     1.045   .     S
H26    N48     1.045   .     S
H34    N43     1.045   .     S
H35    N159    1.046   1_455 S
H36    N102    1.046   .     S
H37    N44     1.045   .     S
H38    N45     1.046   .     S
H39    N45     1.046   .     S
H40    N46     1.045   .     S
N43    H93     1.046   .     S
N43    C72     1.440   .     S
N44    H152    1.046   1_455 S
N44    C131    1.440   1_455 S
C59    C62     1.444   .     S
C59    O110    1.289   .     A
C59    O107    1.289   .     A
C60    C62     1.404   .     A
C60    N106    1.437   .     S
C60    C423    1.401   1_545 S
C61    C75     1.406   .     A
C61    C69     1.446   .     S
C61    C76     1.411   .     A
C62    C74     1.404   .     A
C63    N100    1.363   .     A
C63    H79     1.080   .     S
C63    C1109   1.435   1_554 S
C64    H90     1.080   .     S
C64    N99     1.363   .     A
C64    C588    1.435   .     S
C65    O116    1.394   .     S
C65    N99     1.373   .     A
C65    C585    1.435   .     S
C66    O108    1.394   .     S
C66    N100    1.373   .     A
C66    C1108   1.435   1_554 S
C67    H87     1.110   .     S
C67    H85     1.113   .     S
C67    O116    1.411   .     S
C67    H86     1.111   .     S
C68    H91     1.110   .     S
C68    O108    1.411   .     S
C68    H88     1.111   .     S
C68    H89     1.113   .     S
C69    O111    1.290   .     A
C69    O109    1.289   .     A
C70    O114    1.290   .     A
C70    C72     1.437   .     S
C70    O112    1.284   .     A
C71    C73     1.437   .     S
C71    O115    1.290   .     A
C71    O113    1.284   .     A
C73    C130    1.352   .     S
C73    N160    1.440   .     S
C74    N103    1.436   .     S
C74    C424    1.394   1_545 S
C75    N104    1.437   .     S
C75    C234    1.401   .     S
C76    N105    1.437   .     S
C76    C248    1.394   .     S
Cu77   O107    1.959   .     S
Cu77   Cu78    2.680   .     S
Cu77   O111    1.957   .     S
Cu77   O115    1.970   .     S
Cu77   O112    1.972   .     S
Cu77   N99     2.014   .     S
Cu78   N100    2.014   .     S
Cu78   O114    1.970   .     S
Cu78   O110    1.957   .     S
Cu78   O113    1.972   .     S
Cu78   O109    1.959   .     S
H80    N104    1.045   .     S
H81    N105    1.045   .     S
H82    N105    1.046   .     S
H83    N106    1.045   .     S
H84    N106    1.045   .     S
H92    N101    1.045   .     S
H94    N160    1.046   .     S
H95    N102    1.045   .     S
H96    N103    1.046   .     S
H97    N103    1.046   .     S
H98    N104    1.045   .     S
N101   H151    1.046   .     S
N101   C130    1.440   .     S
C117   C120    1.444   .     S
C117   O168    1.289   .     A
C117   O165    1.289   .     A
C118   C120    1.404   .     A
C118   N164    1.437   .     S
C118   C481    1.401   1_545 S
C119   C133    1.406   .     A
C119   C127    1.446   .     S
C119   C134    1.411   .     A
C120   C132    1.404   .     A
C121   N158    1.363   .     A
C121   H137    1.080   .     S
C121   C1167   1.435   1_554 S
C122   H148    1.080   .     S
C122   N157    1.363   .     A
C122   C646    1.435   .     S
C123   O174    1.394   .     S
C123   N157    1.373   .     A
C123   C643    1.435   .     S
C124   O166    1.394   .     S
C124   N158    1.373   .     A
C124   C1166   1.435   1_554 S
C125   H145    1.110   .     S
C125   H143    1.113   .     S
C125   O174    1.411   .     S
C125   H144    1.111   .     S
C126   H149    1.110   .     S
C126   O166    1.411   .     S
C126   H146    1.111   .     S
C126   H147    1.113   .     S
C127   O169    1.290   .     A
C127   O167    1.289   .     A
C128   O172    1.290   .     A
C128   C130    1.437   .     S
C128   O170    1.284   .     A
C129   C131    1.437   .     S
C129   O173    1.290   .     A
C129   O171    1.284   .     A
C131   C14     1.352   1_655 S
C131   N44     1.440   1_655 S
C132   N161    1.436   .     S
C132   C482    1.394   1_545 S
C133   N162    1.437   .     S
C133   C292    1.401   .     S
C134   N163    1.437   .     S
C134   C306    1.394   .     S
Cu135  O165    1.959   .     S
Cu135  Cu136   2.680   .     S
Cu135  O169    1.957   .     S
Cu135  O173    1.970   .     S
Cu135  O170    1.972   .     S
Cu135  N157    2.014   .     S
Cu136  N158    2.014   .     S
Cu136  O172    1.970   .     S
Cu136  O168    1.957   .     S
Cu136  O171    1.972   .     S
Cu136  O167    1.959   .     S
H138   N162    1.045   .     S
H139   N163    1.045   .     S
H140   N163    1.046   .     S
H141   N164    1.045   .     S
H142   N164    1.045   .     S
H150   N159    1.045   .     S
H152   N44     1.046   1_655 S
H153   N160    1.045   .     S
H154   N161    1.046   .     S
H155   N161    1.046   .     S
H156   N162    1.045   .     S
N159   H35     1.046   1_655 S
N159   C14     1.440   1_655 S
C175   C178    1.444   .     S
C175   O226    1.289   .     A
C175   O223    1.289   .     A
C176   C178    1.404   .     A
C176   N222    1.437   .     S
C177   C191    1.406   .     A
C177   C185    1.446   .     S
C177   C192    1.411   .     A
C178   C190    1.404   .     A
C179   N216    1.363   .     A
C179   H195    1.080   .     S
C179   C1225   1.435   1_554 S
C180   H206    1.080   .     S
C180   N215    1.363   .     A
C180   C704    1.435   .     S
C181   O232    1.394   .     S
C181   N215    1.373   .     A
C181   C701    1.435   .     S
C182   O224    1.394   .     S
C182   N216    1.373   .     A
C182   C1224   1.435   1_554 S
C183   H203    1.110   .     S
C183   H201    1.113   .     S
C183   O232    1.411   .     S
C183   H202    1.111   .     S
C184   H207    1.110   .     S
C184   O224    1.411   .     S
C184   H204    1.111   .     S
C184   H205    1.113   .     S
C185   O227    1.290   .     A
C185   O225    1.289   .     A
C186   O230    1.290   .     A
C186   C188    1.437   .     S
C186   O228    1.284   .     A
C187   C189    1.437   .     S
C187   O231    1.290   .     A
C187   O229    1.284   .     A
C188   C305    1.352   1_455 S
C188   N333    1.440   1_455 S
C189   C246    1.352   .     S
C189   N276    1.440   .     S
C190   N219    1.436   .     S
C191   N220    1.437   .     S
C191   C350    1.401   .     S
C192   N221    1.437   .     S
C192   C364    1.394   .     S
Cu193  O223    1.959   .     S
Cu193  Cu194   2.680   .     S
Cu193  O227    1.957   .     S
Cu193  O231    1.970   .     S
Cu193  O228    1.972   .     S
Cu193  N215    2.014   .     S
Cu194  N216    2.014   .     S
Cu194  O230    1.970   .     S
Cu194  O226    1.957   .     S
Cu194  O229    1.972   .     S
Cu194  O225    1.959   .     S
H196   N220    1.045   .     S
H197   N221    1.045   .     S
H198   N221    1.046   .     S
H199   N222    1.045   .     S
H200   N222    1.045   .     S
H208   N217    1.045   .     S
H209   N333    1.046   1_455 S
H210   N276    1.046   .     S
H211   N218    1.045   .     S
H212   N219    1.046   .     S
H213   N219    1.046   .     S
H214   N220    1.045   .     S
N217   H267    1.046   .     S
N217   C246    1.440   .     S
N218   H326    1.046   1_455 S
N218   C305    1.440   1_455 S
C233   C236    1.444   .     S
C233   O284    1.289   .     A
C233   O281    1.289   .     A
C234   C236    1.404   .     A
C234   N280    1.437   .     S
C235   C249    1.406   .     A
C235   C243    1.446   .     S
C235   C250    1.411   .     A
C236   C248    1.404   .     A
C237   N274    1.363   .     A
C237   H253    1.080   .     S
C237   C1283   1.435   1_554 S
C238   H264    1.080   .     S
C238   N273    1.363   .     A
C238   C762    1.435   .     S
C239   O290    1.394   .     S
C239   N273    1.373   .     A
C239   C759    1.435   .     S
C240   O282    1.394   .     S
C240   N274    1.373   .     A
C240   C1282   1.435   1_554 S
C241   H261    1.110   .     S
C241   H259    1.113   .     S
C241   O290    1.411   .     S
C241   H260    1.111   .     S
C242   H265    1.110   .     S
C242   O282    1.411   .     S
C242   H262    1.111   .     S
C242   H263    1.113   .     S
C243   O285    1.290   .     A
C243   O283    1.289   .     A
C244   O288    1.290   .     A
C244   C246    1.437   .     S
C244   O286    1.284   .     A
C245   C247    1.437   .     S
C245   O289    1.290   .     A
C245   O287    1.284   .     A
C247   C304    1.352   .     S
C247   N334    1.440   .     S
C248   N277    1.436   .     S
C249   N278    1.437   .     S
C249   C408    1.401   .     S
C250   N279    1.437   .     S
C250   C422    1.394   .     S
Cu251  O281    1.959   .     S
Cu251  Cu252   2.680   .     S
Cu251  O285    1.957   .     S
Cu251  O289    1.970   .     S
Cu251  O286    1.972   .     S
Cu251  N273    2.014   .     S
Cu252  N274    2.014   .     S
Cu252  O288    1.970   .     S
Cu252  O284    1.957   .     S
Cu252  O287    1.972   .     S
Cu252  O283    1.959   .     S
H254   N278    1.045   .     S
H255   N279    1.045   .     S
H256   N279    1.046   .     S
H257   N280    1.045   .     S
H258   N280    1.045   .     S
H266   N275    1.045   .     S
H268   N334    1.046   .     S
H269   N276    1.045   .     S
H270   N277    1.046   .     S
H271   N277    1.046   .     S
H272   N278    1.045   .     S
N275   H325    1.046   .     S
N275   C304    1.440   .     S
C291   C294    1.444   .     S
C291   O342    1.289   .     A
C291   O339    1.289   .     A
C292   C294    1.404   .     A
C292   N338    1.437   .     S
C293   C307    1.406   .     A
C293   C301    1.446   .     S
C293   C308    1.411   .     A
C294   C306    1.404   .     A
C295   N332    1.363   .     A
C295   H311    1.080   .     S
C295   C1341   1.435   1_554 S
C296   H322    1.080   .     S
C296   N331    1.363   .     A
C296   C820    1.435   .     S
C297   O348    1.394   .     S
C297   N331    1.373   .     A
C297   C817    1.435   .     S
C298   O340    1.394   .     S
C298   N332    1.373   .     A
C298   C1340   1.435   1_554 S
C299   H319    1.110   .     S
C299   H317    1.113   .     S
C299   O348    1.411   .     S
C299   H318    1.111   .     S
C300   H323    1.110   .     S
C300   O340    1.411   .     S
C300   H320    1.111   .     S
C300   H321    1.113   .     S
C301   O343    1.290   .     A
C301   O341    1.289   .     A
C302   O346    1.290   .     A
C302   C304    1.437   .     S
C302   O344    1.284   .     A
C303   C305    1.437   .     S
C303   O347    1.290   .     A
C303   O345    1.284   .     A
C305   C188    1.352   1_655 S
C305   N218    1.440   1_655 S
C306   N335    1.436   .     S
C307   N336    1.437   .     S
C307   C466    1.401   .     S
C308   N337    1.437   .     S
C308   C480    1.394   .     S
Cu309  O339    1.959   .     S
Cu309  Cu310   2.680   .     S
Cu309  O343    1.957   .     S
Cu309  O347    1.970   .     S
Cu309  O344    1.972   .     S
Cu309  N331    2.014   .     S
Cu310  N332    2.014   .     S
Cu310  O346    1.970   .     S
Cu310  O342    1.957   .     S
Cu310  O345    1.972   .     S
Cu310  O341    1.959   .     S
H312   N336    1.045   .     S
H313   N337    1.045   .     S
H314   N337    1.046   .     S
H315   N338    1.045   .     S
H316   N338    1.045   .     S
H324   N333    1.045   .     S
H326   N218    1.046   1_655 S
H327   N334    1.045   .     S
H328   N335    1.046   .     S
H329   N335    1.046   .     S
H330   N336    1.045   .     S
N333   H209    1.046   1_655 S
N333   C188    1.440   1_655 S
C349   C352    1.444   .     S
C349   O400    1.289   .     A
C349   O397    1.289   .     A
C350   C352    1.404   .     A
C350   N396    1.437   .     S
C351   C365    1.406   .     A
C351   C359    1.446   .     S
C351   C366    1.411   .     A
C352   C364    1.404   .     A
C353   N390    1.363   .     A
C353   H369    1.080   .     S
C353   C1399   1.435   1_554 S
C354   H380    1.080   .     S
C354   N389    1.363   .     A
C354   C878    1.435   .     S
C355   O406    1.394   .     S
C355   N389    1.373   .     A
C355   C875    1.435   .     S
C356   O398    1.394   .     S
C356   N390    1.373   .     A
C356   C1398   1.435   1_554 S
C357   H377    1.110   .     S
C357   H375    1.113   .     S
C357   O406    1.411   .     S
C357   H376    1.111   .     S
C358   H381    1.110   .     S
C358   O398    1.411   .     S
C358   H378    1.111   .     S
C358   H379    1.113   .     S
C359   O401    1.290   .     A
C359   O399    1.289   .     A
C360   O404    1.290   .     A
C360   C362    1.437   .     S
C360   O402    1.284   .     A
C361   C363    1.437   .     S
C361   O405    1.290   .     A
C361   O403    1.284   .     A
C362   C479    1.352   1_455 S
C362   N507    1.440   1_455 S
C363   C420    1.352   .     S
C363   N450    1.440   .     S
C364   N393    1.436   .     S
C365   N394    1.437   .     S
C365   C2      1.401   1_565 S
C366   N395    1.437   .     S
C366   C16     1.394   1_565 S
Cu367  O397    1.959   .     S
Cu367  Cu368   2.680   .     S
Cu367  O401    1.957   .     S
Cu367  O405    1.970   .     S
Cu367  O402    1.972   .     S
Cu367  N389    2.014   .     S
Cu368  N390    2.014   .     S
Cu368  O404    1.970   .     S
Cu368  O400    1.957   .     S
Cu368  O403    1.972   .     S
Cu368  O399    1.959   .     S
H370   N394    1.045   .     S
H371   N395    1.045   .     S
H372   N395    1.046   .     S
H373   N396    1.045   .     S
H374   N396    1.045   .     S
H382   N391    1.045   .     S
H383   N507    1.046   1_455 S
H384   N450    1.046   .     S
H385   N392    1.045   .     S
H386   N393    1.046   .     S
H387   N393    1.046   .     S
H388   N394    1.045   .     S
N391   H441    1.046   .     S
N391   C420    1.440   .     S
N392   H500    1.046   1_455 S
N392   C479    1.440   1_455 S
C407   C410    1.444   .     S
C407   O458    1.289   .     A
C407   O455    1.289   .     A
C408   C410    1.404   .     A
C408   N454    1.437   .     S
C409   C423    1.406   .     A
C409   C417    1.446   .     S
C409   C424    1.411   .     A
C410   C422    1.404   .     A
C411   N448    1.363   .     A
C411   H427    1.080   .     S
C411   C1457   1.435   1_554 S
C412   H438    1.080   .     S
C412   N447    1.363   .     A
C412   C936    1.435   .     S
C413   O464    1.394   .     S
C413   N447    1.373   .     A
C413   C933    1.435   .     S
C414   O456    1.394   .     S
C414   N448    1.373   .     A
C414   C1456   1.435   1_554 S
C415   H435    1.110   .     S
C415   H433    1.113   .     S
C415   O464    1.411   .     S
C415   H434    1.111   .     S
C416   H439    1.110   .     S
C416   O456    1.411   .     S
C416   H436    1.111   .     S
C416   H437    1.113   .     S
C417   O459    1.290   .     A
C417   O457    1.289   .     A
C418   O462    1.290   .     A
C418   C420    1.437   .     S
C418   O460    1.284   .     A
C419   C421    1.437   .     S
C419   O463    1.290   .     A
C419   O461    1.284   .     A
C421   C478    1.352   .     S
C421   N508    1.440   .     S
C422   N451    1.436   .     S
C423   N452    1.437   .     S
C423   C60     1.401   1_565 S
C424   N453    1.437   .     S
C424   C74     1.394   1_565 S
Cu425  O455    1.959   .     S
Cu425  Cu426   2.680   .     S
Cu425  O459    1.957   .     S
Cu425  O463    1.970   .     S
Cu425  O460    1.972   .     S
Cu425  N447    2.014   .     S
Cu426  N448    2.014   .     S
Cu426  O462    1.970   .     S
Cu426  O458    1.957   .     S
Cu426  O461    1.972   .     S
Cu426  O457    1.959   .     S
H428   N452    1.045   .     S
H429   N453    1.045   .     S
H430   N453    1.046   .     S
H431   N454    1.045   .     S
H432   N454    1.045   .     S
H440   N449    1.045   .     S
H442   N508    1.046   .     S
H443   N450    1.045   .     S
H444   N451    1.046   .     S
H445   N451    1.046   .     S
H446   N452    1.045   .     S
N449   H499    1.046   .     S
N449   C478    1.440   .     S
C465   C468    1.444   .     S
C465   O516    1.289   .     A
C465   O513    1.289   .     A
C466   C468    1.404   .     A
C466   N512    1.437   .     S
C467   C481    1.406   .     A
C467   C475    1.446   .     S
C467   C482    1.411   .     A
C468   C480    1.404   .     A
C469   N506    1.363   .     A
C469   H485    1.080   .     S
C469   C1515   1.435   1_554 S
C470   H496    1.080   .     S
C470   N505    1.363   .     A
C470   C994    1.435   .     S
C471   O522    1.394   .     S
C471   N505    1.373   .     A
C471   C991    1.435   .     S
C472   O514    1.394   .     S
C472   N506    1.373   .     A
C472   C1514   1.435   1_554 S
C473   H493    1.110   .     S
C473   H491    1.113   .     S
C473   O522    1.411   .     S
C473   H492    1.111   .     S
C474   H497    1.110   .     S
C474   O514    1.411   .     S
C474   H494    1.111   .     S
C474   H495    1.113   .     S
C475   O517    1.290   .     A
C475   O515    1.289   .     A
C476   O520    1.290   .     A
C476   C478    1.437   .     S
C476   O518    1.284   .     A
C477   C479    1.437   .     S
C477   O521    1.290   .     A
C477   O519    1.284   .     A
C479   C362    1.352   1_655 S
C479   N392    1.440   1_655 S
C480   N509    1.436   .     S
C481   N510    1.437   .     S
C481   C118    1.401   1_565 S
C482   N511    1.437   .     S
C482   C132    1.394   1_565 S
Cu483  O513    1.959   .     S
Cu483  Cu484   2.680   .     S
Cu483  O517    1.957   .     S
Cu483  O521    1.970   .     S
Cu483  O518    1.972   .     S
Cu483  N505    2.014   .     S
Cu484  N506    2.014   .     S
Cu484  O520    1.970   .     S
Cu484  O516    1.957   .     S
Cu484  O519    1.972   .     S
Cu484  O515    1.959   .     S
H486   N510    1.045   .     S
H487   N511    1.045   .     S
H488   N511    1.046   .     S
H489   N512    1.045   .     S
H490   N512    1.045   .     S
H498   N507    1.045   .     S
H500   N392    1.046   1_655 S
H501   N508    1.045   .     S
H502   N509    1.046   .     S
H503   N509    1.046   .     S
H504   N510    1.045   .     S
N507   H383    1.046   1_655 S
N507   C362    1.440   1_655 S
C523   C526    1.444   .     S
C523   O574    1.289   .     A
C523   O571    1.289   .     A
C524   C526    1.404   .     A
C524   N570    1.437   .     S
C524   C887    1.401   1_545 S
C525   C539    1.406   .     A
C525   C533    1.446   .     S
C525   C540    1.411   .     A
C526   C538    1.404   .     A
C527   N564    1.363   .     A
C527   H543    1.080   .     S
C528   H554    1.080   .     S
C528   N563    1.363   .     A
C528   C1052   1.435   .     S
C529   O580    1.394   .     S
C529   N563    1.373   .     A
C529   C1049   1.435   .     S
C530   O572    1.394   .     S
C530   N564    1.373   .     A
C531   H551    1.110   .     S
C531   H549    1.113   .     S
C531   O580    1.411   .     S
C531   H550    1.111   .     S
C532   H555    1.110   .     S
C532   O572    1.411   .     S
C532   H552    1.111   .     S
C532   H553    1.113   .     S
C533   O575    1.290   .     A
C533   O573    1.289   .     A
C534   O578    1.290   .     A
C534   C536    1.437   .     S
C534   O576    1.284   .     A
C535   C537    1.437   .     S
C535   O579    1.290   .     A
C535   O577    1.284   .     A
C536   C653    1.352   1_455 S
C536   N681    1.440   1_455 S
C537   C594    1.352   .     S
C537   N624    1.440   .     S
C538   N567    1.436   .     S
C538   C888    1.394   1_545 S
C539   N568    1.437   .     S
C539   C698    1.401   .     S
C540   N569    1.437   .     S
C540   C712    1.394   .     S
Cu541  O571    1.959   .     S
Cu541  Cu542   2.680   .     S
Cu541  O575    1.957   .     S
Cu541  O579    1.970   .     S
Cu541  O576    1.972   .     S
Cu541  N563    2.014   .     S
Cu542  N564    2.014   .     S
Cu542  O578    1.970   .     S
Cu542  O574    1.957   .     S
Cu542  O577    1.972   .     S
Cu542  O573    1.959   .     S
H544   N568    1.045   .     S
H545   N569    1.045   .     S
H546   N569    1.046   .     S
H547   N570    1.045   .     S
H548   N570    1.045   .     S
H556   N565    1.045   .     S
H557   N681    1.046   1_455 S
H558   N624    1.046   .     S
H559   N566    1.045   .     S
H560   N567    1.046   .     S
H561   N567    1.046   .     S
H562   N568    1.045   .     S
N565   H615    1.046   .     S
N565   C594    1.440   .     S
N566   H674    1.046   1_455 S
N566   C653    1.440   1_455 S
C581   C584    1.444   .     S
C581   O632    1.289   .     A
C581   O629    1.289   .     A
C582   C584    1.404   .     A
C582   N628    1.437   .     S
C582   C945    1.401   1_545 S
C583   C597    1.406   .     A
C583   C591    1.446   .     S
C583   C598    1.411   .     A
C584   C596    1.404   .     A
C585   N622    1.363   .     A
C585   H601    1.080   .     S
C586   H612    1.080   .     S
C586   N621    1.363   .     A
C586   C1110   1.435   .     S
C587   O638    1.394   .     S
C587   N621    1.373   .     A
C587   C1107   1.435   .     S
C588   O630    1.394   .     S
C588   N622    1.373   .     A
C589   H609    1.110   .     S
C589   H607    1.113   .     S
C589   O638    1.411   .     S
C589   H608    1.111   .     S
C590   H613    1.110   .     S
C590   O630    1.411   .     S
C590   H610    1.111   .     S
C590   H611    1.113   .     S
C591   O633    1.290   .     A
C591   O631    1.289   .     A
C592   O636    1.290   .     A
C592   C594    1.437   .     S
C592   O634    1.284   .     A
C593   C595    1.437   .     S
C593   O637    1.290   .     A
C593   O635    1.284   .     A
C595   C652    1.352   .     S
C595   N682    1.440   .     S
C596   N625    1.436   .     S
C596   C946    1.394   1_545 S
C597   N626    1.437   .     S
C597   C756    1.401   .     S
C598   N627    1.437   .     S
C598   C770    1.394   .     S
Cu599  O629    1.959   .     S
Cu599  Cu600   2.680   .     S
Cu599  O633    1.957   .     S
Cu599  O637    1.970   .     S
Cu599  O634    1.972   .     S
Cu599  N621    2.014   .     S
Cu600  N622    2.014   .     S
Cu600  O636    1.970   .     S
Cu600  O632    1.957   .     S
Cu600  O635    1.972   .     S
Cu600  O631    1.959   .     S
H602   N626    1.045   .     S
H603   N627    1.045   .     S
H604   N627    1.046   .     S
H605   N628    1.045   .     S
H606   N628    1.045   .     S
H614   N623    1.045   .     S
H616   N682    1.046   .     S
H617   N624    1.045   .     S
H618   N625    1.046   .     S
H619   N625    1.046   .     S
H620   N626    1.045   .     S
N623   H673    1.046   .     S
N623   C652    1.440   .     S
C639   C642    1.444   .     S
C639   O690    1.289   .     A
C639   O687    1.289   .     A
C640   C642    1.404   .     A
C640   N686    1.437   .     S
C640   C1003   1.401   1_545 S
C641   C655    1.406   .     A
C641   C649    1.446   .     S
C641   C656    1.411   .     A
C642   C654    1.404   .     A
C643   N680    1.363   .     A
C643   H659    1.080   .     S
C644   H670    1.080   .     S
C644   N679    1.363   .     A
C644   C1168   1.435   .     S
C645   O696    1.394   .     S
C645   N679    1.373   .     A
C645   C1165   1.435   .     S
C646   O688    1.394   .     S
C646   N680    1.373   .     A
C647   H667    1.110   .     S
C647   H665    1.113   .     S
C647   O696    1.411   .     S
C647   H666    1.111   .     S
C648   H671    1.110   .     S
C648   O688    1.411   .     S
C648   H668    1.111   .     S
C648   H669    1.113   .     S
C649   O691    1.290   .     A
C649   O689    1.289   .     A
C650   O694    1.290   .     A
C650   C652    1.437   .     S
C650   O692    1.284   .     A
C651   C653    1.437   .     S
C651   O695    1.290   .     A
C651   O693    1.284   .     A
C653   C536    1.352   1_655 S
C653   N566    1.440   1_655 S
C654   N683    1.436   .     S
C654   C1004   1.394   1_545 S
C655   N684    1.437   .     S
C655   C814    1.401   .     S
C656   N685    1.437   .     S
C656   C828    1.394   .     S
Cu657  O687    1.959   .     S
Cu657  Cu658   2.680   .     S
Cu657  O691    1.957   .     S
Cu657  O695    1.970   .     S
Cu657  O692    1.972   .     S
Cu657  N679    2.014   .     S
Cu658  N680    2.014   .     S
Cu658  O694    1.970   .     S
Cu658  O690    1.957   .     S
Cu658  O693    1.972   .     S
Cu658  O689    1.959   .     S
H660   N684    1.045   .     S
H661   N685    1.045   .     S
H662   N685    1.046   .     S
H663   N686    1.045   .     S
H664   N686    1.045   .     S
H672   N681    1.045   .     S
H674   N566    1.046   1_655 S
H675   N682    1.045   .     S
H676   N683    1.046   .     S
H677   N683    1.046   .     S
H678   N684    1.045   .     S
N681   H557    1.046   1_655 S
N681   C536    1.440   1_655 S
C697   C700    1.444   .     S
C697   O748    1.289   .     A
C697   O745    1.289   .     A
C698   C700    1.404   .     A
C698   N744    1.437   .     S
C699   C713    1.406   .     A
C699   C707    1.446   .     S
C699   C714    1.411   .     A
C700   C712    1.404   .     A
C701   N738    1.363   .     A
C701   H717    1.080   .     S
C702   H728    1.080   .     S
C702   N737    1.363   .     A
C702   C1226   1.435   .     S
C703   O754    1.394   .     S
C703   N737    1.373   .     A
C703   C1223   1.435   .     S
C704   O746    1.394   .     S
C704   N738    1.373   .     A
C705   H725    1.110   .     S
C705   H723    1.113   .     S
C705   O754    1.411   .     S
C705   H724    1.111   .     S
C706   H729    1.110   .     S
C706   O746    1.411   .     S
C706   H726    1.111   .     S
C706   H727    1.113   .     S
C707   O749    1.290   .     A
C707   O747    1.289   .     A
C708   O752    1.290   .     A
C708   C710    1.437   .     S
C708   O750    1.284   .     A
C709   C711    1.437   .     S
C709   O753    1.290   .     A
C709   O751    1.284   .     A
C710   C827    1.352   1_455 S
C710   N855    1.440   1_455 S
C711   C768    1.352   .     S
C711   N798    1.440   .     S
C712   N741    1.436   .     S
C713   N742    1.437   .     S
C713   C872    1.401   .     S
C714   N743    1.437   .     S
C714   C886    1.394   .     S
Cu715  O745    1.959   .     S
Cu715  Cu716   2.680   .     S
Cu715  O749    1.957   .     S
Cu715  O753    1.970   .     S
Cu715  O750    1.972   .     S
Cu715  N737    2.014   .     S
Cu716  N738    2.014   .     S
Cu716  O752    1.970   .     S
Cu716  O748    1.957   .     S
Cu716  O751    1.972   .     S
Cu716  O747    1.959   .     S
H718   N742    1.045   .     S
H719   N743    1.045   .     S
H720   N743    1.046   .     S
H721   N744    1.045   .     S
H722   N744    1.045   .     S
H730   N739    1.045   .     S
H731   N855    1.046   1_455 S
H732   N798    1.046   .     S
H733   N740    1.045   .     S
H734   N741    1.046   .     S
H735   N741    1.046   .     S
H736   N742    1.045   .     S
N739   H789    1.046   .     S
N739   C768    1.440   .     S
N740   H848    1.046   1_455 S
N740   C827    1.440   1_455 S
C755   C758    1.444   .     S
C755   O806    1.289   .     A
C755   O803    1.289   .     A
C756   C758    1.404   .     A
C756   N802    1.437   .     S
C757   C771    1.406   .     A
C757   C765    1.446   .     S
C757   C772    1.411   .     A
C758   C770    1.404   .     A
C759   N796    1.363   .     A
C759   H775    1.080   .     S
C760   H786    1.080   .     S
C760   N795    1.363   .     A
C760   C1284   1.435   .     S
C761   O812    1.394   .     S
C761   N795    1.373   .     A
C761   C1281   1.435   .     S
C762   O804    1.394   .     S
C762   N796    1.373   .     A
C763   H783    1.110   .     S
C763   H781    1.113   .     S
C763   O812    1.411   .     S
C763   H782    1.111   .     S
C764   H787    1.110   .     S
C764   O804    1.411   .     S
C764   H784    1.111   .     S
C764   H785    1.113   .     S
C765   O807    1.290   .     A
C765   O805    1.289   .     A
C766   O810    1.290   .     A
C766   C768    1.437   .     S
C766   O808    1.284   .     A
C767   C769    1.437   .     S
C767   O811    1.290   .     A
C767   O809    1.284   .     A
C769   C826    1.352   .     S
C769   N856    1.440   .     S
C770   N799    1.436   .     S
C771   N800    1.437   .     S
C771   C930    1.401   .     S
C772   N801    1.437   .     S
C772   C944    1.394   .     S
Cu773  O803    1.959   .     S
Cu773  Cu774   2.680   .     S
Cu773  O807    1.957   .     S
Cu773  O811    1.970   .     S
Cu773  O808    1.972   .     S
Cu773  N795    2.014   .     S
Cu774  N796    2.014   .     S
Cu774  O810    1.970   .     S
Cu774  O806    1.957   .     S
Cu774  O809    1.972   .     S
Cu774  O805    1.959   .     S
H776   N800    1.045   .     S
H777   N801    1.045   .     S
H778   N801    1.046   .     S
H779   N802    1.045   .     S
H780   N802    1.045   .     S
H788   N797    1.045   .     S
H790   N856    1.046   .     S
H791   N798    1.045   .     S
H792   N799    1.046   .     S
H793   N799    1.046   .     S
H794   N800    1.045   .     S
N797   H847    1.046   .     S
N797   C826    1.440   .     S
C813   C816    1.444   .     S
C813   O864    1.289   .     A
C813   O861    1.289   .     A
C814   C816    1.404   .     A
C814   N860    1.437   .     S
C815   C829    1.406   .     A
C815   C823    1.446   .     S
C815   C830    1.411   .     A
C816   C828    1.404   .     A
C817   N854    1.363   .     A
C817   H833    1.080   .     S
C818   H844    1.080   .     S
C818   N853    1.363   .     A
C818   C1342   1.435   .     S
C819   O870    1.394   .     S
C819   N853    1.373   .     A
C819   C1339   1.435   .     S
C820   O862    1.394   .     S
C820   N854    1.373   .     A
C821   H841    1.110   .     S
C821   H839    1.113   .     S
C821   O870    1.411   .     S
C821   H840    1.111   .     S
C822   H845    1.110   .     S
C822   O862    1.411   .     S
C822   H842    1.111   .     S
C822   H843    1.113   .     S
C823   O865    1.290   .     A
C823   O863    1.289   .     A
C824   O868    1.290   .     A
C824   C826    1.437   .     S
C824   O866    1.284   .     A
C825   C827    1.437   .     S
C825   O869    1.290   .     A
C825   O867    1.284   .     A
C827   C710    1.352   1_655 S
C827   N740    1.440   1_655 S
C828   N857    1.436   .     S
C829   N858    1.437   .     S
C829   C988    1.401   .     S
C830   N859    1.437   .     S
C830   C1002   1.394   .     S
Cu831  O861    1.959   .     S
Cu831  Cu832   2.680   .     S
Cu831  O865    1.957   .     S
Cu831  O869    1.970   .     S
Cu831  O866    1.972   .     S
Cu831  N853    2.014   .     S
Cu832  N854    2.014   .     S
Cu832  O868    1.970   .     S
Cu832  O864    1.957   .     S
Cu832  O867    1.972   .     S
Cu832  O863    1.959   .     S
H834   N858    1.045   .     S
H835   N859    1.045   .     S
H836   N859    1.046   .     S
H837   N860    1.045   .     S
H838   N860    1.045   .     S
H846   N855    1.045   .     S
H848   N740    1.046   1_655 S
H849   N856    1.045   .     S
H850   N857    1.046   .     S
H851   N857    1.046   .     S
H852   N858    1.045   .     S
N855   H731    1.046   1_655 S
N855   C710    1.440   1_655 S
C871   C874    1.444   .     S
C871   O922    1.289   .     A
C871   O919    1.289   .     A
C872   C874    1.404   .     A
C872   N918    1.437   .     S
C873   C887    1.406   .     A
C873   C881    1.446   .     S
C873   C888    1.411   .     A
C874   C886    1.404   .     A
C875   N912    1.363   .     A
C875   H891    1.080   .     S
C876   H902    1.080   .     S
C876   N911    1.363   .     A
C876   C1400   1.435   .     S
C877   O928    1.394   .     S
C877   N911    1.373   .     A
C877   C1397   1.435   .     S
C878   O920    1.394   .     S
C878   N912    1.373   .     A
C879   H899    1.110   .     S
C879   H897    1.113   .     S
C879   O928    1.411   .     S
C879   H898    1.111   .     S
C880   H903    1.110   .     S
C880   O920    1.411   .     S
C880   H900    1.111   .     S
C880   H901    1.113   .     S
C881   O923    1.290   .     A
C881   O921    1.289   .     A
C882   O926    1.290   .     A
C882   C884    1.437   .     S
C882   O924    1.284   .     A
C883   C885    1.437   .     S
C883   O927    1.290   .     A
C883   O925    1.284   .     A
C884   C1001   1.352   1_455 S
C884   N1029   1.440   1_455 S
C885   C942    1.352   .     S
C885   N972    1.440   .     S
C886   N915    1.436   .     S
C887   N916    1.437   .     S
C887   C524    1.401   1_565 S
C888   N917    1.437   .     S
C888   C538    1.394   1_565 S
Cu889  O919    1.959   .     S
Cu889  Cu890   2.680   .     S
Cu889  O923    1.957   .     S
Cu889  O927    1.970   .     S
Cu889  O924    1.972   .     S
Cu889  N911    2.014   .     S
Cu890  N912    2.014   .     S
Cu890  O926    1.970   .     S
Cu890  O922    1.957   .     S
Cu890  O925    1.972   .     S
Cu890  O921    1.959   .     S
H892   N916    1.045   .     S
H893   N917    1.045   .     S
H894   N917    1.046   .     S
H895   N918    1.045   .     S
H896   N918    1.045   .     S
H904   N913    1.045   .     S
H905   N1029   1.046   1_455 S
H906   N972    1.046   .     S
H907   N914    1.045   .     S
H908   N915    1.046   .     S
H909   N915    1.046   .     S
H910   N916    1.045   .     S
N913   H963    1.046   .     S
N913   C942    1.440   .     S
N914   H1022   1.046   1_455 S
N914   C1001   1.440   1_455 S
C929   C932    1.444   .     S
C929   O980    1.289   .     A
C929   O977    1.289   .     A
C930   C932    1.404   .     A
C930   N976    1.437   .     S
C931   C945    1.406   .     A
C931   C939    1.446   .     S
C931   C946    1.411   .     A
C932   C944    1.404   .     A
C933   N970    1.363   .     A
C933   H949    1.080   .     S
C934   H960    1.080   .     S
C934   N969    1.363   .     A
C934   C1458   1.435   .     S
C935   O986    1.394   .     S
C935   N969    1.373   .     A
C935   C1455   1.435   .     S
C936   O978    1.394   .     S
C936   N970    1.373   .     A
C937   H957    1.110   .     S
C937   H955    1.113   .     S
C937   O986    1.411   .     S
C937   H956    1.111   .     S
C938   H961    1.110   .     S
C938   O978    1.411   .     S
C938   H958    1.111   .     S
C938   H959    1.113   .     S
C939   O981    1.290   .     A
C939   O979    1.289   .     A
C940   O984    1.290   .     A
C940   C942    1.437   .     S
C940   O982    1.284   .     A
C941   C943    1.437   .     S
C941   O985    1.290   .     A
C941   O983    1.284   .     A
C943   C1000   1.352   .     S
C943   N1030   1.440   .     S
C944   N973    1.436   .     S
C945   N974    1.437   .     S
C945   C582    1.401   1_565 S
C946   N975    1.437   .     S
C946   C596    1.394   1_565 S
Cu947  O977    1.959   .     S
Cu947  Cu948   2.680   .     S
Cu947  O981    1.957   .     S
Cu947  O985    1.970   .     S
Cu947  O982    1.972   .     S
Cu947  N969    2.014   .     S
Cu948  N970    2.014   .     S
Cu948  O984    1.970   .     S
Cu948  O980    1.957   .     S
Cu948  O983    1.972   .     S
Cu948  O979    1.959   .     S
H950   N974    1.045   .     S
H951   N975    1.045   .     S
H952   N975    1.046   .     S
H953   N976    1.045   .     S
H954   N976    1.045   .     S
H962   N971    1.045   .     S
H964   N1030   1.046   .     S
H965   N972    1.045   .     S
H966   N973    1.046   .     S
H967   N973    1.046   .     S
H968   N974    1.045   .     S
N971   H1021   1.046   .     S
N971   C1000   1.440   .     S
C987   C990    1.444   .     S
C987   O1038   1.289   .     A
C987   O1035   1.289   .     A
C988   C990    1.404   .     A
C988   N1034   1.437   .     S
C989   C1003   1.406   .     A
C989   C997    1.446   .     S
C989   C1004   1.411   .     A
C990   C1002   1.404   .     A
C991   N1028   1.363   .     A
C991   H1007   1.080   .     S
C992   H1018   1.080   .     S
C992   N1027   1.363   .     A
C992   C1516   1.435   .     S
C993   O1044   1.394   .     S
C993   N1027   1.373   .     A
C993   C1513   1.435   .     S
C994   O1036   1.394   .     S
C994   N1028   1.373   .     A
C995   H1015   1.110   .     S
C995   H1013   1.113   .     S
C995   O1044   1.411   .     S
C995   H1014   1.111   .     S
C996   H1019   1.110   .     S
C996   O1036   1.411   .     S
C996   H1016   1.111   .     S
C996   H1017   1.113   .     S
C997   O1039   1.290   .     A
C997   O1037   1.289   .     A
C998   O1042   1.290   .     A
C998   C1000   1.437   .     S
C998   O1040   1.284   .     A
C999   C1001   1.437   .     S
C999   O1043   1.290   .     A
C999   O1041   1.284   .     A
C1001  C884    1.352   1_655 S
C1001  N914    1.440   1_655 S
C1002  N1031   1.436   .     S
C1003  N1032   1.437   .     S
C1003  C640    1.401   1_565 S
C1004  N1033   1.437   .     S
C1004  C654    1.394   1_565 S
Cu1005 O1035   1.959   .     S
Cu1005 Cu1006  2.680   .     S
Cu1005 O1039   1.957   .     S
Cu1005 O1043   1.970   .     S
Cu1005 O1040   1.972   .     S
Cu1005 N1027   2.014   .     S
Cu1006 N1028   2.014   .     S
Cu1006 O1042   1.970   .     S
Cu1006 O1038   1.957   .     S
Cu1006 O1041   1.972   .     S
Cu1006 O1037   1.959   .     S
H1008  N1032   1.045   .     S
H1009  N1033   1.045   .     S
H1010  N1033   1.046   .     S
H1011  N1034   1.045   .     S
H1012  N1034   1.045   .     S
H1020  N1029   1.045   .     S
H1022  N914    1.046   1_655 S
H1023  N1030   1.045   .     S
H1024  N1031   1.046   .     S
H1025  N1031   1.046   .     S
H1026  N1032   1.045   .     S
N1029  H905    1.046   1_655 S
N1029  C884    1.440   1_655 S
C1045  C1048   1.444   .     S
C1045  O1096   1.289   .     A
C1045  O1093   1.289   .     A
C1046  C1048   1.404   .     A
C1046  N1092   1.437   .     S
C1046  C1409   1.401   1_545 S
C1047  C1061   1.406   .     A
C1047  C1055   1.446   .     S
C1047  C1062   1.411   .     A
C1048  C1060   1.404   .     A
C1049  N1086   1.363   .     A
C1049  H1065   1.080   .     S
C1050  H1076   1.080   .     S
C1050  N1085   1.363   .     A
C1050  C8      1.435   1_556 S
C1051  O1102   1.394   .     S
C1051  N1085   1.373   .     A
C1051  C5      1.435   1_556 S
C1052  O1094   1.394   .     S
C1052  N1086   1.373   .     A
C1053  H1073   1.110   .     S
C1053  H1071   1.113   .     S
C1053  O1102   1.411   .     S
C1053  H1072   1.111   .     S
C1054  H1077   1.110   .     S
C1054  O1094   1.411   .     S
C1054  H1074   1.111   .     S
C1054  H1075   1.113   .     S
C1055  O1097   1.290   .     A
C1055  O1095   1.289   .     A
C1056  O1100   1.290   .     A
C1056  C1058   1.437   .     S
C1056  O1098   1.284   .     A
C1057  C1059   1.437   .     S
C1057  O1101   1.290   .     A
C1057  O1099   1.284   .     A
C1058  C1175   1.352   1_455 S
C1058  N1203   1.440   1_455 S
C1059  C1116   1.352   .     S
C1059  N1146   1.440   .     S
C1060  N1089   1.436   .     S
C1060  C1410   1.394   1_545 S
C1061  N1090   1.437   .     S
C1061  C1220   1.401   .     S
C1062  N1091   1.437   .     S
C1062  C1234   1.394   .     S
Cu1063 O1093   1.959   .     S
Cu1063 Cu1064  2.680   .     S
Cu1063 O1097   1.957   .     S
Cu1063 O1101   1.970   .     S
Cu1063 O1098   1.972   .     S
Cu1063 N1085   2.014   .     S
Cu1064 N1086   2.014   .     S
Cu1064 O1100   1.970   .     S
Cu1064 O1096   1.957   .     S
Cu1064 O1099   1.972   .     S
Cu1064 O1095   1.959   .     S
H1066  N1090   1.045   .     S
H1067  N1091   1.045   .     S
H1068  N1091   1.046   .     S
H1069  N1092   1.045   .     S
H1070  N1092   1.045   .     S
H1078  N1087   1.045   .     S
H1079  N1203   1.046   1_455 S
H1080  N1146   1.046   .     S
H1081  N1088   1.045   .     S
H1082  N1089   1.046   .     S
H1083  N1089   1.046   .     S
H1084  N1090   1.045   .     S
N1087  H1137   1.046   .     S
N1087  C1116   1.440   .     S
N1088  H1196   1.046   1_455 S
N1088  C1175   1.440   1_455 S
C1103  C1106   1.444   .     S
C1103  O1154   1.289   .     A
C1103  O1151   1.289   .     A
C1104  C1106   1.404   .     A
C1104  N1150   1.437   .     S
C1104  C1467   1.401   1_545 S
C1105  C1119   1.406   .     A
C1105  C1113   1.446   .     S
C1105  C1120   1.411   .     A
C1106  C1118   1.404   .     A
C1107  N1144   1.363   .     A
C1107  H1123   1.080   .     S
C1108  H1134   1.080   .     S
C1108  N1143   1.363   .     A
C1108  C66     1.435   1_556 S
C1109  O1160   1.394   .     S
C1109  N1143   1.373   .     A
C1109  C63     1.435   1_556 S
C1110  O1152   1.394   .     S
C1110  N1144   1.373   .     A
C1111  H1131   1.110   .     S
C1111  H1129   1.113   .     S
C1111  O1160   1.411   .     S
C1111  H1130   1.111   .     S
C1112  H1135   1.110   .     S
C1112  O1152   1.411   .     S
C1112  H1132   1.111   .     S
C1112  H1133   1.113   .     S
C1113  O1155   1.290   .     A
C1113  O1153   1.289   .     A
C1114  O1158   1.290   .     A
C1114  C1116   1.437   .     S
C1114  O1156   1.284   .     A
C1115  C1117   1.437   .     S
C1115  O1159   1.290   .     A
C1115  O1157   1.284   .     A
C1117  C1174   1.352   .     S
C1117  N1204   1.440   .     S
C1118  N1147   1.436   .     S
C1118  C1468   1.394   1_545 S
C1119  N1148   1.437   .     S
C1119  C1278   1.401   .     S
C1120  N1149   1.437   .     S
C1120  C1292   1.394   .     S
Cu1121 O1151   1.959   .     S
Cu1121 Cu1122  2.680   .     S
Cu1121 O1155   1.957   .     S
Cu1121 O1159   1.970   .     S
Cu1121 O1156   1.972   .     S
Cu1121 N1143   2.014   .     S
Cu1122 N1144   2.014   .     S
Cu1122 O1158   1.970   .     S
Cu1122 O1154   1.957   .     S
Cu1122 O1157   1.972   .     S
Cu1122 O1153   1.959   .     S
H1124  N1148   1.045   .     S
H1125  N1149   1.045   .     S
H1126  N1149   1.046   .     S
H1127  N1150   1.045   .     S
H1128  N1150   1.045   .     S
H1136  N1145   1.045   .     S
H1138  N1204   1.046   .     S
H1139  N1146   1.045   .     S
H1140  N1147   1.046   .     S
H1141  N1147   1.046   .     S
H1142  N1148   1.045   .     S
N1145  H1195   1.046   .     S
N1145  C1174   1.440   .     S
C1161  C1164   1.444   .     S
C1161  O1212   1.289   .     A
C1161  O1209   1.289   .     A
C1162  C1164   1.404   .     A
C1162  N1208   1.437   .     S
C1162  C1525   1.401   1_545 S
C1163  C1177   1.406   .     A
C1163  C1171   1.446   .     S
C1163  C1178   1.411   .     A
C1164  C1176   1.404   .     A
C1165  N1202   1.363   .     A
C1165  H1181   1.080   .     S
C1166  H1192   1.080   .     S
C1166  N1201   1.363   .     A
C1166  C124    1.435   1_556 S
C1167  O1218   1.394   .     S
C1167  N1201   1.373   .     A
C1167  C121    1.435   1_556 S
C1168  O1210   1.394   .     S
C1168  N1202   1.373   .     A
C1169  H1189   1.110   .     S
C1169  H1187   1.113   .     S
C1169  O1218   1.411   .     S
C1169  H1188   1.111   .     S
C1170  H1193   1.110   .     S
C1170  O1210   1.411   .     S
C1170  H1190   1.111   .     S
C1170  H1191   1.113   .     S
C1171  O1213   1.290   .     A
C1171  O1211   1.289   .     A
C1172  O1216   1.290   .     A
C1172  C1174   1.437   .     S
C1172  O1214   1.284   .     A
C1173  C1175   1.437   .     S
C1173  O1217   1.290   .     A
C1173  O1215   1.284   .     A
C1175  C1058   1.352   1_655 S
C1175  N1088   1.440   1_655 S
C1176  N1205   1.436   .     S
C1176  C1526   1.394   1_545 S
C1177  N1206   1.437   .     S
C1177  C1336   1.401   .     S
C1178  N1207   1.437   .     S
C1178  C1350   1.394   .     S
Cu1179 O1209   1.959   .     S
Cu1179 Cu1180  2.680   .     S
Cu1179 O1213   1.957   .     S
Cu1179 O1217   1.970   .     S
Cu1179 O1214   1.972   .     S
Cu1179 N1201   2.014   .     S
Cu1180 N1202   2.014   .     S
Cu1180 O1216   1.970   .     S
Cu1180 O1212   1.957   .     S
Cu1180 O1215   1.972   .     S
Cu1180 O1211   1.959   .     S
H1182  N1206   1.045   .     S
H1183  N1207   1.045   .     S
H1184  N1207   1.046   .     S
H1185  N1208   1.045   .     S
H1186  N1208   1.045   .     S
H1194  N1203   1.045   .     S
H1196  N1088   1.046   1_655 S
H1197  N1204   1.045   .     S
H1198  N1205   1.046   .     S
H1199  N1205   1.046   .     S
H1200  N1206   1.045   .     S
N1203  H1079   1.046   1_655 S
N1203  C1058   1.440   1_655 S
C1219  C1222   1.444   .     S
C1219  O1270   1.289   .     A
C1219  O1267   1.289   .     A
C1220  C1222   1.404   .     A
C1220  N1266   1.437   .     S
C1221  C1235   1.406   .     A
C1221  C1229   1.446   .     S
C1221  C1236   1.411   .     A
C1222  C1234   1.404   .     A
C1223  N1260   1.363   .     A
C1223  H1239   1.080   .     S
C1224  H1250   1.080   .     S
C1224  N1259   1.363   .     A
C1224  C182    1.435   1_556 S
C1225  O1276   1.394   .     S
C1225  N1259   1.373   .     A
C1225  C179    1.435   1_556 S
C1226  O1268   1.394   .     S
C1226  N1260   1.373   .     A
C1227  H1247   1.110   .     S
C1227  H1245   1.113   .     S
C1227  O1276   1.411   .     S
C1227  H1246   1.111   .     S
C1228  H1251   1.110   .     S
C1228  O1268   1.411   .     S
C1228  H1248   1.111   .     S
C1228  H1249   1.113   .     S
C1229  O1271   1.290   .     A
C1229  O1269   1.289   .     A
C1230  O1274   1.290   .     A
C1230  C1232   1.437   .     S
C1230  O1272   1.284   .     A
C1231  C1233   1.437   .     S
C1231  O1275   1.290   .     A
C1231  O1273   1.284   .     A
C1232  C1349   1.352   1_455 S
C1232  N1377   1.440   1_455 S
C1233  C1290   1.352   .     S
C1233  N1320   1.440   .     S
C1234  N1263   1.436   .     S
C1235  N1264   1.437   .     S
C1235  C1394   1.401   .     S
C1236  N1265   1.437   .     S
C1236  C1408   1.394   .     S
Cu1237 O1267   1.959   .     S
Cu1237 Cu1238  2.680   .     S
Cu1237 O1271   1.957   .     S
Cu1237 O1275   1.970   .     S
Cu1237 O1272   1.972   .     S
Cu1237 N1259   2.014   .     S
Cu1238 N1260   2.014   .     S
Cu1238 O1274   1.970   .     S
Cu1238 O1270   1.957   .     S
Cu1238 O1273   1.972   .     S
Cu1238 O1269   1.959   .     S
H1240  N1264   1.045   .     S
H1241  N1265   1.045   .     S
H1242  N1265   1.046   .     S
H1243  N1266   1.045   .     S
H1244  N1266   1.045   .     S
H1252  N1261   1.045   .     S
H1253  N1377   1.046   1_455 S
H1254  N1320   1.046   .     S
H1255  N1262   1.045   .     S
H1256  N1263   1.046   .     S
H1257  N1263   1.046   .     S
H1258  N1264   1.045   .     S
N1261  H1311   1.046   .     S
N1261  C1290   1.440   .     S
N1262  H1370   1.046   1_455 S
N1262  C1349   1.440   1_455 S
C1277  C1280   1.444   .     S
C1277  O1328   1.289   .     A
C1277  O1325   1.289   .     A
C1278  C1280   1.404   .     A
C1278  N1324   1.437   .     S
C1279  C1293   1.406   .     A
C1279  C1287   1.446   .     S
C1279  C1294   1.411   .     A
C1280  C1292   1.404   .     A
C1281  N1318   1.363   .     A
C1281  H1297   1.080   .     S
C1282  H1308   1.080   .     S
C1282  N1317   1.363   .     A
C1282  C240    1.435   1_556 S
C1283  O1334   1.394   .     S
C1283  N1317   1.373   .     A
C1283  C237    1.435   1_556 S
C1284  O1326   1.394   .     S
C1284  N1318   1.373   .     A
C1285  H1305   1.110   .     S
C1285  H1303   1.113   .     S
C1285  O1334   1.411   .     S
C1285  H1304   1.111   .     S
C1286  H1309   1.110   .     S
C1286  O1326   1.411   .     S
C1286  H1306   1.111   .     S
C1286  H1307   1.113   .     S
C1287  O1329   1.290   .     A
C1287  O1327   1.289   .     A
C1288  O1332   1.290   .     A
C1288  C1290   1.437   .     S
C1288  O1330   1.284   .     A
C1289  C1291   1.437   .     S
C1289  O1333   1.290   .     A
C1289  O1331   1.284   .     A
C1291  C1348   1.352   .     S
C1291  N1378   1.440   .     S
C1292  N1321   1.436   .     S
C1293  N1322   1.437   .     S
C1293  C1452   1.401   .     S
C1294  N1323   1.437   .     S
C1294  C1466   1.394   .     S
Cu1295 O1325   1.959   .     S
Cu1295 Cu1296  2.680   .     S
Cu1295 O1329   1.957   .     S
Cu1295 O1333   1.970   .     S
Cu1295 O1330   1.972   .     S
Cu1295 N1317   2.014   .     S
Cu1296 N1318   2.014   .     S
Cu1296 O1332   1.970   .     S
Cu1296 O1328   1.957   .     S
Cu1296 O1331   1.972   .     S
Cu1296 O1327   1.959   .     S
H1298  N1322   1.045   .     S
H1299  N1323   1.045   .     S
H1300  N1323   1.046   .     S
H1301  N1324   1.045   .     S
H1302  N1324   1.045   .     S
H1310  N1319   1.045   .     S
H1312  N1378   1.046   .     S
H1313  N1320   1.045   .     S
H1314  N1321   1.046   .     S
H1315  N1321   1.046   .     S
H1316  N1322   1.045   .     S
N1319  H1369   1.046   .     S
N1319  C1348   1.440   .     S
C1335  C1338   1.444   .     S
C1335  O1386   1.289   .     A
C1335  O1383   1.289   .     A
C1336  C1338   1.404   .     A
C1336  N1382   1.437   .     S
C1337  C1351   1.406   .     A
C1337  C1345   1.446   .     S
C1337  C1352   1.411   .     A
C1338  C1350   1.404   .     A
C1339  N1376   1.363   .     A
C1339  H1355   1.080   .     S
C1340  H1366   1.080   .     S
C1340  N1375   1.363   .     A
C1340  C298    1.435   1_556 S
C1341  O1392   1.394   .     S
C1341  N1375   1.373   .     A
C1341  C295    1.435   1_556 S
C1342  O1384   1.394   .     S
C1342  N1376   1.373   .     A
C1343  H1363   1.110   .     S
C1343  H1361   1.113   .     S
C1343  O1392   1.411   .     S
C1343  H1362   1.111   .     S
C1344  H1367   1.110   .     S
C1344  O1384   1.411   .     S
C1344  H1364   1.111   .     S
C1344  H1365   1.113   .     S
C1345  O1387   1.290   .     A
C1345  O1385   1.289   .     A
C1346  O1390   1.290   .     A
C1346  C1348   1.437   .     S
C1346  O1388   1.284   .     A
C1347  C1349   1.437   .     S
C1347  O1391   1.290   .     A
C1347  O1389   1.284   .     A
C1349  C1232   1.352   1_655 S
C1349  N1262   1.440   1_655 S
C1350  N1379   1.436   .     S
C1351  N1380   1.437   .     S
C1351  C1510   1.401   .     S
C1352  N1381   1.437   .     S
C1352  C1524   1.394   .     S
Cu1353 O1383   1.959   .     S
Cu1353 Cu1354  2.680   .     S
Cu1353 O1387   1.957   .     S
Cu1353 O1391   1.970   .     S
Cu1353 O1388   1.972   .     S
Cu1353 N1375   2.014   .     S
Cu1354 N1376   2.014   .     S
Cu1354 O1390   1.970   .     S
Cu1354 O1386   1.957   .     S
Cu1354 O1389   1.972   .     S
Cu1354 O1385   1.959   .     S
H1356  N1380   1.045   .     S
H1357  N1381   1.045   .     S
H1358  N1381   1.046   .     S
H1359  N1382   1.045   .     S
H1360  N1382   1.045   .     S
H1368  N1377   1.045   .     S
H1370  N1262   1.046   1_655 S
H1371  N1378   1.045   .     S
H1372  N1379   1.046   .     S
H1373  N1379   1.046   .     S
H1374  N1380   1.045   .     S
N1377  H1253   1.046   1_655 S
N1377  C1232   1.440   1_655 S
C1393  C1396   1.444   .     S
C1393  O1444   1.289   .     A
C1393  O1441   1.289   .     A
C1394  C1396   1.404   .     A
C1394  N1440   1.437   .     S
C1395  C1409   1.406   .     A
C1395  C1403   1.446   .     S
C1395  C1410   1.411   .     A
C1396  C1408   1.404   .     A
C1397  N1434   1.363   .     A
C1397  H1413   1.080   .     S
C1398  H1424   1.080   .     S
C1398  N1433   1.363   .     A
C1398  C356    1.435   1_556 S
C1399  O1450   1.394   .     S
C1399  N1433   1.373   .     A
C1399  C353    1.435   1_556 S
C1400  O1442   1.394   .     S
C1400  N1434   1.373   .     A
C1401  H1421   1.110   .     S
C1401  H1419   1.113   .     S
C1401  O1450   1.411   .     S
C1401  H1420   1.111   .     S
C1402  H1425   1.110   .     S
C1402  O1442   1.411   .     S
C1402  H1422   1.111   .     S
C1402  H1423   1.113   .     S
C1403  O1445   1.290   .     A
C1403  O1443   1.289   .     A
C1404  O1448   1.290   .     A
C1404  C1406   1.437   .     S
C1404  O1446   1.284   .     A
C1405  C1407   1.437   .     S
C1405  O1449   1.290   .     A
C1405  O1447   1.284   .     A
C1406  C1523   1.352   1_455 S
C1406  N1551   1.440   1_455 S
C1407  C1464   1.352   .     S
C1407  N1494   1.440   .     S
C1408  N1437   1.436   .     S
C1409  N1438   1.437   .     S
C1409  C1046   1.401   1_565 S
C1410  N1439   1.437   .     S
C1410  C1060   1.394   1_565 S
Cu1411 O1441   1.959   .     S
Cu1411 Cu1412  2.680   .     S
Cu1411 O1445   1.957   .     S
Cu1411 O1449   1.970   .     S
Cu1411 O1446   1.972   .     S
Cu1411 N1433   2.014   .     S
Cu1412 N1434   2.014   .     S
Cu1412 O1448   1.970   .     S
Cu1412 O1444   1.957   .     S
Cu1412 O1447   1.972   .     S
Cu1412 O1443   1.959   .     S
H1414  N1438   1.045   .     S
H1415  N1439   1.045   .     S
H1416  N1439   1.046   .     S
H1417  N1440   1.045   .     S
H1418  N1440   1.045   .     S
H1426  N1435   1.045   .     S
H1427  N1551   1.046   1_455 S
H1428  N1494   1.046   .     S
H1429  N1436   1.045   .     S
H1430  N1437   1.046   .     S
H1431  N1437   1.046   .     S
H1432  N1438   1.045   .     S
N1435  H1485   1.046   .     S
N1435  C1464   1.440   .     S
N1436  H1544   1.046   1_455 S
N1436  C1523   1.440   1_455 S
C1451  C1454   1.444   .     S
C1451  O1502   1.289   .     A
C1451  O1499   1.289   .     A
C1452  C1454   1.404   .     A
C1452  N1498   1.437   .     S
C1453  C1467   1.406   .     A
C1453  C1461   1.446   .     S
C1453  C1468   1.411   .     A
C1454  C1466   1.404   .     A
C1455  N1492   1.363   .     A
C1455  H1471   1.080   .     S
C1456  H1482   1.080   .     S
C1456  N1491   1.363   .     A
C1456  C414    1.435   1_556 S
C1457  O1508   1.394   .     S
C1457  N1491   1.373   .     A
C1457  C411    1.435   1_556 S
C1458  O1500   1.394   .     S
C1458  N1492   1.373   .     A
C1459  H1479   1.110   .     S
C1459  H1477   1.113   .     S
C1459  O1508   1.411   .     S
C1459  H1478   1.111   .     S
C1460  H1483   1.110   .     S
C1460  O1500   1.411   .     S
C1460  H1480   1.111   .     S
C1460  H1481   1.113   .     S
C1461  O1503   1.290   .     A
C1461  O1501   1.289   .     A
C1462  O1506   1.290   .     A
C1462  C1464   1.437   .     S
C1462  O1504   1.284   .     A
C1463  C1465   1.437   .     S
C1463  O1507   1.290   .     A
C1463  O1505   1.284   .     A
C1465  C1522   1.352   .     S
C1465  N1552   1.440   .     S
C1466  N1495   1.436   .     S
C1467  N1496   1.437   .     S
C1467  C1104   1.401   1_565 S
C1468  N1497   1.437   .     S
C1468  C1118   1.394   1_565 S
Cu1469 O1499   1.959   .     S
Cu1469 Cu1470  2.680   .     S
Cu1469 O1503   1.957   .     S
Cu1469 O1507   1.970   .     S
Cu1469 O1504   1.972   .     S
Cu1469 N1491   2.014   .     S
Cu1470 N1492   2.014   .     S
Cu1470 O1506   1.970   .     S
Cu1470 O1502   1.957   .     S
Cu1470 O1505   1.972   .     S
Cu1470 O1501   1.959   .     S
H1472  N1496   1.045   .     S
H1473  N1497   1.045   .     S
H1474  N1497   1.046   .     S
H1475  N1498   1.045   .     S
H1476  N1498   1.045   .     S
H1484  N1493   1.045   .     S
H1486  N1552   1.046   .     S
H1487  N1494   1.045   .     S
H1488  N1495   1.046   .     S
H1489  N1495   1.046   .     S
H1490  N1496   1.045   .     S
N1493  H1543   1.046   .     S
N1493  C1522   1.440   .     S
C1509  C1512   1.444   .     S
C1509  O1560   1.289   .     A
C1509  O1557   1.289   .     A
C1510  C1512   1.404   .     A
C1510  N1556   1.437   .     S
C1511  C1525   1.406   .     A
C1511  C1519   1.446   .     S
C1511  C1526   1.411   .     A
C1512  C1524   1.404   .     A
C1513  N1550   1.363   .     A
C1513  H1529   1.080   .     S
C1514  H1540   1.080   .     S
C1514  N1549   1.363   .     A
C1514  C472    1.435   1_556 S
C1515  O1566   1.394   .     S
C1515  N1549   1.373   .     A
C1515  C469    1.435   1_556 S
C1516  O1558   1.394   .     S
C1516  N1550   1.373   .     A
C1517  H1537   1.110   .     S
C1517  H1535   1.113   .     S
C1517  O1566   1.411   .     S
C1517  H1536   1.111   .     S
C1518  H1541   1.110   .     S
C1518  O1558   1.411   .     S
C1518  H1538   1.111   .     S
C1518  H1539   1.113   .     S
C1519  O1561   1.290   .     A
C1519  O1559   1.289   .     A
C1520  O1564   1.290   .     A
C1520  C1522   1.437   .     S
C1520  O1562   1.284   .     A
C1521  C1523   1.437   .     S
C1521  O1565   1.290   .     A
C1521  O1563   1.284   .     A
C1523  C1406   1.352   1_655 S
C1523  N1436   1.440   1_655 S
C1524  N1553   1.436   .     S
C1525  N1554   1.437   .     S
C1525  C1162   1.401   1_565 S
C1526  N1555   1.437   .     S
C1526  C1176   1.394   1_565 S
Cu1527 O1557   1.959   .     S
Cu1527 Cu1528  2.680   .     S
Cu1527 O1561   1.957   .     S
Cu1527 O1565   1.970   .     S
Cu1527 O1562   1.972   .     S
Cu1527 N1549   2.014   .     S
Cu1528 N1550   2.014   .     S
Cu1528 O1564   1.970   .     S
Cu1528 O1560   1.957   .     S
Cu1528 O1563   1.972   .     S
Cu1528 O1559   1.959   .     S
H1530  N1554   1.045   .     S
H1531  N1555   1.045   .     S
H1532  N1555   1.046   .     S
H1533  N1556   1.045   .     S
H1534  N1556   1.045   .     S
H1542  N1551   1.045   .     S
H1544  N1436   1.046   1_655 S
H1545  N1552   1.045   .     S
H1546  N1553   1.046   .     S
H1547  N1553   1.046   .     S
H1548  N1554   1.045   .     S
N1551  H1427   1.046   1_655 S
N1551  C1406   1.440   1_655 S
