data_str_m3_o1_o5_pcu_sym.26
_audit_creation_date              2020-01-03
_audit_creation_method            'Materials Studio'
_symmetry_space_group_name_H-M    'P1'
_symmetry_Int_Tables_number       1
_symmetry_cell_setting            triclinic
loop_
_symmetry_equiv_pos_as_xyz
  x,y,z
_cell_length_a                    31.9513
_cell_length_b                    29.6147
_cell_length_c                    26.7353
_cell_angle_alpha                 89.9257
_cell_angle_beta                  90.1105
_cell_angle_gamma                 89.9578
loop_
_atom_site_label
_atom_site_type_symbol
_atom_site_fract_x
_atom_site_fract_y
_atom_site_fract_z
_atom_site_U_iso_or_equiv
_atom_site_adp_type
_atom_site_occupancy
C1     C     0.08681   0.16668   0.16665   0.00000  Uiso   1.00
C2     C     0.02177   0.19012   0.20462   0.00000  Uiso   1.00
C3     C     0.29067   0.16663   0.16669   0.00000  Uiso   1.00
C4     C     0.04266   0.16670   0.16664   0.00000  Uiso   1.00
C5     C     0.19423   0.02389   0.19576   0.00000  Uiso   1.00
C6     C     0.13910   0.30945   0.13757   0.00000  Uiso   1.00
C7     C     0.13910   0.02401   0.13757   0.00000  Uiso   1.00
C8     C     0.19423   0.30933   0.19576   0.00000  Uiso   1.00
C9     C     0.24653   0.16665   0.16668   0.00000  Uiso   1.00
C10    C     0.16665   0.16668   0.07290   0.00000  Uiso   1.00
C11    C     0.16668   0.16665   0.26044   0.00000  Uiso   1.00
C12    C     0.16666   0.16669   0.02180   0.00000  Uiso   1.00
C13    C     0.16667   0.16664   0.31154   0.00000  Uiso   1.00
C14    C     0.02168   0.14323   0.12870   0.00000  Uiso   1.00
C15    C     0.31165   0.19009   0.20464   0.00000  Uiso   1.00
C16    C     0.31156   0.14321   0.12871   0.00000  Uiso   1.00
H17    H     0.21630   0.04192   0.21907   0.00000  Uiso   1.00
H18    H     0.29636   0.13465   0.05548   0.00000  Uiso   1.00
H19    H     0.03697   0.19868   0.27785   0.00000  Uiso   1.00
H20    H     0.03702   0.24685   0.24318   0.00000  Uiso   1.00
H21    H     0.11703   0.29141   0.11427   0.00000  Uiso   1.00
H22    H     0.11703   0.04213   0.11427   0.00000  Uiso   1.00
H23    H     0.21630   0.29121   0.21907   0.00000  Uiso   1.00
H24    H     0.03699   0.08646   0.09026   0.00000  Uiso   1.00
H25    H     0.03661   0.13456   0.05546   0.00000  Uiso   1.00
H26    H     0.29672   0.19873   0.27788   0.00000  Uiso   1.00
H27    H     0.29635   0.24685   0.24311   0.00000  Uiso   1.00
H28    H     0.29631   0.08648   0.09014   0.00000  Uiso   1.00
N29    N     0.16667   0.28573   0.16667   0.00000  Uiso   1.00
N30    N     0.16667   0.04760   0.16667   0.00000  Uiso   1.00
N31    N     0.04489   0.12069   0.09006   0.00000  Uiso   1.00
N32    N     0.28844   0.21261   0.24328   0.00000  Uiso   1.00
N33    N     0.28827   0.12069   0.09006   0.00000  Uiso   1.00
N34    N     0.04506   0.21264   0.24327   0.00000  Uiso   1.00
O35    O     0.10559   0.20487   0.16666   0.00000  Uiso   1.00
O36    O     0.22774   0.12846   0.16667   0.00000  Uiso   1.00
O37    O     0.22774   0.20487   0.16667   0.00000  Uiso   1.00
O38    O     0.10559   0.12846   0.16666   0.00000  Uiso   1.00
O39    O     0.16667   0.20488   0.09511   0.00000  Uiso   1.00
O40    O     0.16666   0.12845   0.23822   0.00000  Uiso   1.00
O41    O     0.16666   0.20488   0.23822   0.00000  Uiso   1.00
O42    O     0.16667   0.12845   0.09511   0.00000  Uiso   1.00
Zn43   Zn    0.16667   0.21771   0.16667   0.00000  Uiso   1.00
Zn44   Zn    0.16667   0.11563   0.16667   0.00000  Uiso   1.00
C45    C     0.42014   0.16668   0.16665   0.00000  Uiso   1.00
C46    C     0.35510   0.19012   0.20462   0.00000  Uiso   1.00
C47    C     0.62401   0.16663   0.16669   0.00000  Uiso   1.00
C48    C     0.37599   0.16670   0.16664   0.00000  Uiso   1.00
C49    C     0.52757   0.02389   0.19576   0.00000  Uiso   1.00
C50    C     0.47243   0.30945   0.13757   0.00000  Uiso   1.00
C51    C     0.47243   0.02401   0.13757   0.00000  Uiso   1.00
C52    C     0.52757   0.30933   0.19576   0.00000  Uiso   1.00
C53    C     0.57986   0.16665   0.16668   0.00000  Uiso   1.00
C54    C     0.49999   0.16668   0.07290   0.00000  Uiso   1.00
C55    C     0.50001   0.16665   0.26044   0.00000  Uiso   1.00
C56    C     0.49999   0.16669   0.02180   0.00000  Uiso   1.00
C57    C     0.50001   0.16664   0.31154   0.00000  Uiso   1.00
C58    C     0.35502   0.14323   0.12870   0.00000  Uiso   1.00
C59    C     0.64498   0.19009   0.20464   0.00000  Uiso   1.00
C60    C     0.64490   0.14321   0.12871   0.00000  Uiso   1.00
H61    H     0.54963   0.04192   0.21907   0.00000  Uiso   1.00
H62    H     0.62969   0.13465   0.05548   0.00000  Uiso   1.00
H63    H     0.37030   0.19868   0.27785   0.00000  Uiso   1.00
H64    H     0.37035   0.24685   0.24318   0.00000  Uiso   1.00
H65    H     0.45036   0.29141   0.11427   0.00000  Uiso   1.00
H66    H     0.45036   0.04213   0.11427   0.00000  Uiso   1.00
H67    H     0.54964   0.29121   0.21907   0.00000  Uiso   1.00
H68    H     0.37032   0.08646   0.09026   0.00000  Uiso   1.00
H69    H     0.36995   0.13456   0.05546   0.00000  Uiso   1.00
H70    H     0.63005   0.19873   0.27788   0.00000  Uiso   1.00
H71    H     0.62968   0.24685   0.24311   0.00000  Uiso   1.00
H72    H     0.62964   0.08648   0.09014   0.00000  Uiso   1.00
N73    N     0.50000   0.28573   0.16667   0.00000  Uiso   1.00
N74    N     0.50000   0.04760   0.16667   0.00000  Uiso   1.00
N75    N     0.37822   0.12069   0.09006   0.00000  Uiso   1.00
N76    N     0.62178   0.21261   0.24328   0.00000  Uiso   1.00
N77    N     0.62161   0.12069   0.09006   0.00000  Uiso   1.00
N78    N     0.37839   0.21264   0.24327   0.00000  Uiso   1.00
O79    O     0.43892   0.20487   0.16666   0.00000  Uiso   1.00
O80    O     0.56108   0.12846   0.16667   0.00000  Uiso   1.00
O81    O     0.56108   0.20487   0.16667   0.00000  Uiso   1.00
O82    O     0.43892   0.12846   0.16666   0.00000  Uiso   1.00
O83    O     0.50000   0.20488   0.09511   0.00000  Uiso   1.00
O84    O     0.50000   0.12845   0.23822   0.00000  Uiso   1.00
O85    O     0.50000   0.20488   0.23822   0.00000  Uiso   1.00
O86    O     0.50000   0.12845   0.09511   0.00000  Uiso   1.00
Zn87   Zn    0.50000   0.21771   0.16667   0.00000  Uiso   1.00
Zn88   Zn    0.50000   0.11563   0.16667   0.00000  Uiso   1.00
C89    C     0.75347   0.16668   0.16665   0.00000  Uiso   1.00
C90    C     0.68843   0.19012   0.20462   0.00000  Uiso   1.00
C91    C     0.95734   0.16663   0.16669   0.00000  Uiso   1.00
C92    C     0.70933   0.16670   0.16664   0.00000  Uiso   1.00
C93    C     0.86090   0.02389   0.19576   0.00000  Uiso   1.00
C94    C     0.80577   0.30945   0.13757   0.00000  Uiso   1.00
C95    C     0.80576   0.02401   0.13757   0.00000  Uiso   1.00
C96    C     0.86090   0.30933   0.19576   0.00000  Uiso   1.00
C97    C     0.91319   0.16665   0.16668   0.00000  Uiso   1.00
C98    C     0.83332   0.16668   0.07290   0.00000  Uiso   1.00
C99    C     0.83335   0.16665   0.26044   0.00000  Uiso   1.00
C100   C     0.83333   0.16669   0.02180   0.00000  Uiso   1.00
C101   C     0.83334   0.16664   0.31154   0.00000  Uiso   1.00
C102   C     0.68835   0.14323   0.12870   0.00000  Uiso   1.00
C103   C     0.97831   0.19009   0.20464   0.00000  Uiso   1.00
C104   C     0.97823   0.14321   0.12871   0.00000  Uiso   1.00
H105   H     0.88297   0.04192   0.21907   0.00000  Uiso   1.00
H106   H     0.96303   0.13465   0.05548   0.00000  Uiso   1.00
H107   H     0.70364   0.19868   0.27785   0.00000  Uiso   1.00
H108   H     0.70369   0.24685   0.24318   0.00000  Uiso   1.00
H109   H     0.78370   0.29141   0.11427   0.00000  Uiso   1.00
H110   H     0.78370   0.04213   0.11427   0.00000  Uiso   1.00
H111   H     0.88297   0.29121   0.21907   0.00000  Uiso   1.00
H112   H     0.70365   0.08646   0.09026   0.00000  Uiso   1.00
H113   H     0.70328   0.13456   0.05546   0.00000  Uiso   1.00
H114   H     0.96338   0.19873   0.27788   0.00000  Uiso   1.00
H115   H     0.96301   0.24685   0.24311   0.00000  Uiso   1.00
H116   H     0.96298   0.08648   0.09014   0.00000  Uiso   1.00
N117   N     0.83333   0.28573   0.16667   0.00000  Uiso   1.00
N118   N     0.83333   0.04760   0.16667   0.00000  Uiso   1.00
N119   N     0.71156   0.12069   0.09006   0.00000  Uiso   1.00
N120   N     0.95511   0.21261   0.24328   0.00000  Uiso   1.00
N121   N     0.95494   0.12069   0.09006   0.00000  Uiso   1.00
N122   N     0.71172   0.21264   0.24327   0.00000  Uiso   1.00
O123   O     0.77226   0.20487   0.16666   0.00000  Uiso   1.00
O124   O     0.89441   0.12846   0.16667   0.00000  Uiso   1.00
O125   O     0.89441   0.20487   0.16667   0.00000  Uiso   1.00
O126   O     0.77226   0.12846   0.16666   0.00000  Uiso   1.00
O127   O     0.83334   0.20488   0.09511   0.00000  Uiso   1.00
O128   O     0.83333   0.12845   0.23822   0.00000  Uiso   1.00
O129   O     0.83333   0.20488   0.23822   0.00000  Uiso   1.00
O130   O     0.83334   0.12845   0.09511   0.00000  Uiso   1.00
Zn131  Zn    0.83333   0.21771   0.16667   0.00000  Uiso   1.00
Zn132  Zn    0.83333   0.11563   0.16667   0.00000  Uiso   1.00
C133   C     0.08681   0.50001   0.16665   0.00000  Uiso   1.00
C134   C     0.02177   0.52345   0.20462   0.00000  Uiso   1.00
C135   C     0.29067   0.49996   0.16669   0.00000  Uiso   1.00
C136   C     0.04266   0.50003   0.16664   0.00000  Uiso   1.00
C137   C     0.19423   0.35722   0.19576   0.00000  Uiso   1.00
C138   C     0.13910   0.64278   0.13757   0.00000  Uiso   1.00
C139   C     0.13910   0.35734   0.13757   0.00000  Uiso   1.00
C140   C     0.19423   0.64266   0.19576   0.00000  Uiso   1.00
C141   C     0.24653   0.49999   0.16668   0.00000  Uiso   1.00
C142   C     0.16665   0.50002   0.07290   0.00000  Uiso   1.00
C143   C     0.16668   0.49998   0.26044   0.00000  Uiso   1.00
C144   C     0.16666   0.50002   0.02180   0.00000  Uiso   1.00
C145   C     0.16667   0.49998   0.31154   0.00000  Uiso   1.00
C146   C     0.02168   0.47657   0.12870   0.00000  Uiso   1.00
C147   C     0.31165   0.52342   0.20464   0.00000  Uiso   1.00
C148   C     0.31156   0.47654   0.12871   0.00000  Uiso   1.00
H149   H     0.21630   0.37525   0.21907   0.00000  Uiso   1.00
H150   H     0.29636   0.46799   0.05548   0.00000  Uiso   1.00
H151   H     0.03697   0.53201   0.27785   0.00000  Uiso   1.00
H152   H     0.03702   0.58018   0.24318   0.00000  Uiso   1.00
H153   H     0.11703   0.62475   0.11427   0.00000  Uiso   1.00
H154   H     0.11703   0.37546   0.11427   0.00000  Uiso   1.00
H155   H     0.21630   0.62454   0.21907   0.00000  Uiso   1.00
H156   H     0.03699   0.41979   0.09026   0.00000  Uiso   1.00
H157   H     0.03661   0.46789   0.05546   0.00000  Uiso   1.00
H158   H     0.29672   0.53207   0.27788   0.00000  Uiso   1.00
H159   H     0.29635   0.58018   0.24311   0.00000  Uiso   1.00
H160   H     0.29631   0.41981   0.09014   0.00000  Uiso   1.00
N161   N     0.16667   0.61907   0.16667   0.00000  Uiso   1.00
N162   N     0.16667   0.38093   0.16667   0.00000  Uiso   1.00
N163   N     0.04489   0.45403   0.09006   0.00000  Uiso   1.00
N164   N     0.28844   0.54595   0.24328   0.00000  Uiso   1.00
N165   N     0.28827   0.45403   0.09006   0.00000  Uiso   1.00
N166   N     0.04506   0.54597   0.24327   0.00000  Uiso   1.00
O167   O     0.10559   0.53821   0.16666   0.00000  Uiso   1.00
O168   O     0.22774   0.46179   0.16667   0.00000  Uiso   1.00
O169   O     0.22774   0.53821   0.16667   0.00000  Uiso   1.00
O170   O     0.10559   0.46179   0.16666   0.00000  Uiso   1.00
O171   O     0.16667   0.53821   0.09511   0.00000  Uiso   1.00
O172   O     0.16666   0.46179   0.23822   0.00000  Uiso   1.00
O173   O     0.16666   0.53821   0.23822   0.00000  Uiso   1.00
O174   O     0.16667   0.46179   0.09511   0.00000  Uiso   1.00
Zn175  Zn    0.16667   0.55104   0.16667   0.00000  Uiso   1.00
Zn176  Zn    0.16667   0.44896   0.16667   0.00000  Uiso   1.00
C177   C     0.42014   0.50001   0.16665   0.00000  Uiso   1.00
C178   C     0.35510   0.52345   0.20462   0.00000  Uiso   1.00
C179   C     0.62401   0.49996   0.16669   0.00000  Uiso   1.00
C180   C     0.37599   0.50003   0.16664   0.00000  Uiso   1.00
C181   C     0.52757   0.35722   0.19576   0.00000  Uiso   1.00
C182   C     0.47243   0.64278   0.13757   0.00000  Uiso   1.00
C183   C     0.47243   0.35734   0.13757   0.00000  Uiso   1.00
C184   C     0.52757   0.64266   0.19576   0.00000  Uiso   1.00
C185   C     0.57986   0.49999   0.16668   0.00000  Uiso   1.00
C186   C     0.49999   0.50002   0.07290   0.00000  Uiso   1.00
C187   C     0.50001   0.49998   0.26044   0.00000  Uiso   1.00
C188   C     0.49999   0.50002   0.02180   0.00000  Uiso   1.00
C189   C     0.50001   0.49998   0.31154   0.00000  Uiso   1.00
C190   C     0.35502   0.47657   0.12870   0.00000  Uiso   1.00
C191   C     0.64498   0.52342   0.20464   0.00000  Uiso   1.00
C192   C     0.64490   0.47654   0.12871   0.00000  Uiso   1.00
H193   H     0.54963   0.37525   0.21907   0.00000  Uiso   1.00
H194   H     0.62969   0.46799   0.05548   0.00000  Uiso   1.00
H195   H     0.37030   0.53201   0.27785   0.00000  Uiso   1.00
H196   H     0.37035   0.58018   0.24318   0.00000  Uiso   1.00
H197   H     0.45036   0.62475   0.11427   0.00000  Uiso   1.00
H198   H     0.45036   0.37546   0.11427   0.00000  Uiso   1.00
H199   H     0.54964   0.62454   0.21907   0.00000  Uiso   1.00
H200   H     0.37032   0.41979   0.09026   0.00000  Uiso   1.00
H201   H     0.36995   0.46789   0.05546   0.00000  Uiso   1.00
H202   H     0.63005   0.53207   0.27788   0.00000  Uiso   1.00
H203   H     0.62968   0.58018   0.24311   0.00000  Uiso   1.00
H204   H     0.62964   0.41981   0.09014   0.00000  Uiso   1.00
N205   N     0.50000   0.61907   0.16667   0.00000  Uiso   1.00
N206   N     0.50000   0.38093   0.16667   0.00000  Uiso   1.00
N207   N     0.37822   0.45403   0.09006   0.00000  Uiso   1.00
N208   N     0.62178   0.54595   0.24328   0.00000  Uiso   1.00
N209   N     0.62161   0.45403   0.09006   0.00000  Uiso   1.00
N210   N     0.37839   0.54597   0.24327   0.00000  Uiso   1.00
O211   O     0.43892   0.53821   0.16666   0.00000  Uiso   1.00
O212   O     0.56108   0.46179   0.16667   0.00000  Uiso   1.00
O213   O     0.56108   0.53821   0.16667   0.00000  Uiso   1.00
O214   O     0.43892   0.46179   0.16666   0.00000  Uiso   1.00
O215   O     0.50000   0.53821   0.09511   0.00000  Uiso   1.00
O216   O     0.50000   0.46179   0.23822   0.00000  Uiso   1.00
O217   O     0.50000   0.53821   0.23822   0.00000  Uiso   1.00
O218   O     0.50000   0.46179   0.09511   0.00000  Uiso   1.00
Zn219  Zn    0.50000   0.55104   0.16667   0.00000  Uiso   1.00
Zn220  Zn    0.50000   0.44896   0.16667   0.00000  Uiso   1.00
C221   C     0.75347   0.50001   0.16665   0.00000  Uiso   1.00
C222   C     0.68843   0.52345   0.20462   0.00000  Uiso   1.00
C223   C     0.95734   0.49996   0.16669   0.00000  Uiso   1.00
C224   C     0.70933   0.50003   0.16664   0.00000  Uiso   1.00
C225   C     0.86090   0.35722   0.19576   0.00000  Uiso   1.00
C226   C     0.80577   0.64278   0.13757   0.00000  Uiso   1.00
C227   C     0.80576   0.35734   0.13757   0.00000  Uiso   1.00
C228   C     0.86090   0.64266   0.19576   0.00000  Uiso   1.00
C229   C     0.91319   0.49999   0.16668   0.00000  Uiso   1.00
C230   C     0.83332   0.50002   0.07290   0.00000  Uiso   1.00
C231   C     0.83335   0.49998   0.26044   0.00000  Uiso   1.00
C232   C     0.83333   0.50002   0.02180   0.00000  Uiso   1.00
C233   C     0.83334   0.49998   0.31154   0.00000  Uiso   1.00
C234   C     0.68835   0.47657   0.12870   0.00000  Uiso   1.00
C235   C     0.97831   0.52342   0.20464   0.00000  Uiso   1.00
C236   C     0.97823   0.47654   0.12871   0.00000  Uiso   1.00
H237   H     0.88297   0.37525   0.21907   0.00000  Uiso   1.00
H238   H     0.96303   0.46799   0.05548   0.00000  Uiso   1.00
H239   H     0.70364   0.53201   0.27785   0.00000  Uiso   1.00
H240   H     0.70369   0.58018   0.24318   0.00000  Uiso   1.00
H241   H     0.78370   0.62475   0.11427   0.00000  Uiso   1.00
H242   H     0.78370   0.37546   0.11427   0.00000  Uiso   1.00
H243   H     0.88297   0.62454   0.21907   0.00000  Uiso   1.00
H244   H     0.70365   0.41979   0.09026   0.00000  Uiso   1.00
H245   H     0.70328   0.46789   0.05546   0.00000  Uiso   1.00
H246   H     0.96338   0.53207   0.27788   0.00000  Uiso   1.00
H247   H     0.96301   0.58018   0.24311   0.00000  Uiso   1.00
H248   H     0.96298   0.41981   0.09014   0.00000  Uiso   1.00
N249   N     0.83333   0.61907   0.16667   0.00000  Uiso   1.00
N250   N     0.83333   0.38093   0.16667   0.00000  Uiso   1.00
N251   N     0.71156   0.45403   0.09006   0.00000  Uiso   1.00
N252   N     0.95511   0.54595   0.24328   0.00000  Uiso   1.00
N253   N     0.95494   0.45403   0.09006   0.00000  Uiso   1.00
N254   N     0.71172   0.54597   0.24327   0.00000  Uiso   1.00
O255   O     0.77226   0.53821   0.16666   0.00000  Uiso   1.00
O256   O     0.89441   0.46179   0.16667   0.00000  Uiso   1.00
O257   O     0.89441   0.53821   0.16667   0.00000  Uiso   1.00
O258   O     0.77226   0.46179   0.16666   0.00000  Uiso   1.00
O259   O     0.83334   0.53821   0.09511   0.00000  Uiso   1.00
O260   O     0.83333   0.46179   0.23822   0.00000  Uiso   1.00
O261   O     0.83333   0.53821   0.23822   0.00000  Uiso   1.00
O262   O     0.83334   0.46179   0.09511   0.00000  Uiso   1.00
Zn263  Zn    0.83333   0.55104   0.16667   0.00000  Uiso   1.00
Zn264  Zn    0.83333   0.44896   0.16667   0.00000  Uiso   1.00
C265   C     0.08681   0.83335   0.16665   0.00000  Uiso   1.00
C266   C     0.02177   0.85679   0.20462   0.00000  Uiso   1.00
C267   C     0.29067   0.83330   0.16669   0.00000  Uiso   1.00
C268   C     0.04266   0.83337   0.16664   0.00000  Uiso   1.00
C269   C     0.19423   0.69055   0.19576   0.00000  Uiso   1.00
C270   C     0.13910   0.97611   0.13757   0.00000  Uiso   1.00
C271   C     0.13910   0.69067   0.13757   0.00000  Uiso   1.00
C272   C     0.19423   0.97599   0.19576   0.00000  Uiso   1.00
C273   C     0.24653   0.83332   0.16668   0.00000  Uiso   1.00
C274   C     0.16665   0.83335   0.07290   0.00000  Uiso   1.00
C275   C     0.16668   0.83332   0.26044   0.00000  Uiso   1.00
C276   C     0.16666   0.83336   0.02180   0.00000  Uiso   1.00
C277   C     0.16667   0.83331   0.31154   0.00000  Uiso   1.00
C278   C     0.02168   0.80990   0.12870   0.00000  Uiso   1.00
C279   C     0.31165   0.85676   0.20464   0.00000  Uiso   1.00
C280   C     0.31156   0.80988   0.12871   0.00000  Uiso   1.00
H281   H     0.21630   0.70859   0.21907   0.00000  Uiso   1.00
H282   H     0.29636   0.80132   0.05548   0.00000  Uiso   1.00
H283   H     0.03697   0.86534   0.27785   0.00000  Uiso   1.00
H284   H     0.03702   0.91352   0.24318   0.00000  Uiso   1.00
H285   H     0.11703   0.95808   0.11427   0.00000  Uiso   1.00
H286   H     0.11703   0.70879   0.11427   0.00000  Uiso   1.00
H287   H     0.21630   0.95787   0.21907   0.00000  Uiso   1.00
H288   H     0.03699   0.75312   0.09026   0.00000  Uiso   1.00
H289   H     0.03661   0.80122   0.05546   0.00000  Uiso   1.00
H290   H     0.29672   0.86540   0.27788   0.00000  Uiso   1.00
H291   H     0.29635   0.91352   0.24311   0.00000  Uiso   1.00
H292   H     0.29631   0.75315   0.09014   0.00000  Uiso   1.00
N293   N     0.16667   0.95240   0.16667   0.00000  Uiso   1.00
N294   N     0.16667   0.71427   0.16667   0.00000  Uiso   1.00
N295   N     0.04489   0.78736   0.09006   0.00000  Uiso   1.00
N296   N     0.28844   0.87928   0.24328   0.00000  Uiso   1.00
N297   N     0.28827   0.78736   0.09006   0.00000  Uiso   1.00
N298   N     0.04506   0.87930   0.24327   0.00000  Uiso   1.00
O299   O     0.10559   0.87154   0.16666   0.00000  Uiso   1.00
O300   O     0.22774   0.79513   0.16667   0.00000  Uiso   1.00
O301   O     0.22774   0.87154   0.16667   0.00000  Uiso   1.00
O302   O     0.10559   0.79513   0.16666   0.00000  Uiso   1.00
O303   O     0.16667   0.87155   0.09511   0.00000  Uiso   1.00
O304   O     0.16666   0.79512   0.23822   0.00000  Uiso   1.00
O305   O     0.16666   0.87155   0.23822   0.00000  Uiso   1.00
O306   O     0.16667   0.79512   0.09511   0.00000  Uiso   1.00
Zn307  Zn    0.16667   0.88437   0.16667   0.00000  Uiso   1.00
Zn308  Zn    0.16667   0.78229   0.16667   0.00000  Uiso   1.00
C309   C     0.42014   0.83335   0.16665   0.00000  Uiso   1.00
C310   C     0.35510   0.85679   0.20462   0.00000  Uiso   1.00
C311   C     0.62401   0.83330   0.16669   0.00000  Uiso   1.00
C312   C     0.37599   0.83337   0.16664   0.00000  Uiso   1.00
C313   C     0.52757   0.69055   0.19576   0.00000  Uiso   1.00
C314   C     0.47243   0.97611   0.13757   0.00000  Uiso   1.00
C315   C     0.47243   0.69067   0.13757   0.00000  Uiso   1.00
C316   C     0.52757   0.97599   0.19576   0.00000  Uiso   1.00
C317   C     0.57986   0.83332   0.16668   0.00000  Uiso   1.00
C318   C     0.49999   0.83335   0.07290   0.00000  Uiso   1.00
C319   C     0.50001   0.83332   0.26044   0.00000  Uiso   1.00
C320   C     0.49999   0.83336   0.02180   0.00000  Uiso   1.00
C321   C     0.50001   0.83331   0.31154   0.00000  Uiso   1.00
C322   C     0.35502   0.80990   0.12870   0.00000  Uiso   1.00
C323   C     0.64498   0.85676   0.20464   0.00000  Uiso   1.00
C324   C     0.64490   0.80988   0.12871   0.00000  Uiso   1.00
H325   H     0.54963   0.70859   0.21907   0.00000  Uiso   1.00
H326   H     0.62969   0.80132   0.05548   0.00000  Uiso   1.00
H327   H     0.37030   0.86534   0.27785   0.00000  Uiso   1.00
H328   H     0.37035   0.91352   0.24318   0.00000  Uiso   1.00
H329   H     0.45036   0.95808   0.11427   0.00000  Uiso   1.00
H330   H     0.45036   0.70879   0.11427   0.00000  Uiso   1.00
H331   H     0.54964   0.95787   0.21907   0.00000  Uiso   1.00
H332   H     0.37032   0.75312   0.09026   0.00000  Uiso   1.00
H333   H     0.36995   0.80122   0.05546   0.00000  Uiso   1.00
H334   H     0.63005   0.86540   0.27788   0.00000  Uiso   1.00
H335   H     0.62968   0.91352   0.24311   0.00000  Uiso   1.00
H336   H     0.62964   0.75315   0.09014   0.00000  Uiso   1.00
N337   N     0.50000   0.95240   0.16667   0.00000  Uiso   1.00
N338   N     0.50000   0.71427   0.16667   0.00000  Uiso   1.00
N339   N     0.37822   0.78736   0.09006   0.00000  Uiso   1.00
N340   N     0.62178   0.87928   0.24328   0.00000  Uiso   1.00
N341   N     0.62161   0.78736   0.09006   0.00000  Uiso   1.00
N342   N     0.37839   0.87930   0.24327   0.00000  Uiso   1.00
O343   O     0.43892   0.87154   0.16666   0.00000  Uiso   1.00
O344   O     0.56108   0.79513   0.16667   0.00000  Uiso   1.00
O345   O     0.56108   0.87154   0.16667   0.00000  Uiso   1.00
O346   O     0.43892   0.79513   0.16666   0.00000  Uiso   1.00
O347   O     0.50000   0.87155   0.09511   0.00000  Uiso   1.00
O348   O     0.50000   0.79512   0.23822   0.00000  Uiso   1.00
O349   O     0.50000   0.87155   0.23822   0.00000  Uiso   1.00
O350   O     0.50000   0.79512   0.09511   0.00000  Uiso   1.00
Zn351  Zn    0.50000   0.88437   0.16667   0.00000  Uiso   1.00
Zn352  Zn    0.50000   0.78229   0.16667   0.00000  Uiso   1.00
C353   C     0.75347   0.83335   0.16665   0.00000  Uiso   1.00
C354   C     0.68843   0.85679   0.20462   0.00000  Uiso   1.00
C355   C     0.95734   0.83330   0.16669   0.00000  Uiso   1.00
C356   C     0.70933   0.83337   0.16664   0.00000  Uiso   1.00
C357   C     0.86090   0.69055   0.19576   0.00000  Uiso   1.00
C358   C     0.80577   0.97611   0.13757   0.00000  Uiso   1.00
C359   C     0.80576   0.69067   0.13757   0.00000  Uiso   1.00
C360   C     0.86090   0.97599   0.19576   0.00000  Uiso   1.00
C361   C     0.91319   0.83332   0.16668   0.00000  Uiso   1.00
C362   C     0.83332   0.83335   0.07290   0.00000  Uiso   1.00
C363   C     0.83335   0.83332   0.26044   0.00000  Uiso   1.00
C364   C     0.83333   0.83336   0.02180   0.00000  Uiso   1.00
C365   C     0.83334   0.83331   0.31154   0.00000  Uiso   1.00
C366   C     0.68835   0.80990   0.12870   0.00000  Uiso   1.00
C367   C     0.97831   0.85676   0.20464   0.00000  Uiso   1.00
C368   C     0.97823   0.80988   0.12871   0.00000  Uiso   1.00
H369   H     0.88297   0.70859   0.21907   0.00000  Uiso   1.00
H370   H     0.96303   0.80132   0.05548   0.00000  Uiso   1.00
H371   H     0.70364   0.86534   0.27785   0.00000  Uiso   1.00
H372   H     0.70369   0.91352   0.24318   0.00000  Uiso   1.00
H373   H     0.78370   0.95808   0.11427   0.00000  Uiso   1.00
H374   H     0.78370   0.70879   0.11427   0.00000  Uiso   1.00
H375   H     0.88297   0.95787   0.21907   0.00000  Uiso   1.00
H376   H     0.70365   0.75312   0.09026   0.00000  Uiso   1.00
H377   H     0.70328   0.80122   0.05546   0.00000  Uiso   1.00
H378   H     0.96338   0.86540   0.27788   0.00000  Uiso   1.00
H379   H     0.96301   0.91352   0.24311   0.00000  Uiso   1.00
H380   H     0.96298   0.75315   0.09014   0.00000  Uiso   1.00
N381   N     0.83333   0.95240   0.16667   0.00000  Uiso   1.00
N382   N     0.83333   0.71427   0.16667   0.00000  Uiso   1.00
N383   N     0.71156   0.78736   0.09006   0.00000  Uiso   1.00
N384   N     0.95511   0.87928   0.24328   0.00000  Uiso   1.00
N385   N     0.95494   0.78736   0.09006   0.00000  Uiso   1.00
N386   N     0.71172   0.87930   0.24327   0.00000  Uiso   1.00
O387   O     0.77226   0.87154   0.16666   0.00000  Uiso   1.00
O388   O     0.89441   0.79513   0.16667   0.00000  Uiso   1.00
O389   O     0.89441   0.87154   0.16667   0.00000  Uiso   1.00
O390   O     0.77226   0.79513   0.16666   0.00000  Uiso   1.00
O391   O     0.83334   0.87155   0.09511   0.00000  Uiso   1.00
O392   O     0.83333   0.79512   0.23822   0.00000  Uiso   1.00
O393   O     0.83333   0.87155   0.23822   0.00000  Uiso   1.00
O394   O     0.83334   0.79512   0.09511   0.00000  Uiso   1.00
Zn395  Zn    0.83333   0.88437   0.16667   0.00000  Uiso   1.00
Zn396  Zn    0.83333   0.78229   0.16667   0.00000  Uiso   1.00
C397   C     0.08681   0.16668   0.49998   0.00000  Uiso   1.00
C398   C     0.02177   0.19012   0.53795   0.00000  Uiso   1.00
C399   C     0.29067   0.16663   0.50002   0.00000  Uiso   1.00
C400   C     0.04266   0.16670   0.49998   0.00000  Uiso   1.00
C401   C     0.19423   0.02389   0.52909   0.00000  Uiso   1.00
C402   C     0.13910   0.30945   0.47091   0.00000  Uiso   1.00
C403   C     0.13910   0.02401   0.47090   0.00000  Uiso   1.00
C404   C     0.19423   0.30933   0.52910   0.00000  Uiso   1.00
C405   C     0.24653   0.16665   0.50001   0.00000  Uiso   1.00
C406   C     0.16665   0.16668   0.40623   0.00000  Uiso   1.00
C407   C     0.16668   0.16665   0.59377   0.00000  Uiso   1.00
C408   C     0.16666   0.16669   0.35513   0.00000  Uiso   1.00
C409   C     0.16667   0.16664   0.64487   0.00000  Uiso   1.00
C410   C     0.02168   0.14323   0.46203   0.00000  Uiso   1.00
C411   C     0.31165   0.19009   0.53797   0.00000  Uiso   1.00
C412   C     0.31156   0.14321   0.46204   0.00000  Uiso   1.00
H413   H     0.21630   0.04192   0.55240   0.00000  Uiso   1.00
H414   H     0.29636   0.13465   0.38881   0.00000  Uiso   1.00
H415   H     0.03697   0.19868   0.61118   0.00000  Uiso   1.00
H416   H     0.03702   0.24685   0.57651   0.00000  Uiso   1.00
H417   H     0.11703   0.29141   0.44760   0.00000  Uiso   1.00
H418   H     0.11703   0.04213   0.44760   0.00000  Uiso   1.00
H419   H     0.21630   0.29121   0.55240   0.00000  Uiso   1.00
H420   H     0.03699   0.08646   0.42360   0.00000  Uiso   1.00
H421   H     0.03661   0.13456   0.38879   0.00000  Uiso   1.00
H422   H     0.29672   0.19873   0.61121   0.00000  Uiso   1.00
H423   H     0.29635   0.24685   0.57644   0.00000  Uiso   1.00
H424   H     0.29631   0.08648   0.42348   0.00000  Uiso   1.00
N425   N     0.16667   0.28573   0.50000   0.00000  Uiso   1.00
N426   N     0.16667   0.04760   0.50000   0.00000  Uiso   1.00
N427   N     0.04489   0.12069   0.42340   0.00000  Uiso   1.00
N428   N     0.28844   0.21261   0.57662   0.00000  Uiso   1.00
N429   N     0.28827   0.12069   0.42339   0.00000  Uiso   1.00
N430   N     0.04506   0.21264   0.57660   0.00000  Uiso   1.00
O431   O     0.10559   0.20487   0.50000   0.00000  Uiso   1.00
O432   O     0.22774   0.12846   0.50000   0.00000  Uiso   1.00
O433   O     0.22774   0.20487   0.50000   0.00000  Uiso   1.00
O434   O     0.10559   0.12846   0.50000   0.00000  Uiso   1.00
O435   O     0.16667   0.20488   0.42845   0.00000  Uiso   1.00
O436   O     0.16666   0.12845   0.57155   0.00000  Uiso   1.00
O437   O     0.16666   0.20488   0.57155   0.00000  Uiso   1.00
O438   O     0.16667   0.12845   0.42845   0.00000  Uiso   1.00
Zn439  Zn    0.16667   0.21771   0.50000   0.00000  Uiso   1.00
Zn440  Zn    0.16667   0.11563   0.50000   0.00000  Uiso   1.00
C441   C     0.42014   0.16668   0.49998   0.00000  Uiso   1.00
C442   C     0.35510   0.19012   0.53795   0.00000  Uiso   1.00
C443   C     0.62401   0.16663   0.50002   0.00000  Uiso   1.00
C444   C     0.37599   0.16670   0.49998   0.00000  Uiso   1.00
C445   C     0.52757   0.02389   0.52909   0.00000  Uiso   1.00
C446   C     0.47243   0.30945   0.47091   0.00000  Uiso   1.00
C447   C     0.47243   0.02401   0.47090   0.00000  Uiso   1.00
C448   C     0.52757   0.30933   0.52910   0.00000  Uiso   1.00
C449   C     0.57986   0.16665   0.50001   0.00000  Uiso   1.00
C450   C     0.49999   0.16668   0.40623   0.00000  Uiso   1.00
C451   C     0.50001   0.16665   0.59377   0.00000  Uiso   1.00
C452   C     0.49999   0.16669   0.35513   0.00000  Uiso   1.00
C453   C     0.50001   0.16664   0.64487   0.00000  Uiso   1.00
C454   C     0.35502   0.14323   0.46203   0.00000  Uiso   1.00
C455   C     0.64498   0.19009   0.53797   0.00000  Uiso   1.00
C456   C     0.64490   0.14321   0.46204   0.00000  Uiso   1.00
H457   H     0.54963   0.04192   0.55240   0.00000  Uiso   1.00
H458   H     0.62969   0.13465   0.38881   0.00000  Uiso   1.00
H459   H     0.37030   0.19868   0.61118   0.00000  Uiso   1.00
H460   H     0.37035   0.24685   0.57651   0.00000  Uiso   1.00
H461   H     0.45036   0.29141   0.44760   0.00000  Uiso   1.00
H462   H     0.45036   0.04213   0.44760   0.00000  Uiso   1.00
H463   H     0.54964   0.29121   0.55240   0.00000  Uiso   1.00
H464   H     0.37032   0.08646   0.42360   0.00000  Uiso   1.00
H465   H     0.36995   0.13456   0.38879   0.00000  Uiso   1.00
H466   H     0.63005   0.19873   0.61121   0.00000  Uiso   1.00
H467   H     0.62968   0.24685   0.57644   0.00000  Uiso   1.00
H468   H     0.62964   0.08648   0.42348   0.00000  Uiso   1.00
N469   N     0.50000   0.28573   0.50000   0.00000  Uiso   1.00
N470   N     0.50000   0.04760   0.50000   0.00000  Uiso   1.00
N471   N     0.37822   0.12069   0.42340   0.00000  Uiso   1.00
N472   N     0.62178   0.21261   0.57662   0.00000  Uiso   1.00
N473   N     0.62161   0.12069   0.42339   0.00000  Uiso   1.00
N474   N     0.37839   0.21264   0.57660   0.00000  Uiso   1.00
O475   O     0.43892   0.20487   0.50000   0.00000  Uiso   1.00
O476   O     0.56108   0.12846   0.50000   0.00000  Uiso   1.00
O477   O     0.56108   0.20487   0.50000   0.00000  Uiso   1.00
O478   O     0.43892   0.12846   0.50000   0.00000  Uiso   1.00
O479   O     0.50000   0.20488   0.42845   0.00000  Uiso   1.00
O480   O     0.50000   0.12845   0.57155   0.00000  Uiso   1.00
O481   O     0.50000   0.20488   0.57155   0.00000  Uiso   1.00
O482   O     0.50000   0.12845   0.42845   0.00000  Uiso   1.00
Zn483  Zn    0.50000   0.21771   0.50000   0.00000  Uiso   1.00
Zn484  Zn    0.50000   0.11563   0.50000   0.00000  Uiso   1.00
C485   C     0.75347   0.16668   0.49998   0.00000  Uiso   1.00
C486   C     0.68843   0.19012   0.53795   0.00000  Uiso   1.00
C487   C     0.95734   0.16663   0.50002   0.00000  Uiso   1.00
C488   C     0.70933   0.16670   0.49998   0.00000  Uiso   1.00
C489   C     0.86090   0.02389   0.52909   0.00000  Uiso   1.00
C490   C     0.80577   0.30945   0.47091   0.00000  Uiso   1.00
C491   C     0.80576   0.02401   0.47090   0.00000  Uiso   1.00
C492   C     0.86090   0.30933   0.52910   0.00000  Uiso   1.00
C493   C     0.91319   0.16665   0.50001   0.00000  Uiso   1.00
C494   C     0.83332   0.16668   0.40623   0.00000  Uiso   1.00
C495   C     0.83335   0.16665   0.59377   0.00000  Uiso   1.00
C496   C     0.83333   0.16669   0.35513   0.00000  Uiso   1.00
C497   C     0.83334   0.16664   0.64487   0.00000  Uiso   1.00
C498   C     0.68835   0.14323   0.46203   0.00000  Uiso   1.00
C499   C     0.97831   0.19009   0.53797   0.00000  Uiso   1.00
C500   C     0.97823   0.14321   0.46204   0.00000  Uiso   1.00
H501   H     0.88297   0.04192   0.55240   0.00000  Uiso   1.00
H502   H     0.96303   0.13465   0.38881   0.00000  Uiso   1.00
H503   H     0.70364   0.19868   0.61118   0.00000  Uiso   1.00
H504   H     0.70369   0.24685   0.57651   0.00000  Uiso   1.00
H505   H     0.78370   0.29141   0.44760   0.00000  Uiso   1.00
H506   H     0.78370   0.04213   0.44760   0.00000  Uiso   1.00
H507   H     0.88297   0.29121   0.55240   0.00000  Uiso   1.00
H508   H     0.70365   0.08646   0.42360   0.00000  Uiso   1.00
H509   H     0.70328   0.13456   0.38879   0.00000  Uiso   1.00
H510   H     0.96338   0.19873   0.61121   0.00000  Uiso   1.00
H511   H     0.96301   0.24685   0.57644   0.00000  Uiso   1.00
H512   H     0.96298   0.08648   0.42348   0.00000  Uiso   1.00
N513   N     0.83333   0.28573   0.50000   0.00000  Uiso   1.00
N514   N     0.83333   0.04760   0.50000   0.00000  Uiso   1.00
N515   N     0.71156   0.12069   0.42340   0.00000  Uiso   1.00
N516   N     0.95511   0.21261   0.57662   0.00000  Uiso   1.00
N517   N     0.95494   0.12069   0.42339   0.00000  Uiso   1.00
N518   N     0.71172   0.21264   0.57660   0.00000  Uiso   1.00
O519   O     0.77226   0.20487   0.50000   0.00000  Uiso   1.00
O520   O     0.89441   0.12846   0.50000   0.00000  Uiso   1.00
O521   O     0.89441   0.20487   0.50000   0.00000  Uiso   1.00
O522   O     0.77226   0.12846   0.50000   0.00000  Uiso   1.00
O523   O     0.83334   0.20488   0.42845   0.00000  Uiso   1.00
O524   O     0.83333   0.12845   0.57155   0.00000  Uiso   1.00
O525   O     0.83333   0.20488   0.57155   0.00000  Uiso   1.00
O526   O     0.83334   0.12845   0.42845   0.00000  Uiso   1.00
Zn527  Zn    0.83333   0.21771   0.50000   0.00000  Uiso   1.00
Zn528  Zn    0.83333   0.11563   0.50000   0.00000  Uiso   1.00
C529   C     0.08681   0.50001   0.49998   0.00000  Uiso   1.00
C530   C     0.02177   0.52345   0.53795   0.00000  Uiso   1.00
C531   C     0.29067   0.49996   0.50002   0.00000  Uiso   1.00
C532   C     0.04266   0.50003   0.49998   0.00000  Uiso   1.00
C533   C     0.19423   0.35722   0.52909   0.00000  Uiso   1.00
C534   C     0.13910   0.64278   0.47091   0.00000  Uiso   1.00
C535   C     0.13910   0.35734   0.47090   0.00000  Uiso   1.00
C536   C     0.19423   0.64266   0.52910   0.00000  Uiso   1.00
C537   C     0.24653   0.49999   0.50001   0.00000  Uiso   1.00
C538   C     0.16665   0.50002   0.40623   0.00000  Uiso   1.00
C539   C     0.16668   0.49998   0.59377   0.00000  Uiso   1.00
C540   C     0.16666   0.50002   0.35513   0.00000  Uiso   1.00
C541   C     0.16667   0.49998   0.64487   0.00000  Uiso   1.00
C542   C     0.02168   0.47657   0.46203   0.00000  Uiso   1.00
C543   C     0.31165   0.52342   0.53797   0.00000  Uiso   1.00
C544   C     0.31156   0.47654   0.46204   0.00000  Uiso   1.00
H545   H     0.21630   0.37525   0.55240   0.00000  Uiso   1.00
H546   H     0.29636   0.46799   0.38881   0.00000  Uiso   1.00
H547   H     0.03697   0.53201   0.61118   0.00000  Uiso   1.00
H548   H     0.03702   0.58018   0.57651   0.00000  Uiso   1.00
H549   H     0.11703   0.62475   0.44760   0.00000  Uiso   1.00
H550   H     0.11703   0.37546   0.44760   0.00000  Uiso   1.00
H551   H     0.21630   0.62454   0.55240   0.00000  Uiso   1.00
H552   H     0.03699   0.41979   0.42360   0.00000  Uiso   1.00
H553   H     0.03661   0.46789   0.38879   0.00000  Uiso   1.00
H554   H     0.29672   0.53207   0.61121   0.00000  Uiso   1.00
H555   H     0.29635   0.58018   0.57644   0.00000  Uiso   1.00
H556   H     0.29631   0.41981   0.42348   0.00000  Uiso   1.00
N557   N     0.16667   0.61907   0.50000   0.00000  Uiso   1.00
N558   N     0.16667   0.38093   0.50000   0.00000  Uiso   1.00
N559   N     0.04489   0.45403   0.42340   0.00000  Uiso   1.00
N560   N     0.28844   0.54595   0.57662   0.00000  Uiso   1.00
N561   N     0.28827   0.45403   0.42339   0.00000  Uiso   1.00
N562   N     0.04506   0.54597   0.57660   0.00000  Uiso   1.00
O563   O     0.10559   0.53821   0.50000   0.00000  Uiso   1.00
O564   O     0.22774   0.46179   0.50000   0.00000  Uiso   1.00
O565   O     0.22774   0.53821   0.50000   0.00000  Uiso   1.00
O566   O     0.10559   0.46179   0.50000   0.00000  Uiso   1.00
O567   O     0.16667   0.53821   0.42845   0.00000  Uiso   1.00
O568   O     0.16666   0.46179   0.57155   0.00000  Uiso   1.00
O569   O     0.16666   0.53821   0.57155   0.00000  Uiso   1.00
O570   O     0.16667   0.46179   0.42845   0.00000  Uiso   1.00
Zn571  Zn    0.16667   0.55104   0.50000   0.00000  Uiso   1.00
Zn572  Zn    0.16667   0.44896   0.50000   0.00000  Uiso   1.00
C573   C     0.42014   0.50001   0.49998   0.00000  Uiso   1.00
C574   C     0.35510   0.52345   0.53795   0.00000  Uiso   1.00
C575   C     0.62401   0.49996   0.50002   0.00000  Uiso   1.00
C576   C     0.37599   0.50003   0.49998   0.00000  Uiso   1.00
C577   C     0.52757   0.35722   0.52909   0.00000  Uiso   1.00
C578   C     0.47243   0.64278   0.47091   0.00000  Uiso   1.00
C579   C     0.47243   0.35734   0.47090   0.00000  Uiso   1.00
C580   C     0.52757   0.64266   0.52910   0.00000  Uiso   1.00
C581   C     0.57986   0.49999   0.50001   0.00000  Uiso   1.00
C582   C     0.49999   0.50002   0.40623   0.00000  Uiso   1.00
C583   C     0.50001   0.49998   0.59377   0.00000  Uiso   1.00
C584   C     0.49999   0.50002   0.35513   0.00000  Uiso   1.00
C585   C     0.50001   0.49998   0.64487   0.00000  Uiso   1.00
C586   C     0.35502   0.47657   0.46203   0.00000  Uiso   1.00
C587   C     0.64498   0.52342   0.53797   0.00000  Uiso   1.00
C588   C     0.64490   0.47654   0.46204   0.00000  Uiso   1.00
H589   H     0.54963   0.37525   0.55240   0.00000  Uiso   1.00
H590   H     0.62969   0.46799   0.38881   0.00000  Uiso   1.00
H591   H     0.37030   0.53201   0.61118   0.00000  Uiso   1.00
H592   H     0.37035   0.58018   0.57651   0.00000  Uiso   1.00
H593   H     0.45036   0.62475   0.44760   0.00000  Uiso   1.00
H594   H     0.45036   0.37546   0.44760   0.00000  Uiso   1.00
H595   H     0.54964   0.62454   0.55240   0.00000  Uiso   1.00
H596   H     0.37032   0.41979   0.42360   0.00000  Uiso   1.00
H597   H     0.36995   0.46789   0.38879   0.00000  Uiso   1.00
H598   H     0.63005   0.53207   0.61121   0.00000  Uiso   1.00
H599   H     0.62968   0.58018   0.57644   0.00000  Uiso   1.00
H600   H     0.62964   0.41981   0.42348   0.00000  Uiso   1.00
N601   N     0.50000   0.61907   0.50000   0.00000  Uiso   1.00
N602   N     0.50000   0.38093   0.50000   0.00000  Uiso   1.00
N603   N     0.37822   0.45403   0.42340   0.00000  Uiso   1.00
N604   N     0.62178   0.54595   0.57662   0.00000  Uiso   1.00
N605   N     0.62161   0.45403   0.42339   0.00000  Uiso   1.00
N606   N     0.37839   0.54597   0.57660   0.00000  Uiso   1.00
O607   O     0.43892   0.53821   0.50000   0.00000  Uiso   1.00
O608   O     0.56108   0.46179   0.50000   0.00000  Uiso   1.00
O609   O     0.56108   0.53821   0.50000   0.00000  Uiso   1.00
O610   O     0.43892   0.46179   0.50000   0.00000  Uiso   1.00
O611   O     0.50000   0.53821   0.42845   0.00000  Uiso   1.00
O612   O     0.50000   0.46179   0.57155   0.00000  Uiso   1.00
O613   O     0.50000   0.53821   0.57155   0.00000  Uiso   1.00
O614   O     0.50000   0.46179   0.42845   0.00000  Uiso   1.00
Zn615  Zn    0.50000   0.55104   0.50000   0.00000  Uiso   1.00
Zn616  Zn    0.50000   0.44896   0.50000   0.00000  Uiso   1.00
C617   C     0.75347   0.50001   0.49998   0.00000  Uiso   1.00
C618   C     0.68843   0.52345   0.53795   0.00000  Uiso   1.00
C619   C     0.95734   0.49996   0.50002   0.00000  Uiso   1.00
C620   C     0.70933   0.50003   0.49998   0.00000  Uiso   1.00
C621   C     0.86090   0.35722   0.52909   0.00000  Uiso   1.00
C622   C     0.80577   0.64278   0.47091   0.00000  Uiso   1.00
C623   C     0.80576   0.35734   0.47090   0.00000  Uiso   1.00
C624   C     0.86090   0.64266   0.52910   0.00000  Uiso   1.00
C625   C     0.91319   0.49999   0.50001   0.00000  Uiso   1.00
C626   C     0.83332   0.50002   0.40623   0.00000  Uiso   1.00
C627   C     0.83335   0.49998   0.59377   0.00000  Uiso   1.00
C628   C     0.83333   0.50002   0.35513   0.00000  Uiso   1.00
C629   C     0.83334   0.49998   0.64487   0.00000  Uiso   1.00
C630   C     0.68835   0.47657   0.46203   0.00000  Uiso   1.00
C631   C     0.97831   0.52342   0.53797   0.00000  Uiso   1.00
C632   C     0.97823   0.47654   0.46204   0.00000  Uiso   1.00
H633   H     0.88297   0.37525   0.55240   0.00000  Uiso   1.00
H634   H     0.96303   0.46799   0.38881   0.00000  Uiso   1.00
H635   H     0.70364   0.53201   0.61118   0.00000  Uiso   1.00
H636   H     0.70369   0.58018   0.57651   0.00000  Uiso   1.00
H637   H     0.78370   0.62475   0.44760   0.00000  Uiso   1.00
H638   H     0.78370   0.37546   0.44760   0.00000  Uiso   1.00
H639   H     0.88297   0.62454   0.55240   0.00000  Uiso   1.00
H640   H     0.70365   0.41979   0.42360   0.00000  Uiso   1.00
H641   H     0.70328   0.46789   0.38879   0.00000  Uiso   1.00
H642   H     0.96338   0.53207   0.61121   0.00000  Uiso   1.00
H643   H     0.96301   0.58018   0.57644   0.00000  Uiso   1.00
H644   H     0.96298   0.41981   0.42348   0.00000  Uiso   1.00
N645   N     0.83333   0.61907   0.50000   0.00000  Uiso   1.00
N646   N     0.83333   0.38093   0.50000   0.00000  Uiso   1.00
N647   N     0.71156   0.45403   0.42340   0.00000  Uiso   1.00
N648   N     0.95511   0.54595   0.57662   0.00000  Uiso   1.00
N649   N     0.95494   0.45403   0.42339   0.00000  Uiso   1.00
N650   N     0.71172   0.54597   0.57660   0.00000  Uiso   1.00
O651   O     0.77226   0.53821   0.50000   0.00000  Uiso   1.00
O652   O     0.89441   0.46179   0.50000   0.00000  Uiso   1.00
O653   O     0.89441   0.53821   0.50000   0.00000  Uiso   1.00
O654   O     0.77226   0.46179   0.50000   0.00000  Uiso   1.00
O655   O     0.83334   0.53821   0.42845   0.00000  Uiso   1.00
O656   O     0.83333   0.46179   0.57155   0.00000  Uiso   1.00
O657   O     0.83333   0.53821   0.57155   0.00000  Uiso   1.00
O658   O     0.83334   0.46179   0.42845   0.00000  Uiso   1.00
Zn659  Zn    0.83333   0.55104   0.50000   0.00000  Uiso   1.00
Zn660  Zn    0.83333   0.44896   0.50000   0.00000  Uiso   1.00
C661   C     0.08681   0.83335   0.49998   0.00000  Uiso   1.00
C662   C     0.02177   0.85679   0.53795   0.00000  Uiso   1.00
C663   C     0.29067   0.83330   0.50002   0.00000  Uiso   1.00
C664   C     0.04266   0.83337   0.49998   0.00000  Uiso   1.00
C665   C     0.19423   0.69055   0.52909   0.00000  Uiso   1.00
C666   C     0.13910   0.97611   0.47091   0.00000  Uiso   1.00
C667   C     0.13910   0.69067   0.47090   0.00000  Uiso   1.00
C668   C     0.19423   0.97599   0.52910   0.00000  Uiso   1.00
C669   C     0.24653   0.83332   0.50001   0.00000  Uiso   1.00
C670   C     0.16665   0.83335   0.40623   0.00000  Uiso   1.00
C671   C     0.16668   0.83332   0.59377   0.00000  Uiso   1.00
C672   C     0.16666   0.83336   0.35513   0.00000  Uiso   1.00
C673   C     0.16667   0.83331   0.64487   0.00000  Uiso   1.00
C674   C     0.02168   0.80990   0.46203   0.00000  Uiso   1.00
C675   C     0.31165   0.85676   0.53797   0.00000  Uiso   1.00
C676   C     0.31156   0.80988   0.46204   0.00000  Uiso   1.00
H677   H     0.21630   0.70859   0.55240   0.00000  Uiso   1.00
H678   H     0.29636   0.80132   0.38881   0.00000  Uiso   1.00
H679   H     0.03697   0.86534   0.61118   0.00000  Uiso   1.00
H680   H     0.03702   0.91352   0.57651   0.00000  Uiso   1.00
H681   H     0.11703   0.95808   0.44760   0.00000  Uiso   1.00
H682   H     0.11703   0.70879   0.44760   0.00000  Uiso   1.00
H683   H     0.21630   0.95787   0.55240   0.00000  Uiso   1.00
H684   H     0.03699   0.75312   0.42360   0.00000  Uiso   1.00
H685   H     0.03661   0.80122   0.38879   0.00000  Uiso   1.00
H686   H     0.29672   0.86540   0.61121   0.00000  Uiso   1.00
H687   H     0.29635   0.91352   0.57644   0.00000  Uiso   1.00
H688   H     0.29631   0.75315   0.42348   0.00000  Uiso   1.00
N689   N     0.16667   0.95240   0.50000   0.00000  Uiso   1.00
N690   N     0.16667   0.71427   0.50000   0.00000  Uiso   1.00
N691   N     0.04489   0.78736   0.42340   0.00000  Uiso   1.00
N692   N     0.28844   0.87928   0.57662   0.00000  Uiso   1.00
N693   N     0.28827   0.78736   0.42339   0.00000  Uiso   1.00
N694   N     0.04506   0.87930   0.57660   0.00000  Uiso   1.00
O695   O     0.10559   0.87154   0.50000   0.00000  Uiso   1.00
O696   O     0.22774   0.79513   0.50000   0.00000  Uiso   1.00
O697   O     0.22774   0.87154   0.50000   0.00000  Uiso   1.00
O698   O     0.10559   0.79513   0.50000   0.00000  Uiso   1.00
O699   O     0.16667   0.87155   0.42845   0.00000  Uiso   1.00
O700   O     0.16666   0.79512   0.57155   0.00000  Uiso   1.00
O701   O     0.16666   0.87155   0.57155   0.00000  Uiso   1.00
O702   O     0.16667   0.79512   0.42845   0.00000  Uiso   1.00
Zn703  Zn    0.16667   0.88437   0.50000   0.00000  Uiso   1.00
Zn704  Zn    0.16667   0.78229   0.50000   0.00000  Uiso   1.00
C705   C     0.42014   0.83335   0.49998   0.00000  Uiso   1.00
C706   C     0.35510   0.85679   0.53795   0.00000  Uiso   1.00
C707   C     0.62401   0.83330   0.50002   0.00000  Uiso   1.00
C708   C     0.37599   0.83337   0.49998   0.00000  Uiso   1.00
C709   C     0.52757   0.69055   0.52909   0.00000  Uiso   1.00
C710   C     0.47243   0.97611   0.47091   0.00000  Uiso   1.00
C711   C     0.47243   0.69067   0.47090   0.00000  Uiso   1.00
C712   C     0.52757   0.97599   0.52910   0.00000  Uiso   1.00
C713   C     0.57986   0.83332   0.50001   0.00000  Uiso   1.00
C714   C     0.49999   0.83335   0.40623   0.00000  Uiso   1.00
C715   C     0.50001   0.83332   0.59377   0.00000  Uiso   1.00
C716   C     0.49999   0.83336   0.35513   0.00000  Uiso   1.00
C717   C     0.50001   0.83331   0.64487   0.00000  Uiso   1.00
C718   C     0.35502   0.80990   0.46203   0.00000  Uiso   1.00
C719   C     0.64498   0.85676   0.53797   0.00000  Uiso   1.00
C720   C     0.64490   0.80988   0.46204   0.00000  Uiso   1.00
H721   H     0.54963   0.70859   0.55240   0.00000  Uiso   1.00
H722   H     0.62969   0.80132   0.38881   0.00000  Uiso   1.00
H723   H     0.37030   0.86534   0.61118   0.00000  Uiso   1.00
H724   H     0.37035   0.91352   0.57651   0.00000  Uiso   1.00
H725   H     0.45036   0.95808   0.44760   0.00000  Uiso   1.00
H726   H     0.45036   0.70879   0.44760   0.00000  Uiso   1.00
H727   H     0.54964   0.95787   0.55240   0.00000  Uiso   1.00
H728   H     0.37032   0.75312   0.42360   0.00000  Uiso   1.00
H729   H     0.36995   0.80122   0.38879   0.00000  Uiso   1.00
H730   H     0.63005   0.86540   0.61121   0.00000  Uiso   1.00
H731   H     0.62968   0.91352   0.57644   0.00000  Uiso   1.00
H732   H     0.62964   0.75315   0.42348   0.00000  Uiso   1.00
N733   N     0.50000   0.95240   0.50000   0.00000  Uiso   1.00
N734   N     0.50000   0.71427   0.50000   0.00000  Uiso   1.00
N735   N     0.37822   0.78736   0.42340   0.00000  Uiso   1.00
N736   N     0.62178   0.87928   0.57662   0.00000  Uiso   1.00
N737   N     0.62161   0.78736   0.42339   0.00000  Uiso   1.00
N738   N     0.37839   0.87930   0.57660   0.00000  Uiso   1.00
O739   O     0.43892   0.87154   0.50000   0.00000  Uiso   1.00
O740   O     0.56108   0.79513   0.50000   0.00000  Uiso   1.00
O741   O     0.56108   0.87154   0.50000   0.00000  Uiso   1.00
O742   O     0.43892   0.79513   0.50000   0.00000  Uiso   1.00
O743   O     0.50000   0.87155   0.42845   0.00000  Uiso   1.00
O744   O     0.50000   0.79512   0.57155   0.00000  Uiso   1.00
O745   O     0.50000   0.87155   0.57155   0.00000  Uiso   1.00
O746   O     0.50000   0.79512   0.42845   0.00000  Uiso   1.00
Zn747  Zn    0.50000   0.88437   0.50000   0.00000  Uiso   1.00
Zn748  Zn    0.50000   0.78229   0.50000   0.00000  Uiso   1.00
C749   C     0.75347   0.83335   0.49998   0.00000  Uiso   1.00
C750   C     0.68843   0.85679   0.53795   0.00000  Uiso   1.00
C751   C     0.95734   0.83330   0.50002   0.00000  Uiso   1.00
C752   C     0.70933   0.83337   0.49998   0.00000  Uiso   1.00
C753   C     0.86090   0.69055   0.52909   0.00000  Uiso   1.00
C754   C     0.80577   0.97611   0.47091   0.00000  Uiso   1.00
C755   C     0.80576   0.69067   0.47090   0.00000  Uiso   1.00
C756   C     0.86090   0.97599   0.52910   0.00000  Uiso   1.00
C757   C     0.91319   0.83332   0.50001   0.00000  Uiso   1.00
C758   C     0.83332   0.83335   0.40623   0.00000  Uiso   1.00
C759   C     0.83335   0.83332   0.59377   0.00000  Uiso   1.00
C760   C     0.83333   0.83336   0.35513   0.00000  Uiso   1.00
C761   C     0.83334   0.83331   0.64487   0.00000  Uiso   1.00
C762   C     0.68835   0.80990   0.46203   0.00000  Uiso   1.00
C763   C     0.97831   0.85676   0.53797   0.00000  Uiso   1.00
C764   C     0.97823   0.80988   0.46204   0.00000  Uiso   1.00
H765   H     0.88297   0.70859   0.55240   0.00000  Uiso   1.00
H766   H     0.96303   0.80132   0.38881   0.00000  Uiso   1.00
H767   H     0.70364   0.86534   0.61118   0.00000  Uiso   1.00
H768   H     0.70369   0.91352   0.57651   0.00000  Uiso   1.00
H769   H     0.78370   0.95808   0.44760   0.00000  Uiso   1.00
H770   H     0.78370   0.70879   0.44760   0.00000  Uiso   1.00
H771   H     0.88297   0.95787   0.55240   0.00000  Uiso   1.00
H772   H     0.70365   0.75312   0.42360   0.00000  Uiso   1.00
H773   H     0.70328   0.80122   0.38879   0.00000  Uiso   1.00
H774   H     0.96338   0.86540   0.61121   0.00000  Uiso   1.00
H775   H     0.96301   0.91352   0.57644   0.00000  Uiso   1.00
H776   H     0.96298   0.75315   0.42348   0.00000  Uiso   1.00
N777   N     0.83333   0.95240   0.50000   0.00000  Uiso   1.00
N778   N     0.83333   0.71427   0.50000   0.00000  Uiso   1.00
N779   N     0.71156   0.78736   0.42340   0.00000  Uiso   1.00
N780   N     0.95511   0.87928   0.57662   0.00000  Uiso   1.00
N781   N     0.95494   0.78736   0.42339   0.00000  Uiso   1.00
N782   N     0.71172   0.87930   0.57660   0.00000  Uiso   1.00
O783   O     0.77226   0.87154   0.50000   0.00000  Uiso   1.00
O784   O     0.89441   0.79513   0.50000   0.00000  Uiso   1.00
O785   O     0.89441   0.87154   0.50000   0.00000  Uiso   1.00
O786   O     0.77226   0.79513   0.50000   0.00000  Uiso   1.00
O787   O     0.83334   0.87155   0.42845   0.00000  Uiso   1.00
O788   O     0.83333   0.79512   0.57155   0.00000  Uiso   1.00
O789   O     0.83333   0.87155   0.57155   0.00000  Uiso   1.00
O790   O     0.83334   0.79512   0.42845   0.00000  Uiso   1.00
Zn791  Zn    0.83333   0.88437   0.50000   0.00000  Uiso   1.00
Zn792  Zn    0.83333   0.78229   0.50000   0.00000  Uiso   1.00
C793   C     0.08681   0.16668   0.83332   0.00000  Uiso   1.00
C794   C     0.02177   0.19012   0.87129   0.00000  Uiso   1.00
C795   C     0.29067   0.16663   0.83335   0.00000  Uiso   1.00
C796   C     0.04266   0.16670   0.83331   0.00000  Uiso   1.00
C797   C     0.19423   0.02389   0.86243   0.00000  Uiso   1.00
C798   C     0.13910   0.30945   0.80424   0.00000  Uiso   1.00
C799   C     0.13910   0.02401   0.80424   0.00000  Uiso   1.00
C800   C     0.19423   0.30933   0.86243   0.00000  Uiso   1.00
C801   C     0.24653   0.16665   0.83335   0.00000  Uiso   1.00
C802   C     0.16665   0.16668   0.73956   0.00000  Uiso   1.00
C803   C     0.16668   0.16665   0.92710   0.00000  Uiso   1.00
C804   C     0.16666   0.16669   0.68846   0.00000  Uiso   1.00
C805   C     0.16667   0.16664   0.97820   0.00000  Uiso   1.00
C806   C     0.02168   0.14323   0.79536   0.00000  Uiso   1.00
C807   C     0.31165   0.19009   0.87131   0.00000  Uiso   1.00
C808   C     0.31156   0.14321   0.79538   0.00000  Uiso   1.00
H809   H     0.21630   0.04192   0.88573   0.00000  Uiso   1.00
H810   H     0.29636   0.13465   0.72215   0.00000  Uiso   1.00
H811   H     0.03697   0.19868   0.94451   0.00000  Uiso   1.00
H812   H     0.03702   0.24685   0.90985   0.00000  Uiso   1.00
H813   H     0.11703   0.29141   0.78093   0.00000  Uiso   1.00
H814   H     0.11703   0.04213   0.78093   0.00000  Uiso   1.00
H815   H     0.21630   0.29121   0.88573   0.00000  Uiso   1.00
H816   H     0.03699   0.08646   0.75693   0.00000  Uiso   1.00
H817   H     0.03661   0.13456   0.72213   0.00000  Uiso   1.00
H818   H     0.29672   0.19873   0.94455   0.00000  Uiso   1.00
H819   H     0.29635   0.24685   0.90978   0.00000  Uiso   1.00
H820   H     0.29631   0.08648   0.75681   0.00000  Uiso   1.00
N821   N     0.16667   0.28573   0.83333   0.00000  Uiso   1.00
N822   N     0.16667   0.04760   0.83333   0.00000  Uiso   1.00
N823   N     0.04489   0.12069   0.75673   0.00000  Uiso   1.00
N824   N     0.28844   0.21261   0.90995   0.00000  Uiso   1.00
N825   N     0.28827   0.12069   0.75672   0.00000  Uiso   1.00
N826   N     0.04506   0.21264   0.90994   0.00000  Uiso   1.00
O827   O     0.10559   0.20487   0.83333   0.00000  Uiso   1.00
O828   O     0.22774   0.12846   0.83334   0.00000  Uiso   1.00
O829   O     0.22774   0.20487   0.83334   0.00000  Uiso   1.00
O830   O     0.10559   0.12846   0.83333   0.00000  Uiso   1.00
O831   O     0.16667   0.20488   0.76178   0.00000  Uiso   1.00
O832   O     0.16666   0.12845   0.90489   0.00000  Uiso   1.00
O833   O     0.16666   0.20488   0.90489   0.00000  Uiso   1.00
O834   O     0.16667   0.12845   0.76178   0.00000  Uiso   1.00
Zn835  Zn    0.16667   0.21771   0.83333   0.00000  Uiso   1.00
Zn836  Zn    0.16667   0.11563   0.83333   0.00000  Uiso   1.00
C837   C     0.42014   0.16668   0.83332   0.00000  Uiso   1.00
C838   C     0.35510   0.19012   0.87129   0.00000  Uiso   1.00
C839   C     0.62401   0.16663   0.83335   0.00000  Uiso   1.00
C840   C     0.37599   0.16670   0.83331   0.00000  Uiso   1.00
C841   C     0.52757   0.02389   0.86243   0.00000  Uiso   1.00
C842   C     0.47243   0.30945   0.80424   0.00000  Uiso   1.00
C843   C     0.47243   0.02401   0.80424   0.00000  Uiso   1.00
C844   C     0.52757   0.30933   0.86243   0.00000  Uiso   1.00
C845   C     0.57986   0.16665   0.83335   0.00000  Uiso   1.00
C846   C     0.49999   0.16668   0.73956   0.00000  Uiso   1.00
C847   C     0.50001   0.16665   0.92710   0.00000  Uiso   1.00
C848   C     0.49999   0.16669   0.68846   0.00000  Uiso   1.00
C849   C     0.50001   0.16664   0.97820   0.00000  Uiso   1.00
C850   C     0.35502   0.14323   0.79536   0.00000  Uiso   1.00
C851   C     0.64498   0.19009   0.87131   0.00000  Uiso   1.00
C852   C     0.64490   0.14321   0.79538   0.00000  Uiso   1.00
H853   H     0.54963   0.04192   0.88573   0.00000  Uiso   1.00
H854   H     0.62969   0.13465   0.72215   0.00000  Uiso   1.00
H855   H     0.37030   0.19868   0.94451   0.00000  Uiso   1.00
H856   H     0.37035   0.24685   0.90985   0.00000  Uiso   1.00
H857   H     0.45036   0.29141   0.78093   0.00000  Uiso   1.00
H858   H     0.45036   0.04213   0.78093   0.00000  Uiso   1.00
H859   H     0.54964   0.29121   0.88573   0.00000  Uiso   1.00
H860   H     0.37032   0.08646   0.75693   0.00000  Uiso   1.00
H861   H     0.36995   0.13456   0.72213   0.00000  Uiso   1.00
H862   H     0.63005   0.19873   0.94455   0.00000  Uiso   1.00
H863   H     0.62968   0.24685   0.90978   0.00000  Uiso   1.00
H864   H     0.62964   0.08648   0.75681   0.00000  Uiso   1.00
N865   N     0.50000   0.28573   0.83333   0.00000  Uiso   1.00
N866   N     0.50000   0.04760   0.83333   0.00000  Uiso   1.00
N867   N     0.37822   0.12069   0.75673   0.00000  Uiso   1.00
N868   N     0.62178   0.21261   0.90995   0.00000  Uiso   1.00
N869   N     0.62161   0.12069   0.75672   0.00000  Uiso   1.00
N870   N     0.37839   0.21264   0.90994   0.00000  Uiso   1.00
O871   O     0.43892   0.20487   0.83333   0.00000  Uiso   1.00
O872   O     0.56108   0.12846   0.83334   0.00000  Uiso   1.00
O873   O     0.56108   0.20487   0.83334   0.00000  Uiso   1.00
O874   O     0.43892   0.12846   0.83333   0.00000  Uiso   1.00
O875   O     0.50000   0.20488   0.76178   0.00000  Uiso   1.00
O876   O     0.50000   0.12845   0.90489   0.00000  Uiso   1.00
O877   O     0.50000   0.20488   0.90489   0.00000  Uiso   1.00
O878   O     0.50000   0.12845   0.76178   0.00000  Uiso   1.00
Zn879  Zn    0.50000   0.21771   0.83333   0.00000  Uiso   1.00
Zn880  Zn    0.50000   0.11563   0.83333   0.00000  Uiso   1.00
C881   C     0.75347   0.16668   0.83332   0.00000  Uiso   1.00
C882   C     0.68843   0.19012   0.87129   0.00000  Uiso   1.00
C883   C     0.95734   0.16663   0.83335   0.00000  Uiso   1.00
C884   C     0.70933   0.16670   0.83331   0.00000  Uiso   1.00
C885   C     0.86090   0.02389   0.86243   0.00000  Uiso   1.00
C886   C     0.80577   0.30945   0.80424   0.00000  Uiso   1.00
C887   C     0.80576   0.02401   0.80424   0.00000  Uiso   1.00
C888   C     0.86090   0.30933   0.86243   0.00000  Uiso   1.00
C889   C     0.91319   0.16665   0.83335   0.00000  Uiso   1.00
C890   C     0.83332   0.16668   0.73956   0.00000  Uiso   1.00
C891   C     0.83335   0.16665   0.92710   0.00000  Uiso   1.00
C892   C     0.83333   0.16669   0.68846   0.00000  Uiso   1.00
C893   C     0.83334   0.16664   0.97820   0.00000  Uiso   1.00
C894   C     0.68835   0.14323   0.79536   0.00000  Uiso   1.00
C895   C     0.97831   0.19009   0.87131   0.00000  Uiso   1.00
C896   C     0.97823   0.14321   0.79538   0.00000  Uiso   1.00
H897   H     0.88297   0.04192   0.88573   0.00000  Uiso   1.00
H898   H     0.96303   0.13465   0.72215   0.00000  Uiso   1.00
H899   H     0.70364   0.19868   0.94451   0.00000  Uiso   1.00
H900   H     0.70369   0.24685   0.90985   0.00000  Uiso   1.00
H901   H     0.78370   0.29141   0.78093   0.00000  Uiso   1.00
H902   H     0.78370   0.04213   0.78093   0.00000  Uiso   1.00
H903   H     0.88297   0.29121   0.88573   0.00000  Uiso   1.00
H904   H     0.70365   0.08646   0.75693   0.00000  Uiso   1.00
H905   H     0.70328   0.13456   0.72213   0.00000  Uiso   1.00
H906   H     0.96338   0.19873   0.94455   0.00000  Uiso   1.00
H907   H     0.96301   0.24685   0.90978   0.00000  Uiso   1.00
H908   H     0.96298   0.08648   0.75681   0.00000  Uiso   1.00
N909   N     0.83333   0.28573   0.83333   0.00000  Uiso   1.00
N910   N     0.83333   0.04760   0.83333   0.00000  Uiso   1.00
N911   N     0.71156   0.12069   0.75673   0.00000  Uiso   1.00
N912   N     0.95511   0.21261   0.90995   0.00000  Uiso   1.00
N913   N     0.95494   0.12069   0.75672   0.00000  Uiso   1.00
N914   N     0.71172   0.21264   0.90994   0.00000  Uiso   1.00
O915   O     0.77226   0.20487   0.83333   0.00000  Uiso   1.00
O916   O     0.89441   0.12846   0.83334   0.00000  Uiso   1.00
O917   O     0.89441   0.20487   0.83334   0.00000  Uiso   1.00
O918   O     0.77226   0.12846   0.83333   0.00000  Uiso   1.00
O919   O     0.83334   0.20488   0.76178   0.00000  Uiso   1.00
O920   O     0.83333   0.12845   0.90489   0.00000  Uiso   1.00
O921   O     0.83333   0.20488   0.90489   0.00000  Uiso   1.00
O922   O     0.83334   0.12845   0.76178   0.00000  Uiso   1.00
Zn923  Zn    0.83333   0.21771   0.83333   0.00000  Uiso   1.00
Zn924  Zn    0.83333   0.11563   0.83333   0.00000  Uiso   1.00
C925   C     0.08681   0.50001   0.83332   0.00000  Uiso   1.00
C926   C     0.02177   0.52345   0.87129   0.00000  Uiso   1.00
C927   C     0.29067   0.49996   0.83335   0.00000  Uiso   1.00
C928   C     0.04266   0.50003   0.83331   0.00000  Uiso   1.00
C929   C     0.19423   0.35722   0.86243   0.00000  Uiso   1.00
C930   C     0.13910   0.64278   0.80424   0.00000  Uiso   1.00
C931   C     0.13910   0.35734   0.80424   0.00000  Uiso   1.00
C932   C     0.19423   0.64266   0.86243   0.00000  Uiso   1.00
C933   C     0.24653   0.49999   0.83335   0.00000  Uiso   1.00
C934   C     0.16665   0.50002   0.73956   0.00000  Uiso   1.00
C935   C     0.16668   0.49998   0.92710   0.00000  Uiso   1.00
C936   C     0.16666   0.50002   0.68846   0.00000  Uiso   1.00
C937   C     0.16667   0.49998   0.97820   0.00000  Uiso   1.00
C938   C     0.02168   0.47657   0.79536   0.00000  Uiso   1.00
C939   C     0.31165   0.52342   0.87131   0.00000  Uiso   1.00
C940   C     0.31156   0.47654   0.79538   0.00000  Uiso   1.00
H941   H     0.21630   0.37525   0.88573   0.00000  Uiso   1.00
H942   H     0.29636   0.46799   0.72215   0.00000  Uiso   1.00
H943   H     0.03697   0.53201   0.94451   0.00000  Uiso   1.00
H944   H     0.03702   0.58018   0.90985   0.00000  Uiso   1.00
H945   H     0.11703   0.62475   0.78093   0.00000  Uiso   1.00
H946   H     0.11703   0.37546   0.78093   0.00000  Uiso   1.00
H947   H     0.21630   0.62454   0.88573   0.00000  Uiso   1.00
H948   H     0.03699   0.41979   0.75693   0.00000  Uiso   1.00
H949   H     0.03661   0.46789   0.72213   0.00000  Uiso   1.00
H950   H     0.29672   0.53207   0.94455   0.00000  Uiso   1.00
H951   H     0.29635   0.58018   0.90978   0.00000  Uiso   1.00
H952   H     0.29631   0.41981   0.75681   0.00000  Uiso   1.00
N953   N     0.16667   0.61907   0.83333   0.00000  Uiso   1.00
N954   N     0.16667   0.38093   0.83333   0.00000  Uiso   1.00
N955   N     0.04489   0.45403   0.75673   0.00000  Uiso   1.00
N956   N     0.28844   0.54595   0.90995   0.00000  Uiso   1.00
N957   N     0.28827   0.45403   0.75672   0.00000  Uiso   1.00
N958   N     0.04506   0.54597   0.90994   0.00000  Uiso   1.00
O959   O     0.10559   0.53821   0.83333   0.00000  Uiso   1.00
O960   O     0.22774   0.46179   0.83334   0.00000  Uiso   1.00
O961   O     0.22774   0.53821   0.83334   0.00000  Uiso   1.00
O962   O     0.10559   0.46179   0.83333   0.00000  Uiso   1.00
O963   O     0.16667   0.53821   0.76178   0.00000  Uiso   1.00
O964   O     0.16666   0.46179   0.90489   0.00000  Uiso   1.00
O965   O     0.16666   0.53821   0.90489   0.00000  Uiso   1.00
O966   O     0.16667   0.46179   0.76178   0.00000  Uiso   1.00
Zn967  Zn    0.16667   0.55104   0.83333   0.00000  Uiso   1.00
Zn968  Zn    0.16667   0.44896   0.83333   0.00000  Uiso   1.00
C969   C     0.42014   0.50001   0.83332   0.00000  Uiso   1.00
C970   C     0.35510   0.52345   0.87129   0.00000  Uiso   1.00
C971   C     0.62401   0.49996   0.83335   0.00000  Uiso   1.00
C972   C     0.37599   0.50003   0.83331   0.00000  Uiso   1.00
C973   C     0.52757   0.35722   0.86243   0.00000  Uiso   1.00
C974   C     0.47243   0.64278   0.80424   0.00000  Uiso   1.00
C975   C     0.47243   0.35734   0.80424   0.00000  Uiso   1.00
C976   C     0.52757   0.64266   0.86243   0.00000  Uiso   1.00
C977   C     0.57986   0.49999   0.83335   0.00000  Uiso   1.00
C978   C     0.49999   0.50002   0.73956   0.00000  Uiso   1.00
C979   C     0.50001   0.49998   0.92710   0.00000  Uiso   1.00
C980   C     0.49999   0.50002   0.68846   0.00000  Uiso   1.00
C981   C     0.50001   0.49998   0.97820   0.00000  Uiso   1.00
C982   C     0.35502   0.47657   0.79536   0.00000  Uiso   1.00
C983   C     0.64498   0.52342   0.87131   0.00000  Uiso   1.00
C984   C     0.64490   0.47654   0.79538   0.00000  Uiso   1.00
H985   H     0.54963   0.37525   0.88573   0.00000  Uiso   1.00
H986   H     0.62969   0.46799   0.72215   0.00000  Uiso   1.00
H987   H     0.37030   0.53201   0.94451   0.00000  Uiso   1.00
H988   H     0.37035   0.58018   0.90985   0.00000  Uiso   1.00
H989   H     0.45036   0.62475   0.78093   0.00000  Uiso   1.00
H990   H     0.45036   0.37546   0.78093   0.00000  Uiso   1.00
H991   H     0.54964   0.62454   0.88573   0.00000  Uiso   1.00
H992   H     0.37032   0.41979   0.75693   0.00000  Uiso   1.00
H993   H     0.36995   0.46789   0.72213   0.00000  Uiso   1.00
H994   H     0.63005   0.53207   0.94455   0.00000  Uiso   1.00
H995   H     0.62968   0.58018   0.90978   0.00000  Uiso   1.00
H996   H     0.62964   0.41981   0.75681   0.00000  Uiso   1.00
N997   N     0.50000   0.61907   0.83333   0.00000  Uiso   1.00
N998   N     0.50000   0.38093   0.83333   0.00000  Uiso   1.00
N999   N     0.37822   0.45403   0.75673   0.00000  Uiso   1.00
N1000  N     0.62178   0.54595   0.90995   0.00000  Uiso   1.00
N1001  N     0.62161   0.45403   0.75672   0.00000  Uiso   1.00
N1002  N     0.37839   0.54597   0.90994   0.00000  Uiso   1.00
O1003  O     0.43892   0.53821   0.83333   0.00000  Uiso   1.00
O1004  O     0.56108   0.46179   0.83334   0.00000  Uiso   1.00
O1005  O     0.56108   0.53821   0.83334   0.00000  Uiso   1.00
O1006  O     0.43892   0.46179   0.83333   0.00000  Uiso   1.00
O1007  O     0.50000   0.53821   0.76178   0.00000  Uiso   1.00
O1008  O     0.50000   0.46179   0.90489   0.00000  Uiso   1.00
O1009  O     0.50000   0.53821   0.90489   0.00000  Uiso   1.00
O1010  O     0.50000   0.46179   0.76178   0.00000  Uiso   1.00
Zn1011 Zn    0.50000   0.55104   0.83333   0.00000  Uiso   1.00
Zn1012 Zn    0.50000   0.44896   0.83333   0.00000  Uiso   1.00
C1013  C     0.75347   0.50001   0.83332   0.00000  Uiso   1.00
C1014  C     0.68843   0.52345   0.87129   0.00000  Uiso   1.00
C1015  C     0.95734   0.49996   0.83335   0.00000  Uiso   1.00
C1016  C     0.70933   0.50003   0.83331   0.00000  Uiso   1.00
C1017  C     0.86090   0.35722   0.86243   0.00000  Uiso   1.00
C1018  C     0.80577   0.64278   0.80424   0.00000  Uiso   1.00
C1019  C     0.80576   0.35734   0.80424   0.00000  Uiso   1.00
C1020  C     0.86090   0.64266   0.86243   0.00000  Uiso   1.00
C1021  C     0.91319   0.49999   0.83335   0.00000  Uiso   1.00
C1022  C     0.83332   0.50002   0.73956   0.00000  Uiso   1.00
C1023  C     0.83335   0.49998   0.92710   0.00000  Uiso   1.00
C1024  C     0.83333   0.50002   0.68846   0.00000  Uiso   1.00
C1025  C     0.83334   0.49998   0.97820   0.00000  Uiso   1.00
C1026  C     0.68835   0.47657   0.79536   0.00000  Uiso   1.00
C1027  C     0.97831   0.52342   0.87131   0.00000  Uiso   1.00
C1028  C     0.97823   0.47654   0.79538   0.00000  Uiso   1.00
H1029  H     0.88297   0.37525   0.88573   0.00000  Uiso   1.00
H1030  H     0.96303   0.46799   0.72215   0.00000  Uiso   1.00
H1031  H     0.70364   0.53201   0.94451   0.00000  Uiso   1.00
H1032  H     0.70369   0.58018   0.90985   0.00000  Uiso   1.00
H1033  H     0.78370   0.62475   0.78093   0.00000  Uiso   1.00
H1034  H     0.78370   0.37546   0.78093   0.00000  Uiso   1.00
H1035  H     0.88297   0.62454   0.88573   0.00000  Uiso   1.00
H1036  H     0.70365   0.41979   0.75693   0.00000  Uiso   1.00
H1037  H     0.70328   0.46789   0.72213   0.00000  Uiso   1.00
H1038  H     0.96338   0.53207   0.94455   0.00000  Uiso   1.00
H1039  H     0.96301   0.58018   0.90978   0.00000  Uiso   1.00
H1040  H     0.96298   0.41981   0.75681   0.00000  Uiso   1.00
N1041  N     0.83333   0.61907   0.83333   0.00000  Uiso   1.00
N1042  N     0.83333   0.38093   0.83333   0.00000  Uiso   1.00
N1043  N     0.71156   0.45403   0.75673   0.00000  Uiso   1.00
N1044  N     0.95511   0.54595   0.90995   0.00000  Uiso   1.00
N1045  N     0.95494   0.45403   0.75672   0.00000  Uiso   1.00
N1046  N     0.71172   0.54597   0.90994   0.00000  Uiso   1.00
O1047  O     0.77226   0.53821   0.83333   0.00000  Uiso   1.00
O1048  O     0.89441   0.46179   0.83334   0.00000  Uiso   1.00
O1049  O     0.89441   0.53821   0.83334   0.00000  Uiso   1.00
O1050  O     0.77226   0.46179   0.83333   0.00000  Uiso   1.00
O1051  O     0.83334   0.53821   0.76178   0.00000  Uiso   1.00
O1052  O     0.83333   0.46179   0.90489   0.00000  Uiso   1.00
O1053  O     0.83333   0.53821   0.90489   0.00000  Uiso   1.00
O1054  O     0.83334   0.46179   0.76178   0.00000  Uiso   1.00
Zn1055 Zn    0.83333   0.55104   0.83333   0.00000  Uiso   1.00
Zn1056 Zn    0.83333   0.44896   0.83333   0.00000  Uiso   1.00
C1057  C     0.08681   0.83335   0.83332   0.00000  Uiso   1.00
C1058  C     0.02177   0.85679   0.87129   0.00000  Uiso   1.00
C1059  C     0.29067   0.83330   0.83335   0.00000  Uiso   1.00
C1060  C     0.04266   0.83337   0.83331   0.00000  Uiso   1.00
C1061  C     0.19423   0.69055   0.86243   0.00000  Uiso   1.00
C1062  C     0.13910   0.97611   0.80424   0.00000  Uiso   1.00
C1063  C     0.13910   0.69067   0.80424   0.00000  Uiso   1.00
C1064  C     0.19423   0.97599   0.86243   0.00000  Uiso   1.00
C1065  C     0.24653   0.83332   0.83335   0.00000  Uiso   1.00
C1066  C     0.16665   0.83335   0.73956   0.00000  Uiso   1.00
C1067  C     0.16668   0.83332   0.92710   0.00000  Uiso   1.00
C1068  C     0.16666   0.83336   0.68846   0.00000  Uiso   1.00
C1069  C     0.16667   0.83331   0.97820   0.00000  Uiso   1.00
C1070  C     0.02168   0.80990   0.79536   0.00000  Uiso   1.00
C1071  C     0.31165   0.85676   0.87131   0.00000  Uiso   1.00
C1072  C     0.31156   0.80988   0.79538   0.00000  Uiso   1.00
H1073  H     0.21630   0.70859   0.88573   0.00000  Uiso   1.00
H1074  H     0.29636   0.80132   0.72215   0.00000  Uiso   1.00
H1075  H     0.03697   0.86534   0.94451   0.00000  Uiso   1.00
H1076  H     0.03702   0.91352   0.90985   0.00000  Uiso   1.00
H1077  H     0.11703   0.95808   0.78093   0.00000  Uiso   1.00
H1078  H     0.11703   0.70879   0.78093   0.00000  Uiso   1.00
H1079  H     0.21630   0.95787   0.88573   0.00000  Uiso   1.00
H1080  H     0.03699   0.75312   0.75693   0.00000  Uiso   1.00
H1081  H     0.03661   0.80122   0.72213   0.00000  Uiso   1.00
H1082  H     0.29672   0.86540   0.94455   0.00000  Uiso   1.00
H1083  H     0.29635   0.91352   0.90978   0.00000  Uiso   1.00
H1084  H     0.29631   0.75315   0.75681   0.00000  Uiso   1.00
N1085  N     0.16667   0.95240   0.83333   0.00000  Uiso   1.00
N1086  N     0.16667   0.71427   0.83333   0.00000  Uiso   1.00
N1087  N     0.04489   0.78736   0.75673   0.00000  Uiso   1.00
N1088  N     0.28844   0.87928   0.90995   0.00000  Uiso   1.00
N1089  N     0.28827   0.78736   0.75672   0.00000  Uiso   1.00
N1090  N     0.04506   0.87930   0.90994   0.00000  Uiso   1.00
O1091  O     0.10559   0.87154   0.83333   0.00000  Uiso   1.00
O1092  O     0.22774   0.79513   0.83334   0.00000  Uiso   1.00
O1093  O     0.22774   0.87154   0.83334   0.00000  Uiso   1.00
O1094  O     0.10559   0.79513   0.83333   0.00000  Uiso   1.00
O1095  O     0.16667   0.87155   0.76178   0.00000  Uiso   1.00
O1096  O     0.16666   0.79512   0.90489   0.00000  Uiso   1.00
O1097  O     0.16666   0.87155   0.90489   0.00000  Uiso   1.00
O1098  O     0.16667   0.79512   0.76178   0.00000  Uiso   1.00
Zn1099 Zn    0.16667   0.88437   0.83333   0.00000  Uiso   1.00
Zn1100 Zn    0.16667   0.78229   0.83333   0.00000  Uiso   1.00
C1101  C     0.42014   0.83335   0.83332   0.00000  Uiso   1.00
C1102  C     0.35510   0.85679   0.87129   0.00000  Uiso   1.00
C1103  C     0.62401   0.83330   0.83335   0.00000  Uiso   1.00
C1104  C     0.37599   0.83337   0.83331   0.00000  Uiso   1.00
C1105  C     0.52757   0.69055   0.86243   0.00000  Uiso   1.00
C1106  C     0.47243   0.97611   0.80424   0.00000  Uiso   1.00
C1107  C     0.47243   0.69067   0.80424   0.00000  Uiso   1.00
C1108  C     0.52757   0.97599   0.86243   0.00000  Uiso   1.00
C1109  C     0.57986   0.83332   0.83335   0.00000  Uiso   1.00
C1110  C     0.49999   0.83335   0.73956   0.00000  Uiso   1.00
C1111  C     0.50001   0.83332   0.92710   0.00000  Uiso   1.00
C1112  C     0.49999   0.83336   0.68846   0.00000  Uiso   1.00
C1113  C     0.50001   0.83331   0.97820   0.00000  Uiso   1.00
C1114  C     0.35502   0.80990   0.79536   0.00000  Uiso   1.00
C1115  C     0.64498   0.85676   0.87131   0.00000  Uiso   1.00
C1116  C     0.64490   0.80988   0.79538   0.00000  Uiso   1.00
H1117  H     0.54963   0.70859   0.88573   0.00000  Uiso   1.00
H1118  H     0.62969   0.80132   0.72215   0.00000  Uiso   1.00
H1119  H     0.37030   0.86534   0.94451   0.00000  Uiso   1.00
H1120  H     0.37035   0.91352   0.90985   0.00000  Uiso   1.00
H1121  H     0.45036   0.95808   0.78093   0.00000  Uiso   1.00
H1122  H     0.45036   0.70879   0.78093   0.00000  Uiso   1.00
H1123  H     0.54964   0.95787   0.88573   0.00000  Uiso   1.00
H1124  H     0.37032   0.75312   0.75693   0.00000  Uiso   1.00
H1125  H     0.36995   0.80122   0.72213   0.00000  Uiso   1.00
H1126  H     0.63005   0.86540   0.94455   0.00000  Uiso   1.00
H1127  H     0.62968   0.91352   0.90978   0.00000  Uiso   1.00
H1128  H     0.62964   0.75315   0.75681   0.00000  Uiso   1.00
N1129  N     0.50000   0.95240   0.83333   0.00000  Uiso   1.00
N1130  N     0.50000   0.71427   0.83333   0.00000  Uiso   1.00
N1131  N     0.37822   0.78736   0.75673   0.00000  Uiso   1.00
N1132  N     0.62178   0.87928   0.90995   0.00000  Uiso   1.00
N1133  N     0.62161   0.78736   0.75672   0.00000  Uiso   1.00
N1134  N     0.37839   0.87930   0.90994   0.00000  Uiso   1.00
O1135  O     0.43892   0.87154   0.83333   0.00000  Uiso   1.00
O1136  O     0.56108   0.79513   0.83334   0.00000  Uiso   1.00
O1137  O     0.56108   0.87154   0.83334   0.00000  Uiso   1.00
O1138  O     0.43892   0.79513   0.83333   0.00000  Uiso   1.00
O1139  O     0.50000   0.87155   0.76178   0.00000  Uiso   1.00
O1140  O     0.50000   0.79512   0.90489   0.00000  Uiso   1.00
O1141  O     0.50000   0.87155   0.90489   0.00000  Uiso   1.00
O1142  O     0.50000   0.79512   0.76178   0.00000  Uiso   1.00
Zn1143 Zn    0.50000   0.88437   0.83333   0.00000  Uiso   1.00
Zn1144 Zn    0.50000   0.78229   0.83333   0.00000  Uiso   1.00
C1145  C     0.75347   0.83335   0.83332   0.00000  Uiso   1.00
C1146  C     0.68843   0.85679   0.87129   0.00000  Uiso   1.00
C1147  C     0.95734   0.83330   0.83335   0.00000  Uiso   1.00
C1148  C     0.70933   0.83337   0.83331   0.00000  Uiso   1.00
C1149  C     0.86090   0.69055   0.86243   0.00000  Uiso   1.00
C1150  C     0.80577   0.97611   0.80424   0.00000  Uiso   1.00
C1151  C     0.80576   0.69067   0.80424   0.00000  Uiso   1.00
C1152  C     0.86090   0.97599   0.86243   0.00000  Uiso   1.00
C1153  C     0.91319   0.83332   0.83335   0.00000  Uiso   1.00
C1154  C     0.83332   0.83335   0.73956   0.00000  Uiso   1.00
C1155  C     0.83335   0.83332   0.92710   0.00000  Uiso   1.00
C1156  C     0.83333   0.83336   0.68846   0.00000  Uiso   1.00
C1157  C     0.83334   0.83331   0.97820   0.00000  Uiso   1.00
C1158  C     0.68835   0.80990   0.79536   0.00000  Uiso   1.00
C1159  C     0.97831   0.85676   0.87131   0.00000  Uiso   1.00
C1160  C     0.97823   0.80988   0.79538   0.00000  Uiso   1.00
H1161  H     0.88297   0.70859   0.88573   0.00000  Uiso   1.00
H1162  H     0.96303   0.80132   0.72215   0.00000  Uiso   1.00
H1163  H     0.70364   0.86534   0.94451   0.00000  Uiso   1.00
H1164  H     0.70369   0.91352   0.90985   0.00000  Uiso   1.00
H1165  H     0.78370   0.95808   0.78093   0.00000  Uiso   1.00
H1166  H     0.78370   0.70879   0.78093   0.00000  Uiso   1.00
H1167  H     0.88297   0.95787   0.88573   0.00000  Uiso   1.00
H1168  H     0.70365   0.75312   0.75693   0.00000  Uiso   1.00
H1169  H     0.70328   0.80122   0.72213   0.00000  Uiso   1.00
H1170  H     0.96338   0.86540   0.94455   0.00000  Uiso   1.00
H1171  H     0.96301   0.91352   0.90978   0.00000  Uiso   1.00
H1172  H     0.96298   0.75315   0.75681   0.00000  Uiso   1.00
N1173  N     0.83333   0.95240   0.83333   0.00000  Uiso   1.00
N1174  N     0.83333   0.71427   0.83333   0.00000  Uiso   1.00
N1175  N     0.71156   0.78736   0.75673   0.00000  Uiso   1.00
N1176  N     0.95511   0.87928   0.90995   0.00000  Uiso   1.00
N1177  N     0.95494   0.78736   0.75672   0.00000  Uiso   1.00
N1178  N     0.71172   0.87930   0.90994   0.00000  Uiso   1.00
O1179  O     0.77226   0.87154   0.83333   0.00000  Uiso   1.00
O1180  O     0.89441   0.79513   0.83334   0.00000  Uiso   1.00
O1181  O     0.89441   0.87154   0.83334   0.00000  Uiso   1.00
O1182  O     0.77226   0.79513   0.83333   0.00000  Uiso   1.00
O1183  O     0.83334   0.87155   0.76178   0.00000  Uiso   1.00
O1184  O     0.83333   0.79512   0.90489   0.00000  Uiso   1.00
O1185  O     0.83333   0.87155   0.90489   0.00000  Uiso   1.00
O1186  O     0.83334   0.79512   0.76178   0.00000  Uiso   1.00
Zn1187 Zn    0.83333   0.88437   0.83333   0.00000  Uiso   1.00
Zn1188 Zn    0.83333   0.78229   0.83333   0.00000  Uiso   1.00
loop_
_geom_bond_atom_site_label_1
_geom_bond_atom_site_label_2
_geom_bond_distance
_geom_bond_site_symmetry_2
_ccdc_geom_bond_type
C1     C4      1.411   .     S
C1     O38     1.281   .     A
C1     O35     1.281   .     A
C2     C4      1.400   .     A
C2     N34     1.437   .     S
C2     C103    1.388   1_455 S
C3     C9      1.410   .     S
C3     C15     1.400   .     A
C3     C16     1.400   .     A
C4     C14     1.400   .     A
C5     H17     1.082   .     S
C5     N30     1.367   .     A
C5     C272    1.418   1_545 S
C6     N29     1.367   .     A
C6     H21     1.082   .     S
C6     C139    1.418   .     S
C7     H22     1.082   .     S
C7     N30     1.367   .     A
C7     C270    1.418   1_545 S
C8     H23     1.082   .     S
C8     N29     1.367   .     A
C8     C137    1.418   .     S
C9     O36     1.281   .     A
C9     O37     1.281   .     A
C10    O42     1.278   .     A
C10    C12     1.366   .     S
C10    O39     1.278   .     A
C11    O41     1.278   .     A
C11    O40     1.278   .     A
C11    C13     1.366   .     S
C12    C805    1.165   1_554 S
C13    C408    1.165   .     S
C14    N31     1.437   .     S
C14    C104    1.388   1_455 S
C15    N32     1.437   .     S
C15    C46     1.388   .     S
C16    N33     1.437   .     S
C16    C58     1.388   .     S
H18    N33     1.045   .     S
H19    N34     1.045   .     S
H20    N34     1.045   .     S
H24    N31     1.045   .     S
H25    N31     1.045   .     S
H26    N32     1.045   .     S
H27    N32     1.045   .     S
H28    N33     1.045   .     S
N29    Zn43    2.015   .     S
N30    Zn44    2.015   .     S
O35    Zn43    1.988   .     S
O36    Zn44    1.988   .     S
O37    Zn43    1.988   .     S
O38    Zn44    1.988   .     S
O39    Zn43    1.951   .     S
O40    Zn44    1.951   .     S
O41    Zn43    1.950   .     S
O42    Zn44    1.950   .     S
C45    C48     1.411   .     S
C45    O82     1.281   .     A
C45    O79     1.281   .     A
C46    C48     1.400   .     A
C46    N78     1.437   .     S
C47    C53     1.410   .     S
C47    C59     1.400   .     A
C47    C60     1.400   .     A
C48    C58     1.400   .     A
C49    H61     1.082   .     S
C49    N74     1.367   .     A
C49    C316    1.418   1_545 S
C50    N73     1.367   .     A
C50    H65     1.082   .     S
C50    C183    1.418   .     S
C51    H66     1.082   .     S
C51    N74     1.367   .     A
C51    C314    1.418   1_545 S
C52    H67     1.082   .     S
C52    N73     1.367   .     A
C52    C181    1.418   .     S
C53    O80     1.281   .     A
C53    O81     1.281   .     A
C54    O86     1.278   .     A
C54    C56     1.366   .     S
C54    O83     1.278   .     A
C55    O85     1.278   .     A
C55    O84     1.278   .     A
C55    C57     1.366   .     S
C56    C849    1.165   1_554 S
C57    C452    1.165   .     S
C58    N75     1.437   .     S
C59    N76     1.437   .     S
C59    C90     1.388   .     S
C60    N77     1.437   .     S
C60    C102    1.388   .     S
H62    N77     1.045   .     S
H63    N78     1.045   .     S
H64    N78     1.045   .     S
H68    N75     1.045   .     S
H69    N75     1.045   .     S
H70    N76     1.045   .     S
H71    N76     1.045   .     S
H72    N77     1.045   .     S
N73    Zn87    2.015   .     S
N74    Zn88    2.015   .     S
O79    Zn87    1.988   .     S
O80    Zn88    1.988   .     S
O81    Zn87    1.988   .     S
O82    Zn88    1.988   .     S
O83    Zn87    1.951   .     S
O84    Zn88    1.951   .     S
O85    Zn87    1.950   .     S
O86    Zn88    1.950   .     S
C89    C92     1.411   .     S
C89    O126    1.281   .     A
C89    O123    1.281   .     A
C90    C92     1.400   .     A
C90    N122    1.437   .     S
C91    C97     1.410   .     S
C91    C103    1.400   .     A
C91    C104    1.400   .     A
C92    C102    1.400   .     A
C93    H105    1.082   .     S
C93    N118    1.367   .     A
C93    C360    1.418   1_545 S
C94    N117    1.367   .     A
C94    H109    1.082   .     S
C94    C227    1.418   .     S
C95    H110    1.082   .     S
C95    N118    1.367   .     A
C95    C358    1.418   1_545 S
C96    H111    1.082   .     S
C96    N117    1.367   .     A
C96    C225    1.418   .     S
C97    O124    1.281   .     A
C97    O125    1.281   .     A
C98    O130    1.278   .     A
C98    C100    1.366   .     S
C98    O127    1.278   .     A
C99    O129    1.278   .     A
C99    O128    1.278   .     A
C99    C101    1.366   .     S
C100   C893    1.165   1_554 S
C101   C496    1.165   .     S
C102   N119    1.437   .     S
C103   N120    1.437   .     S
C103   C2      1.388   1_655 S
C104   N121    1.437   .     S
C104   C14     1.388   1_655 S
H106   N121    1.045   .     S
H107   N122    1.045   .     S
H108   N122    1.045   .     S
H112   N119    1.045   .     S
H113   N119    1.045   .     S
H114   N120    1.045   .     S
H115   N120    1.045   .     S
H116   N121    1.045   .     S
N117   Zn131   2.015   .     S
N118   Zn132   2.015   .     S
O123   Zn131   1.988   .     S
O124   Zn132   1.988   .     S
O125   Zn131   1.988   .     S
O126   Zn132   1.988   .     S
O127   Zn131   1.951   .     S
O128   Zn132   1.951   .     S
O129   Zn131   1.950   .     S
O130   Zn132   1.950   .     S
C133   C136    1.411   .     S
C133   O170    1.281   .     A
C133   O167    1.281   .     A
C134   C136    1.400   .     A
C134   N166    1.437   .     S
C134   C235    1.388   1_455 S
C135   C141    1.410   .     S
C135   C147    1.400   .     A
C135   C148    1.400   .     A
C136   C146    1.400   .     A
C137   H149    1.082   .     S
C137   N162    1.367   .     A
C138   N161    1.367   .     A
C138   H153    1.082   .     S
C138   C271    1.418   .     S
C139   H154    1.082   .     S
C139   N162    1.367   .     A
C140   H155    1.082   .     S
C140   N161    1.367   .     A
C140   C269    1.418   .     S
C141   O168    1.281   .     A
C141   O169    1.281   .     A
C142   O174    1.278   .     A
C142   C144    1.366   .     S
C142   O171    1.278   .     A
C143   O173    1.278   .     A
C143   O172    1.278   .     A
C143   C145    1.366   .     S
C144   C937    1.165   1_554 S
C145   C540    1.165   .     S
C146   N163    1.437   .     S
C146   C236    1.388   1_455 S
C147   N164    1.437   .     S
C147   C178    1.388   .     S
C148   N165    1.437   .     S
C148   C190    1.388   .     S
H150   N165    1.045   .     S
H151   N166    1.045   .     S
H152   N166    1.045   .     S
H156   N163    1.045   .     S
H157   N163    1.045   .     S
H158   N164    1.045   .     S
H159   N164    1.045   .     S
H160   N165    1.045   .     S
N161   Zn175   2.015   .     S
N162   Zn176   2.015   .     S
O167   Zn175   1.988   .     S
O168   Zn176   1.988   .     S
O169   Zn175   1.988   .     S
O170   Zn176   1.988   .     S
O171   Zn175   1.951   .     S
O172   Zn176   1.951   .     S
O173   Zn175   1.950   .     S
O174   Zn176   1.950   .     S
C177   C180    1.411   .     S
C177   O214    1.281   .     A
C177   O211    1.281   .     A
C178   C180    1.400   .     A
C178   N210    1.437   .     S
C179   C185    1.410   .     S
C179   C191    1.400   .     A
C179   C192    1.400   .     A
C180   C190    1.400   .     A
C181   H193    1.082   .     S
C181   N206    1.367   .     A
C182   N205    1.367   .     A
C182   H197    1.082   .     S
C182   C315    1.418   .     S
C183   H198    1.082   .     S
C183   N206    1.367   .     A
C184   H199    1.082   .     S
C184   N205    1.367   .     A
C184   C313    1.418   .     S
C185   O212    1.281   .     A
C185   O213    1.281   .     A
C186   O218    1.278   .     A
C186   C188    1.366   .     S
C186   O215    1.278   .     A
C187   O217    1.278   .     A
C187   O216    1.278   .     A
C187   C189    1.366   .     S
C188   C981    1.165   1_554 S
C189   C584    1.165   .     S
C190   N207    1.437   .     S
C191   N208    1.437   .     S
C191   C222    1.388   .     S
C192   N209    1.437   .     S
C192   C234    1.388   .     S
H194   N209    1.045   .     S
H195   N210    1.045   .     S
H196   N210    1.045   .     S
H200   N207    1.045   .     S
H201   N207    1.045   .     S
H202   N208    1.045   .     S
H203   N208    1.045   .     S
H204   N209    1.045   .     S
N205   Zn219   2.015   .     S
N206   Zn220   2.015   .     S
O211   Zn219   1.988   .     S
O212   Zn220   1.988   .     S
O213   Zn219   1.988   .     S
O214   Zn220   1.988   .     S
O215   Zn219   1.951   .     S
O216   Zn220   1.951   .     S
O217   Zn219   1.950   .     S
O218   Zn220   1.950   .     S
C221   C224    1.411   .     S
C221   O258    1.281   .     A
C221   O255    1.281   .     A
C222   C224    1.400   .     A
C222   N254    1.437   .     S
C223   C229    1.410   .     S
C223   C235    1.400   .     A
C223   C236    1.400   .     A
C224   C234    1.400   .     A
C225   H237    1.082   .     S
C225   N250    1.367   .     A
C226   N249    1.367   .     A
C226   H241    1.082   .     S
C226   C359    1.418   .     S
C227   H242    1.082   .     S
C227   N250    1.367   .     A
C228   H243    1.082   .     S
C228   N249    1.367   .     A
C228   C357    1.418   .     S
C229   O256    1.281   .     A
C229   O257    1.281   .     A
C230   O262    1.278   .     A
C230   C232    1.366   .     S
C230   O259    1.278   .     A
C231   O261    1.278   .     A
C231   O260    1.278   .     A
C231   C233    1.366   .     S
C232   C1025   1.165   1_554 S
C233   C628    1.165   .     S
C234   N251    1.437   .     S
C235   N252    1.437   .     S
C235   C134    1.388   1_655 S
C236   N253    1.437   .     S
C236   C146    1.388   1_655 S
H238   N253    1.045   .     S
H239   N254    1.045   .     S
H240   N254    1.045   .     S
H244   N251    1.045   .     S
H245   N251    1.045   .     S
H246   N252    1.045   .     S
H247   N252    1.045   .     S
H248   N253    1.045   .     S
N249   Zn263   2.015   .     S
N250   Zn264   2.015   .     S
O255   Zn263   1.988   .     S
O256   Zn264   1.988   .     S
O257   Zn263   1.988   .     S
O258   Zn264   1.988   .     S
O259   Zn263   1.951   .     S
O260   Zn264   1.951   .     S
O261   Zn263   1.950   .     S
O262   Zn264   1.950   .     S
C265   C268    1.411   .     S
C265   O302    1.281   .     A
C265   O299    1.281   .     A
C266   C268    1.400   .     A
C266   N298    1.437   .     S
C266   C367    1.388   1_455 S
C267   C273    1.410   .     S
C267   C279    1.400   .     A
C267   C280    1.400   .     A
C268   C278    1.400   .     A
C269   H281    1.082   .     S
C269   N294    1.367   .     A
C270   N293    1.367   .     A
C270   H285    1.082   .     S
C270   C7      1.418   1_565 S
C271   H286    1.082   .     S
C271   N294    1.367   .     A
C272   H287    1.082   .     S
C272   N293    1.367   .     A
C272   C5      1.418   1_565 S
C273   O300    1.281   .     A
C273   O301    1.281   .     A
C274   O306    1.278   .     A
C274   C276    1.366   .     S
C274   O303    1.278   .     A
C275   O305    1.278   .     A
C275   O304    1.278   .     A
C275   C277    1.366   .     S
C276   C1069   1.165   1_554 S
C277   C672    1.165   .     S
C278   N295    1.437   .     S
C278   C368    1.388   1_455 S
C279   N296    1.437   .     S
C279   C310    1.388   .     S
C280   N297    1.437   .     S
C280   C322    1.388   .     S
H282   N297    1.045   .     S
H283   N298    1.045   .     S
H284   N298    1.045   .     S
H288   N295    1.045   .     S
H289   N295    1.045   .     S
H290   N296    1.045   .     S
H291   N296    1.045   .     S
H292   N297    1.045   .     S
N293   Zn307   2.015   .     S
N294   Zn308   2.015   .     S
O299   Zn307   1.988   .     S
O300   Zn308   1.988   .     S
O301   Zn307   1.988   .     S
O302   Zn308   1.988   .     S
O303   Zn307   1.951   .     S
O304   Zn308   1.951   .     S
O305   Zn307   1.950   .     S
O306   Zn308   1.950   .     S
C309   C312    1.411   .     S
C309   O346    1.281   .     A
C309   O343    1.281   .     A
C310   C312    1.400   .     A
C310   N342    1.437   .     S
C311   C317    1.410   .     S
C311   C323    1.400   .     A
C311   C324    1.400   .     A
C312   C322    1.400   .     A
C313   H325    1.082   .     S
C313   N338    1.367   .     A
C314   N337    1.367   .     A
C314   H329    1.082   .     S
C314   C51     1.418   1_565 S
C315   H330    1.082   .     S
C315   N338    1.367   .     A
C316   H331    1.082   .     S
C316   N337    1.367   .     A
C316   C49     1.418   1_565 S
C317   O344    1.281   .     A
C317   O345    1.281   .     A
C318   O350    1.278   .     A
C318   C320    1.366   .     S
C318   O347    1.278   .     A
C319   O349    1.278   .     A
C319   O348    1.278   .     A
C319   C321    1.366   .     S
C320   C1113   1.165   1_554 S
C321   C716    1.165   .     S
C322   N339    1.437   .     S
C323   N340    1.437   .     S
C323   C354    1.388   .     S
C324   N341    1.437   .     S
C324   C366    1.388   .     S
H326   N341    1.045   .     S
H327   N342    1.045   .     S
H328   N342    1.045   .     S
H332   N339    1.045   .     S
H333   N339    1.045   .     S
H334   N340    1.045   .     S
H335   N340    1.045   .     S
H336   N341    1.045   .     S
N337   Zn351   2.015   .     S
N338   Zn352   2.015   .     S
O343   Zn351   1.988   .     S
O344   Zn352   1.988   .     S
O345   Zn351   1.988   .     S
O346   Zn352   1.988   .     S
O347   Zn351   1.951   .     S
O348   Zn352   1.951   .     S
O349   Zn351   1.950   .     S
O350   Zn352   1.950   .     S
C353   C356    1.411   .     S
C353   O390    1.281   .     A
C353   O387    1.281   .     A
C354   C356    1.400   .     A
C354   N386    1.437   .     S
C355   C361    1.410   .     S
C355   C367    1.400   .     A
C355   C368    1.400   .     A
C356   C366    1.400   .     A
C357   H369    1.082   .     S
C357   N382    1.367   .     A
C358   N381    1.367   .     A
C358   H373    1.082   .     S
C358   C95     1.418   1_565 S
C359   H374    1.082   .     S
C359   N382    1.367   .     A
C360   H375    1.082   .     S
C360   N381    1.367   .     A
C360   C93     1.418   1_565 S
C361   O388    1.281   .     A
C361   O389    1.281   .     A
C362   O394    1.278   .     A
C362   C364    1.366   .     S
C362   O391    1.278   .     A
C363   O393    1.278   .     A
C363   O392    1.278   .     A
C363   C365    1.366   .     S
C364   C1157   1.165   1_554 S
C365   C760    1.165   .     S
C366   N383    1.437   .     S
C367   N384    1.437   .     S
C367   C266    1.388   1_655 S
C368   N385    1.437   .     S
C368   C278    1.388   1_655 S
H370   N385    1.045   .     S
H371   N386    1.045   .     S
H372   N386    1.045   .     S
H376   N383    1.045   .     S
H377   N383    1.045   .     S
H378   N384    1.045   .     S
H379   N384    1.045   .     S
H380   N385    1.045   .     S
N381   Zn395   2.015   .     S
N382   Zn396   2.015   .     S
O387   Zn395   1.988   .     S
O388   Zn396   1.988   .     S
O389   Zn395   1.988   .     S
O390   Zn396   1.988   .     S
O391   Zn395   1.951   .     S
O392   Zn396   1.951   .     S
O393   Zn395   1.950   .     S
O394   Zn396   1.950   .     S
C397   C400    1.411   .     S
C397   O434    1.281   .     A
C397   O431    1.281   .     A
C398   C400    1.400   .     A
C398   N430    1.437   .     S
C398   C499    1.388   1_455 S
C399   C405    1.410   .     S
C399   C411    1.400   .     A
C399   C412    1.400   .     A
C400   C410    1.400   .     A
C401   H413    1.082   .     S
C401   N426    1.367   .     A
C401   C668    1.418   1_545 S
C402   N425    1.367   .     A
C402   H417    1.082   .     S
C402   C535    1.418   .     S
C403   H418    1.082   .     S
C403   N426    1.367   .     A
C403   C666    1.418   1_545 S
C404   H419    1.082   .     S
C404   N425    1.367   .     A
C404   C533    1.418   .     S
C405   O432    1.281   .     A
C405   O433    1.281   .     A
C406   O438    1.278   .     A
C406   C408    1.366   .     S
C406   O435    1.278   .     A
C407   O437    1.278   .     A
C407   O436    1.278   .     A
C407   C409    1.366   .     S
C409   C804    1.165   .     S
C410   N427    1.437   .     S
C410   C500    1.388   1_455 S
C411   N428    1.437   .     S
C411   C442    1.388   .     S
C412   N429    1.437   .     S
C412   C454    1.388   .     S
H414   N429    1.045   .     S
H415   N430    1.045   .     S
H416   N430    1.045   .     S
H420   N427    1.045   .     S
H421   N427    1.045   .     S
H422   N428    1.045   .     S
H423   N428    1.045   .     S
H424   N429    1.045   .     S
N425   Zn439   2.015   .     S
N426   Zn440   2.015   .     S
O431   Zn439   1.988   .     S
O432   Zn440   1.988   .     S
O433   Zn439   1.988   .     S
O434   Zn440   1.988   .     S
O435   Zn439   1.951   .     S
O436   Zn440   1.951   .     S
O437   Zn439   1.950   .     S
O438   Zn440   1.950   .     S
C441   C444    1.411   .     S
C441   O478    1.281   .     A
C441   O475    1.281   .     A
C442   C444    1.400   .     A
C442   N474    1.437   .     S
C443   C449    1.410   .     S
C443   C455    1.400   .     A
C443   C456    1.400   .     A
C444   C454    1.400   .     A
C445   H457    1.082   .     S
C445   N470    1.367   .     A
C445   C712    1.418   1_545 S
C446   N469    1.367   .     A
C446   H461    1.082   .     S
C446   C579    1.418   .     S
C447   H462    1.082   .     S
C447   N470    1.367   .     A
C447   C710    1.418   1_545 S
C448   H463    1.082   .     S
C448   N469    1.367   .     A
C448   C577    1.418   .     S
C449   O476    1.281   .     A
C449   O477    1.281   .     A
C450   O482    1.278   .     A
C450   C452    1.366   .     S
C450   O479    1.278   .     A
C451   O481    1.278   .     A
C451   O480    1.278   .     A
C451   C453    1.366   .     S
C453   C848    1.165   .     S
C454   N471    1.437   .     S
C455   N472    1.437   .     S
C455   C486    1.388   .     S
C456   N473    1.437   .     S
C456   C498    1.388   .     S
H458   N473    1.045   .     S
H459   N474    1.045   .     S
H460   N474    1.045   .     S
H464   N471    1.045   .     S
H465   N471    1.045   .     S
H466   N472    1.045   .     S
H467   N472    1.045   .     S
H468   N473    1.045   .     S
N469   Zn483   2.015   .     S
N470   Zn484   2.015   .     S
O475   Zn483   1.988   .     S
O476   Zn484   1.988   .     S
O477   Zn483   1.988   .     S
O478   Zn484   1.988   .     S
O479   Zn483   1.951   .     S
O480   Zn484   1.951   .     S
O481   Zn483   1.950   .     S
O482   Zn484   1.950   .     S
C485   C488    1.411   .     S
C485   O522    1.281   .     A
C485   O519    1.281   .     A
C486   C488    1.400   .     A
C486   N518    1.437   .     S
C487   C493    1.410   .     S
C487   C499    1.400   .     A
C487   C500    1.400   .     A
C488   C498    1.400   .     A
C489   H501    1.082   .     S
C489   N514    1.367   .     A
C489   C756    1.418   1_545 S
C490   N513    1.367   .     A
C490   H505    1.082   .     S
C490   C623    1.418   .     S
C491   H506    1.082   .     S
C491   N514    1.367   .     A
C491   C754    1.418   1_545 S
C492   H507    1.082   .     S
C492   N513    1.367   .     A
C492   C621    1.418   .     S
C493   O520    1.281   .     A
C493   O521    1.281   .     A
C494   O526    1.278   .     A
C494   C496    1.366   .     S
C494   O523    1.278   .     A
C495   O525    1.278   .     A
C495   O524    1.278   .     A
C495   C497    1.366   .     S
C497   C892    1.165   .     S
C498   N515    1.437   .     S
C499   N516    1.437   .     S
C499   C398    1.388   1_655 S
C500   N517    1.437   .     S
C500   C410    1.388   1_655 S
H502   N517    1.045   .     S
H503   N518    1.045   .     S
H504   N518    1.045   .     S
H508   N515    1.045   .     S
H509   N515    1.045   .     S
H510   N516    1.045   .     S
H511   N516    1.045   .     S
H512   N517    1.045   .     S
N513   Zn527   2.015   .     S
N514   Zn528   2.015   .     S
O519   Zn527   1.988   .     S
O520   Zn528   1.988   .     S
O521   Zn527   1.988   .     S
O522   Zn528   1.988   .     S
O523   Zn527   1.951   .     S
O524   Zn528   1.951   .     S
O525   Zn527   1.950   .     S
O526   Zn528   1.950   .     S
C529   C532    1.411   .     S
C529   O566    1.281   .     A
C529   O563    1.281   .     A
C530   C532    1.400   .     A
C530   N562    1.437   .     S
C530   C631    1.388   1_455 S
C531   C537    1.410   .     S
C531   C543    1.400   .     A
C531   C544    1.400   .     A
C532   C542    1.400   .     A
C533   H545    1.082   .     S
C533   N558    1.367   .     A
C534   N557    1.367   .     A
C534   H549    1.082   .     S
C534   C667    1.418   .     S
C535   H550    1.082   .     S
C535   N558    1.367   .     A
C536   H551    1.082   .     S
C536   N557    1.367   .     A
C536   C665    1.418   .     S
C537   O564    1.281   .     A
C537   O565    1.281   .     A
C538   O570    1.278   .     A
C538   C540    1.366   .     S
C538   O567    1.278   .     A
C539   O569    1.278   .     A
C539   O568    1.278   .     A
C539   C541    1.366   .     S
C541   C936    1.165   .     S
C542   N559    1.437   .     S
C542   C632    1.388   1_455 S
C543   N560    1.437   .     S
C543   C574    1.388   .     S
C544   N561    1.437   .     S
C544   C586    1.388   .     S
H546   N561    1.045   .     S
H547   N562    1.045   .     S
H548   N562    1.045   .     S
H552   N559    1.045   .     S
H553   N559    1.045   .     S
H554   N560    1.045   .     S
H555   N560    1.045   .     S
H556   N561    1.045   .     S
N557   Zn571   2.015   .     S
N558   Zn572   2.015   .     S
O563   Zn571   1.988   .     S
O564   Zn572   1.988   .     S
O565   Zn571   1.988   .     S
O566   Zn572   1.988   .     S
O567   Zn571   1.951   .     S
O568   Zn572   1.951   .     S
O569   Zn571   1.950   .     S
O570   Zn572   1.950   .     S
C573   C576    1.411   .     S
C573   O610    1.281   .     A
C573   O607    1.281   .     A
C574   C576    1.400   .     A
C574   N606    1.437   .     S
C575   C581    1.410   .     S
C575   C587    1.400   .     A
C575   C588    1.400   .     A
C576   C586    1.400   .     A
C577   H589    1.082   .     S
C577   N602    1.367   .     A
C578   N601    1.367   .     A
C578   H593    1.082   .     S
C578   C711    1.418   .     S
C579   H594    1.082   .     S
C579   N602    1.367   .     A
C580   H595    1.082   .     S
C580   N601    1.367   .     A
C580   C709    1.418   .     S
C581   O608    1.281   .     A
C581   O609    1.281   .     A
C582   O614    1.278   .     A
C582   C584    1.366   .     S
C582   O611    1.278   .     A
C583   O613    1.278   .     A
C583   O612    1.278   .     A
C583   C585    1.366   .     S
C585   C980    1.165   .     S
C586   N603    1.437   .     S
C587   N604    1.437   .     S
C587   C618    1.388   .     S
C588   N605    1.437   .     S
C588   C630    1.388   .     S
H590   N605    1.045   .     S
H591   N606    1.045   .     S
H592   N606    1.045   .     S
H596   N603    1.045   .     S
H597   N603    1.045   .     S
H598   N604    1.045   .     S
H599   N604    1.045   .     S
H600   N605    1.045   .     S
N601   Zn615   2.015   .     S
N602   Zn616   2.015   .     S
O607   Zn615   1.988   .     S
O608   Zn616   1.988   .     S
O609   Zn615   1.988   .     S
O610   Zn616   1.988   .     S
O611   Zn615   1.951   .     S
O612   Zn616   1.951   .     S
O613   Zn615   1.950   .     S
O614   Zn616   1.950   .     S
C617   C620    1.411   .     S
C617   O654    1.281   .     A
C617   O651    1.281   .     A
C618   C620    1.400   .     A
C618   N650    1.437   .     S
C619   C625    1.410   .     S
C619   C631    1.400   .     A
C619   C632    1.400   .     A
C620   C630    1.400   .     A
C621   H633    1.082   .     S
C621   N646    1.367   .     A
C622   N645    1.367   .     A
C622   H637    1.082   .     S
C622   C755    1.418   .     S
C623   H638    1.082   .     S
C623   N646    1.367   .     A
C624   H639    1.082   .     S
C624   N645    1.367   .     A
C624   C753    1.418   .     S
C625   O652    1.281   .     A
C625   O653    1.281   .     A
C626   O658    1.278   .     A
C626   C628    1.366   .     S
C626   O655    1.278   .     A
C627   O657    1.278   .     A
C627   O656    1.278   .     A
C627   C629    1.366   .     S
C629   C1024   1.165   .     S
C630   N647    1.437   .     S
C631   N648    1.437   .     S
C631   C530    1.388   1_655 S
C632   N649    1.437   .     S
C632   C542    1.388   1_655 S
H634   N649    1.045   .     S
H635   N650    1.045   .     S
H636   N650    1.045   .     S
H640   N647    1.045   .     S
H641   N647    1.045   .     S
H642   N648    1.045   .     S
H643   N648    1.045   .     S
H644   N649    1.045   .     S
N645   Zn659   2.015   .     S
N646   Zn660   2.015   .     S
O651   Zn659   1.988   .     S
O652   Zn660   1.988   .     S
O653   Zn659   1.988   .     S
O654   Zn660   1.988   .     S
O655   Zn659   1.951   .     S
O656   Zn660   1.951   .     S
O657   Zn659   1.950   .     S
O658   Zn660   1.950   .     S
C661   C664    1.411   .     S
C661   O698    1.281   .     A
C661   O695    1.281   .     A
C662   C664    1.400   .     A
C662   N694    1.437   .     S
C662   C763    1.388   1_455 S
C663   C669    1.410   .     S
C663   C675    1.400   .     A
C663   C676    1.400   .     A
C664   C674    1.400   .     A
C665   H677    1.082   .     S
C665   N690    1.367   .     A
C666   N689    1.367   .     A
C666   H681    1.082   .     S
C666   C403    1.418   1_565 S
C667   H682    1.082   .     S
C667   N690    1.367   .     A
C668   H683    1.082   .     S
C668   N689    1.367   .     A
C668   C401    1.418   1_565 S
C669   O696    1.281   .     A
C669   O697    1.281   .     A
C670   O702    1.278   .     A
C670   C672    1.366   .     S
C670   O699    1.278   .     A
C671   O701    1.278   .     A
C671   O700    1.278   .     A
C671   C673    1.366   .     S
C673   C1068   1.165   .     S
C674   N691    1.437   .     S
C674   C764    1.388   1_455 S
C675   N692    1.437   .     S
C675   C706    1.388   .     S
C676   N693    1.437   .     S
C676   C718    1.388   .     S
H678   N693    1.045   .     S
H679   N694    1.045   .     S
H680   N694    1.045   .     S
H684   N691    1.045   .     S
H685   N691    1.045   .     S
H686   N692    1.045   .     S
H687   N692    1.045   .     S
H688   N693    1.045   .     S
N689   Zn703   2.015   .     S
N690   Zn704   2.015   .     S
O695   Zn703   1.988   .     S
O696   Zn704   1.988   .     S
O697   Zn703   1.988   .     S
O698   Zn704   1.988   .     S
O699   Zn703   1.951   .     S
O700   Zn704   1.951   .     S
O701   Zn703   1.950   .     S
O702   Zn704   1.950   .     S
C705   C708    1.411   .     S
C705   O742    1.281   .     A
C705   O739    1.281   .     A
C706   C708    1.400   .     A
C706   N738    1.437   .     S
C707   C713    1.410   .     S
C707   C719    1.400   .     A
C707   C720    1.400   .     A
C708   C718    1.400   .     A
C709   H721    1.082   .     S
C709   N734    1.367   .     A
C710   N733    1.367   .     A
C710   H725    1.082   .     S
C710   C447    1.418   1_565 S
C711   H726    1.082   .     S
C711   N734    1.367   .     A
C712   H727    1.082   .     S
C712   N733    1.367   .     A
C712   C445    1.418   1_565 S
C713   O740    1.281   .     A
C713   O741    1.281   .     A
C714   O746    1.278   .     A
C714   C716    1.366   .     S
C714   O743    1.278   .     A
C715   O745    1.278   .     A
C715   O744    1.278   .     A
C715   C717    1.366   .     S
C717   C1112   1.165   .     S
C718   N735    1.437   .     S
C719   N736    1.437   .     S
C719   C750    1.388   .     S
C720   N737    1.437   .     S
C720   C762    1.388   .     S
H722   N737    1.045   .     S
H723   N738    1.045   .     S
H724   N738    1.045   .     S
H728   N735    1.045   .     S
H729   N735    1.045   .     S
H730   N736    1.045   .     S
H731   N736    1.045   .     S
H732   N737    1.045   .     S
N733   Zn747   2.015   .     S
N734   Zn748   2.015   .     S
O739   Zn747   1.988   .     S
O740   Zn748   1.988   .     S
O741   Zn747   1.988   .     S
O742   Zn748   1.988   .     S
O743   Zn747   1.951   .     S
O744   Zn748   1.951   .     S
O745   Zn747   1.950   .     S
O746   Zn748   1.950   .     S
C749   C752    1.411   .     S
C749   O786    1.281   .     A
C749   O783    1.281   .     A
C750   C752    1.400   .     A
C750   N782    1.437   .     S
C751   C757    1.410   .     S
C751   C763    1.400   .     A
C751   C764    1.400   .     A
C752   C762    1.400   .     A
C753   H765    1.082   .     S
C753   N778    1.367   .     A
C754   N777    1.367   .     A
C754   H769    1.082   .     S
C754   C491    1.418   1_565 S
C755   H770    1.082   .     S
C755   N778    1.367   .     A
C756   H771    1.082   .     S
C756   N777    1.367   .     A
C756   C489    1.418   1_565 S
C757   O784    1.281   .     A
C757   O785    1.281   .     A
C758   O790    1.278   .     A
C758   C760    1.366   .     S
C758   O787    1.278   .     A
C759   O789    1.278   .     A
C759   O788    1.278   .     A
C759   C761    1.366   .     S
C761   C1156   1.165   .     S
C762   N779    1.437   .     S
C763   N780    1.437   .     S
C763   C662    1.388   1_655 S
C764   N781    1.437   .     S
C764   C674    1.388   1_655 S
H766   N781    1.045   .     S
H767   N782    1.045   .     S
H768   N782    1.045   .     S
H772   N779    1.045   .     S
H773   N779    1.045   .     S
H774   N780    1.045   .     S
H775   N780    1.045   .     S
H776   N781    1.045   .     S
N777   Zn791   2.015   .     S
N778   Zn792   2.015   .     S
O783   Zn791   1.988   .     S
O784   Zn792   1.988   .     S
O785   Zn791   1.988   .     S
O786   Zn792   1.988   .     S
O787   Zn791   1.951   .     S
O788   Zn792   1.951   .     S
O789   Zn791   1.950   .     S
O790   Zn792   1.950   .     S
C793   C796    1.411   .     S
C793   O830    1.281   .     A
C793   O827    1.281   .     A
C794   C796    1.400   .     A
C794   N826    1.437   .     S
C794   C895    1.388   1_455 S
C795   C801    1.410   .     S
C795   C807    1.400   .     A
C795   C808    1.400   .     A
C796   C806    1.400   .     A
C797   H809    1.082   .     S
C797   N822    1.367   .     A
C797   C1064   1.418   1_545 S
C798   N821    1.367   .     A
C798   H813    1.082   .     S
C798   C931    1.418   .     S
C799   H814    1.082   .     S
C799   N822    1.367   .     A
C799   C1062   1.418   1_545 S
C800   H815    1.082   .     S
C800   N821    1.367   .     A
C800   C929    1.418   .     S
C801   O828    1.281   .     A
C801   O829    1.281   .     A
C802   O834    1.278   .     A
C802   C804    1.366   .     S
C802   O831    1.278   .     A
C803   O833    1.278   .     A
C803   O832    1.278   .     A
C803   C805    1.366   .     S
C805   C12     1.165   1_556 S
C806   N823    1.437   .     S
C806   C896    1.388   1_455 S
C807   N824    1.437   .     S
C807   C838    1.388   .     S
C808   N825    1.437   .     S
C808   C850    1.388   .     S
H810   N825    1.045   .     S
H811   N826    1.045   .     S
H812   N826    1.045   .     S
H816   N823    1.045   .     S
H817   N823    1.045   .     S
H818   N824    1.045   .     S
H819   N824    1.045   .     S
H820   N825    1.045   .     S
N821   Zn835   2.015   .     S
N822   Zn836   2.015   .     S
O827   Zn835   1.988   .     S
O828   Zn836   1.988   .     S
O829   Zn835   1.988   .     S
O830   Zn836   1.988   .     S
O831   Zn835   1.951   .     S
O832   Zn836   1.951   .     S
O833   Zn835   1.950   .     S
O834   Zn836   1.950   .     S
C837   C840    1.411   .     S
C837   O874    1.281   .     A
C837   O871    1.281   .     A
C838   C840    1.400   .     A
C838   N870    1.437   .     S
C839   C845    1.410   .     S
C839   C851    1.400   .     A
C839   C852    1.400   .     A
C840   C850    1.400   .     A
C841   H853    1.082   .     S
C841   N866    1.367   .     A
C841   C1108   1.418   1_545 S
C842   N865    1.367   .     A
C842   H857    1.082   .     S
C842   C975    1.418   .     S
C843   H858    1.082   .     S
C843   N866    1.367   .     A
C843   C1106   1.418   1_545 S
C844   H859    1.082   .     S
C844   N865    1.367   .     A
C844   C973    1.418   .     S
C845   O872    1.281   .     A
C845   O873    1.281   .     A
C846   O878    1.278   .     A
C846   C848    1.366   .     S
C846   O875    1.278   .     A
C847   O877    1.278   .     A
C847   O876    1.278   .     A
C847   C849    1.366   .     S
C849   C56     1.165   1_556 S
C850   N867    1.437   .     S
C851   N868    1.437   .     S
C851   C882    1.388   .     S
C852   N869    1.437   .     S
C852   C894    1.388   .     S
H854   N869    1.045   .     S
H855   N870    1.045   .     S
H856   N870    1.045   .     S
H860   N867    1.045   .     S
H861   N867    1.045   .     S
H862   N868    1.045   .     S
H863   N868    1.045   .     S
H864   N869    1.045   .     S
N865   Zn879   2.015   .     S
N866   Zn880   2.015   .     S
O871   Zn879   1.988   .     S
O872   Zn880   1.988   .     S
O873   Zn879   1.988   .     S
O874   Zn880   1.988   .     S
O875   Zn879   1.951   .     S
O876   Zn880   1.951   .     S
O877   Zn879   1.950   .     S
O878   Zn880   1.950   .     S
C881   C884    1.411   .     S
C881   O918    1.281   .     A
C881   O915    1.281   .     A
C882   C884    1.400   .     A
C882   N914    1.437   .     S
C883   C889    1.410   .     S
C883   C895    1.400   .     A
C883   C896    1.400   .     A
C884   C894    1.400   .     A
C885   H897    1.082   .     S
C885   N910    1.367   .     A
C885   C1152   1.418   1_545 S
C886   N909    1.367   .     A
C886   H901    1.082   .     S
C886   C1019   1.418   .     S
C887   H902    1.082   .     S
C887   N910    1.367   .     A
C887   C1150   1.418   1_545 S
C888   H903    1.082   .     S
C888   N909    1.367   .     A
C888   C1017   1.418   .     S
C889   O916    1.281   .     A
C889   O917    1.281   .     A
C890   O922    1.278   .     A
C890   C892    1.366   .     S
C890   O919    1.278   .     A
C891   O921    1.278   .     A
C891   O920    1.278   .     A
C891   C893    1.366   .     S
C893   C100    1.165   1_556 S
C894   N911    1.437   .     S
C895   N912    1.437   .     S
C895   C794    1.388   1_655 S
C896   N913    1.437   .     S
C896   C806    1.388   1_655 S
H898   N913    1.045   .     S
H899   N914    1.045   .     S
H900   N914    1.045   .     S
H904   N911    1.045   .     S
H905   N911    1.045   .     S
H906   N912    1.045   .     S
H907   N912    1.045   .     S
H908   N913    1.045   .     S
N909   Zn923   2.015   .     S
N910   Zn924   2.015   .     S
O915   Zn923   1.988   .     S
O916   Zn924   1.988   .     S
O917   Zn923   1.988   .     S
O918   Zn924   1.988   .     S
O919   Zn923   1.951   .     S
O920   Zn924   1.951   .     S
O921   Zn923   1.950   .     S
O922   Zn924   1.950   .     S
C925   C928    1.411   .     S
C925   O962    1.281   .     A
C925   O959    1.281   .     A
C926   C928    1.400   .     A
C926   N958    1.437   .     S
C926   C1027   1.388   1_455 S
C927   C933    1.410   .     S
C927   C939    1.400   .     A
C927   C940    1.400   .     A
C928   C938    1.400   .     A
C929   H941    1.082   .     S
C929   N954    1.367   .     A
C930   N953    1.367   .     A
C930   H945    1.082   .     S
C930   C1063   1.418   .     S
C931   H946    1.082   .     S
C931   N954    1.367   .     A
C932   H947    1.082   .     S
C932   N953    1.367   .     A
C932   C1061   1.418   .     S
C933   O960    1.281   .     A
C933   O961    1.281   .     A
C934   O966    1.278   .     A
C934   C936    1.366   .     S
C934   O963    1.278   .     A
C935   O965    1.278   .     A
C935   O964    1.278   .     A
C935   C937    1.366   .     S
C937   C144    1.165   1_556 S
C938   N955    1.437   .     S
C938   C1028   1.388   1_455 S
C939   N956    1.437   .     S
C939   C970    1.388   .     S
C940   N957    1.437   .     S
C940   C982    1.388   .     S
H942   N957    1.045   .     S
H943   N958    1.045   .     S
H944   N958    1.045   .     S
H948   N955    1.045   .     S
H949   N955    1.045   .     S
H950   N956    1.045   .     S
H951   N956    1.045   .     S
H952   N957    1.045   .     S
N953   Zn967   2.015   .     S
N954   Zn968   2.015   .     S
O959   Zn967   1.988   .     S
O960   Zn968   1.988   .     S
O961   Zn967   1.988   .     S
O962   Zn968   1.988   .     S
O963   Zn967   1.951   .     S
O964   Zn968   1.951   .     S
O965   Zn967   1.950   .     S
O966   Zn968   1.950   .     S
C969   C972    1.411   .     S
C969   O1006   1.281   .     A
C969   O1003   1.281   .     A
C970   C972    1.400   .     A
C970   N1002   1.437   .     S
C971   C977    1.410   .     S
C971   C983    1.400   .     A
C971   C984    1.400   .     A
C972   C982    1.400   .     A
C973   H985    1.082   .     S
C973   N998    1.367   .     A
C974   N997    1.367   .     A
C974   H989    1.082   .     S
C974   C1107   1.418   .     S
C975   H990    1.082   .     S
C975   N998    1.367   .     A
C976   H991    1.082   .     S
C976   N997    1.367   .     A
C976   C1105   1.418   .     S
C977   O1004   1.281   .     A
C977   O1005   1.281   .     A
C978   O1010   1.278   .     A
C978   C980    1.366   .     S
C978   O1007   1.278   .     A
C979   O1009   1.278   .     A
C979   O1008   1.278   .     A
C979   C981    1.366   .     S
C981   C188    1.165   1_556 S
C982   N999    1.437   .     S
C983   N1000   1.437   .     S
C983   C1014   1.388   .     S
C984   N1001   1.437   .     S
C984   C1026   1.388   .     S
H986   N1001   1.045   .     S
H987   N1002   1.045   .     S
H988   N1002   1.045   .     S
H992   N999    1.045   .     S
H993   N999    1.045   .     S
H994   N1000   1.045   .     S
H995   N1000   1.045   .     S
H996   N1001   1.045   .     S
N997   Zn1011  2.015   .     S
N998   Zn1012  2.015   .     S
O1003  Zn1011  1.988   .     S
O1004  Zn1012  1.988   .     S
O1005  Zn1011  1.988   .     S
O1006  Zn1012  1.988   .     S
O1007  Zn1011  1.951   .     S
O1008  Zn1012  1.951   .     S
O1009  Zn1011  1.950   .     S
O1010  Zn1012  1.950   .     S
C1013  C1016   1.411   .     S
C1013  O1050   1.281   .     A
C1013  O1047   1.281   .     A
C1014  C1016   1.400   .     A
C1014  N1046   1.437   .     S
C1015  C1021   1.410   .     S
C1015  C1027   1.400   .     A
C1015  C1028   1.400   .     A
C1016  C1026   1.400   .     A
C1017  H1029   1.082   .     S
C1017  N1042   1.367   .     A
C1018  N1041   1.367   .     A
C1018  H1033   1.082   .     S
C1018  C1151   1.418   .     S
C1019  H1034   1.082   .     S
C1019  N1042   1.367   .     A
C1020  H1035   1.082   .     S
C1020  N1041   1.367   .     A
C1020  C1149   1.418   .     S
C1021  O1048   1.281   .     A
C1021  O1049   1.281   .     A
C1022  O1054   1.278   .     A
C1022  C1024   1.366   .     S
C1022  O1051   1.278   .     A
C1023  O1053   1.278   .     A
C1023  O1052   1.278   .     A
C1023  C1025   1.366   .     S
C1025  C232    1.165   1_556 S
C1026  N1043   1.437   .     S
C1027  N1044   1.437   .     S
C1027  C926    1.388   1_655 S
C1028  N1045   1.437   .     S
C1028  C938    1.388   1_655 S
H1030  N1045   1.045   .     S
H1031  N1046   1.045   .     S
H1032  N1046   1.045   .     S
H1036  N1043   1.045   .     S
H1037  N1043   1.045   .     S
H1038  N1044   1.045   .     S
H1039  N1044   1.045   .     S
H1040  N1045   1.045   .     S
N1041  Zn1055  2.015   .     S
N1042  Zn1056  2.015   .     S
O1047  Zn1055  1.988   .     S
O1048  Zn1056  1.988   .     S
O1049  Zn1055  1.988   .     S
O1050  Zn1056  1.988   .     S
O1051  Zn1055  1.951   .     S
O1052  Zn1056  1.951   .     S
O1053  Zn1055  1.950   .     S
O1054  Zn1056  1.950   .     S
C1057  C1060   1.411   .     S
C1057  O1094   1.281   .     A
C1057  O1091   1.281   .     A
C1058  C1060   1.400   .     A
C1058  N1090   1.437   .     S
C1058  C1159   1.388   1_455 S
C1059  C1065   1.410   .     S
C1059  C1071   1.400   .     A
C1059  C1072   1.400   .     A
C1060  C1070   1.400   .     A
C1061  H1073   1.082   .     S
C1061  N1086   1.367   .     A
C1062  N1085   1.367   .     A
C1062  H1077   1.082   .     S
C1062  C799    1.418   1_565 S
C1063  H1078   1.082   .     S
C1063  N1086   1.367   .     A
C1064  H1079   1.082   .     S
C1064  N1085   1.367   .     A
C1064  C797    1.418   1_565 S
C1065  O1092   1.281   .     A
C1065  O1093   1.281   .     A
C1066  O1098   1.278   .     A
C1066  C1068   1.366   .     S
C1066  O1095   1.278   .     A
C1067  O1097   1.278   .     A
C1067  O1096   1.278   .     A
C1067  C1069   1.366   .     S
C1069  C276    1.165   1_556 S
C1070  N1087   1.437   .     S
C1070  C1160   1.388   1_455 S
C1071  N1088   1.437   .     S
C1071  C1102   1.388   .     S
C1072  N1089   1.437   .     S
C1072  C1114   1.388   .     S
H1074  N1089   1.045   .     S
H1075  N1090   1.045   .     S
H1076  N1090   1.045   .     S
H1080  N1087   1.045   .     S
H1081  N1087   1.045   .     S
H1082  N1088   1.045   .     S
H1083  N1088   1.045   .     S
H1084  N1089   1.045   .     S
N1085  Zn1099  2.015   .     S
N1086  Zn1100  2.015   .     S
O1091  Zn1099  1.988   .     S
O1092  Zn1100  1.988   .     S
O1093  Zn1099  1.988   .     S
O1094  Zn1100  1.988   .     S
O1095  Zn1099  1.951   .     S
O1096  Zn1100  1.951   .     S
O1097  Zn1099  1.950   .     S
O1098  Zn1100  1.950   .     S
C1101  C1104   1.411   .     S
C1101  O1138   1.281   .     A
C1101  O1135   1.281   .     A
C1102  C1104   1.400   .     A
C1102  N1134   1.437   .     S
C1103  C1109   1.410   .     S
C1103  C1115   1.400   .     A
C1103  C1116   1.400   .     A
C1104  C1114   1.400   .     A
C1105  H1117   1.082   .     S
C1105  N1130   1.367   .     A
C1106  N1129   1.367   .     A
C1106  H1121   1.082   .     S
C1106  C843    1.418   1_565 S
C1107  H1122   1.082   .     S
C1107  N1130   1.367   .     A
C1108  H1123   1.082   .     S
C1108  N1129   1.367   .     A
C1108  C841    1.418   1_565 S
C1109  O1136   1.281   .     A
C1109  O1137   1.281   .     A
C1110  O1142   1.278   .     A
C1110  C1112   1.366   .     S
C1110  O1139   1.278   .     A
C1111  O1141   1.278   .     A
C1111  O1140   1.278   .     A
C1111  C1113   1.366   .     S
C1113  C320    1.165   1_556 S
C1114  N1131   1.437   .     S
C1115  N1132   1.437   .     S
C1115  C1146   1.388   .     S
C1116  N1133   1.437   .     S
C1116  C1158   1.388   .     S
H1118  N1133   1.045   .     S
H1119  N1134   1.045   .     S
H1120  N1134   1.045   .     S
H1124  N1131   1.045   .     S
H1125  N1131   1.045   .     S
H1126  N1132   1.045   .     S
H1127  N1132   1.045   .     S
H1128  N1133   1.045   .     S
N1129  Zn1143  2.015   .     S
N1130  Zn1144  2.015   .     S
O1135  Zn1143  1.988   .     S
O1136  Zn1144  1.988   .     S
O1137  Zn1143  1.988   .     S
O1138  Zn1144  1.988   .     S
O1139  Zn1143  1.951   .     S
O1140  Zn1144  1.951   .     S
O1141  Zn1143  1.950   .     S
O1142  Zn1144  1.950   .     S
C1145  C1148   1.411   .     S
C1145  O1182   1.281   .     A
C1145  O1179   1.281   .     A
C1146  C1148   1.400   .     A
C1146  N1178   1.437   .     S
C1147  C1153   1.410   .     S
C1147  C1159   1.400   .     A
C1147  C1160   1.400   .     A
C1148  C1158   1.400   .     A
C1149  H1161   1.082   .     S
C1149  N1174   1.367   .     A
C1150  N1173   1.367   .     A
C1150  H1165   1.082   .     S
C1150  C887    1.418   1_565 S
C1151  H1166   1.082   .     S
C1151  N1174   1.367   .     A
C1152  H1167   1.082   .     S
C1152  N1173   1.367   .     A
C1152  C885    1.418   1_565 S
C1153  O1180   1.281   .     A
C1153  O1181   1.281   .     A
C1154  O1186   1.278   .     A
C1154  C1156   1.366   .     S
C1154  O1183   1.278   .     A
C1155  O1185   1.278   .     A
C1155  O1184   1.278   .     A
C1155  C1157   1.366   .     S
C1157  C364    1.165   1_556 S
C1158  N1175   1.437   .     S
C1159  N1176   1.437   .     S
C1159  C1058   1.388   1_655 S
C1160  N1177   1.437   .     S
C1160  C1070   1.388   1_655 S
H1162  N1177   1.045   .     S
H1163  N1178   1.045   .     S
H1164  N1178   1.045   .     S
H1168  N1175   1.045   .     S
H1169  N1175   1.045   .     S
H1170  N1176   1.045   .     S
H1171  N1176   1.045   .     S
H1172  N1177   1.045   .     S
N1173  Zn1187  2.015   .     S
N1174  Zn1188  2.015   .     S
O1179  Zn1187  1.988   .     S
O1180  Zn1188  1.988   .     S
O1181  Zn1187  1.988   .     S
O1182  Zn1188  1.988   .     S
O1183  Zn1187  1.951   .     S
O1184  Zn1188  1.951   .     S
O1185  Zn1187  1.950   .     S
O1186  Zn1188  1.950   .     S
