data_str_m2_o10_o17_pcu_sym.204
_audit_creation_date              2020-01-03
_audit_creation_method            'Materials Studio'
_symmetry_space_group_name_H-M    'P1'
_symmetry_Int_Tables_number       1
_symmetry_cell_setting            triclinic
loop_
_symmetry_equiv_pos_as_xyz
  x,y,z
_cell_length_a                    30.0797
_cell_length_b                    26.0495
_cell_length_c                    22.3357
_cell_angle_alpha                 102.8845
_cell_angle_beta                  94.4539
_cell_angle_gamma                 92.5345
loop_
_atom_site_label
_atom_site_type_symbol
_atom_site_fract_x
_atom_site_fract_y
_atom_site_fract_z
_atom_site_U_iso_or_equiv
_atom_site_adp_type
_atom_site_occupancy
C1     C     0.24864   0.06657   0.15109   0.00000  Uiso   1.00
C2     C     0.25136   0.26676   0.18224   0.00000  Uiso   1.00
C3     C     0.01597   0.12196   0.05829   0.00000  Uiso   1.00
C4     C     0.48403   0.21137   0.27504   0.00000  Uiso   1.00
C5     C     0.24798   0.01062   0.14231   0.00000  Uiso   1.00
C6     C     0.25202   0.32271   0.19102   0.00000  Uiso   1.00
C7     C     0.16437   0.16621   0.16725   0.00000  Uiso   1.00
C8     C     0.33563   0.16713   0.16608   0.00000  Uiso   1.00
C9     C     0.41099   0.18964   0.21972   0.00000  Uiso   1.00
C10    C     0.08901   0.14369   0.11361   0.00000  Uiso   1.00
C11    C     0.38398   0.16787   0.16530   0.00000  Uiso   1.00
C12    C     0.11602   0.16546   0.16803   0.00000  Uiso   1.00
C13    C     0.40312   0.14614   0.11095   0.00000  Uiso   1.00
C14    C     0.09688   0.18719   0.22238   0.00000  Uiso   1.00
C15    C     0.44954   0.14501   0.11065   0.00000  Uiso   1.00
C16    C     0.05046   0.18832   0.22268   0.00000  Uiso   1.00
C17    C     0.47668   0.16699   0.16607   0.00000  Uiso   1.00
C18    C     0.02332   0.16634   0.16726   0.00000  Uiso   1.00
C19    C     0.45720   0.18951   0.22048   0.00000  Uiso   1.00
C20    C     0.04280   0.14382   0.11286   0.00000  Uiso   1.00
C21    C     0.46959   0.12221   0.05677   0.00000  Uiso   1.00
C22    C     0.03041   0.21113   0.27656   0.00000  Uiso   1.00
Cu23   Cu    0.25501   0.17246   0.22813   0.00000  Uiso   1.00
Cu24   Cu    0.24500   0.16087   0.10521   0.00000  Uiso   1.00
H25    H     0.39602   0.20682   0.26165   0.00000  Uiso   1.00
H26    H     0.10398   0.12651   0.07168   0.00000  Uiso   1.00
H27    H     0.38149   0.12942   0.06955   0.00000  Uiso   1.00
H28    H     0.11851   0.20391   0.26379   0.00000  Uiso   1.00
H29    H     0.03109   0.10461   0.01657   0.00000  Uiso   1.00
H30    H     0.46891   0.22872   0.31676   0.00000  Uiso   1.00
H31    H     0.24417   0.32012   0.09535   0.00000  Uiso   1.00
H32    H     0.25583   0.01322   0.23798   0.00000  Uiso   1.00
H33    H     0.21498   0.12591   0.31608   0.00000  Uiso   1.00
H34    H     0.28502   0.20742   0.01725   0.00000  Uiso   1.00
N35    N     0.23745   0.15214   0.01284   0.00000  Uiso   1.00
N36    N     0.26256   0.18119   0.32049   0.00000  Uiso   1.00
O37    O     0.25326   0.09538   0.20659   0.00000  Uiso   1.00
O38    O     0.24675   0.23796   0.12674   0.00000  Uiso   1.00
O39    O     0.24480   0.08559   0.10279   0.00000  Uiso   1.00
O40    O     0.25520   0.24774   0.23055   0.00000  Uiso   1.00
O41    O     0.18936   0.17155   0.21857   0.00000  Uiso   1.00
O42    O     0.31065   0.16179   0.11476   0.00000  Uiso   1.00
O43    O     0.18090   0.16176   0.11477   0.00000  Uiso   1.00
O44    O     0.31910   0.17157   0.21857   0.00000  Uiso   1.00
Br45   Br    0.43578   0.08993   0.31325   0.00000  Uiso   1.00
Br46   Br    0.06422   0.24340   0.02008   0.00000  Uiso   1.00
C47    C     0.74864   0.06657   0.15109   0.00000  Uiso   1.00
C48    C     0.75136   0.26676   0.18224   0.00000  Uiso   1.00
C49    C     0.51597   0.12196   0.05829   0.00000  Uiso   1.00
C50    C     0.98403   0.21137   0.27504   0.00000  Uiso   1.00
C51    C     0.74798   0.01062   0.14231   0.00000  Uiso   1.00
C52    C     0.75202   0.32271   0.19102   0.00000  Uiso   1.00
C53    C     0.66437   0.16621   0.16725   0.00000  Uiso   1.00
C54    C     0.83563   0.16713   0.16608   0.00000  Uiso   1.00
C55    C     0.91099   0.18964   0.21972   0.00000  Uiso   1.00
C56    C     0.58901   0.14369   0.11361   0.00000  Uiso   1.00
C57    C     0.88398   0.16787   0.16530   0.00000  Uiso   1.00
C58    C     0.61602   0.16546   0.16803   0.00000  Uiso   1.00
C59    C     0.90312   0.14614   0.11095   0.00000  Uiso   1.00
C60    C     0.59688   0.18719   0.22238   0.00000  Uiso   1.00
C61    C     0.94954   0.14501   0.11065   0.00000  Uiso   1.00
C62    C     0.55046   0.18832   0.22268   0.00000  Uiso   1.00
C63    C     0.97668   0.16699   0.16607   0.00000  Uiso   1.00
C64    C     0.52332   0.16634   0.16726   0.00000  Uiso   1.00
C65    C     0.95720   0.18951   0.22048   0.00000  Uiso   1.00
C66    C     0.54280   0.14382   0.11286   0.00000  Uiso   1.00
C67    C     0.96959   0.12221   0.05677   0.00000  Uiso   1.00
C68    C     0.53041   0.21113   0.27656   0.00000  Uiso   1.00
Cu69   Cu    0.75501   0.17246   0.22813   0.00000  Uiso   1.00
Cu70   Cu    0.74500   0.16087   0.10521   0.00000  Uiso   1.00
H71    H     0.89602   0.20682   0.26165   0.00000  Uiso   1.00
H72    H     0.60398   0.12651   0.07168   0.00000  Uiso   1.00
H73    H     0.88149   0.12942   0.06955   0.00000  Uiso   1.00
H74    H     0.61851   0.20391   0.26379   0.00000  Uiso   1.00
H75    H     0.53109   0.10461   0.01657   0.00000  Uiso   1.00
H76    H     0.96891   0.22872   0.31676   0.00000  Uiso   1.00
H77    H     0.74417   0.32012   0.09535   0.00000  Uiso   1.00
H78    H     0.75583   0.01322   0.23798   0.00000  Uiso   1.00
H79    H     0.71498   0.12591   0.31608   0.00000  Uiso   1.00
H80    H     0.78502   0.20742   0.01725   0.00000  Uiso   1.00
N81    N     0.73745   0.15214   0.01284   0.00000  Uiso   1.00
N82    N     0.76256   0.18119   0.32049   0.00000  Uiso   1.00
O83    O     0.75326   0.09538   0.20659   0.00000  Uiso   1.00
O84    O     0.74675   0.23796   0.12674   0.00000  Uiso   1.00
O85    O     0.74480   0.08559   0.10279   0.00000  Uiso   1.00
O86    O     0.75520   0.24774   0.23055   0.00000  Uiso   1.00
O87    O     0.68936   0.17155   0.21857   0.00000  Uiso   1.00
O88    O     0.81065   0.16179   0.11476   0.00000  Uiso   1.00
O89    O     0.68090   0.16176   0.11477   0.00000  Uiso   1.00
O90    O     0.81910   0.17157   0.21857   0.00000  Uiso   1.00
Br91   Br    0.93578   0.08993   0.31325   0.00000  Uiso   1.00
Br92   Br    0.56422   0.24340   0.02008   0.00000  Uiso   1.00
C93    C     0.24864   0.39990   0.15109   0.00000  Uiso   1.00
C94    C     0.25136   0.60009   0.18224   0.00000  Uiso   1.00
C95    C     0.01597   0.45529   0.05829   0.00000  Uiso   1.00
C96    C     0.48403   0.54471   0.27504   0.00000  Uiso   1.00
C97    C     0.24798   0.34395   0.14231   0.00000  Uiso   1.00
C98    C     0.25202   0.65605   0.19102   0.00000  Uiso   1.00
C99    C     0.16437   0.49954   0.16725   0.00000  Uiso   1.00
C100   C     0.33563   0.50046   0.16608   0.00000  Uiso   1.00
C101   C     0.41099   0.52297   0.21972   0.00000  Uiso   1.00
C102   C     0.08901   0.47703   0.11361   0.00000  Uiso   1.00
C103   C     0.38398   0.50121   0.16530   0.00000  Uiso   1.00
C104   C     0.11602   0.49879   0.16803   0.00000  Uiso   1.00
C105   C     0.40312   0.47948   0.11095   0.00000  Uiso   1.00
C106   C     0.09688   0.52052   0.22238   0.00000  Uiso   1.00
C107   C     0.44954   0.47835   0.11065   0.00000  Uiso   1.00
C108   C     0.05046   0.52165   0.22268   0.00000  Uiso   1.00
C109   C     0.47668   0.50032   0.16607   0.00000  Uiso   1.00
C110   C     0.02332   0.49968   0.16726   0.00000  Uiso   1.00
C111   C     0.45720   0.52284   0.22048   0.00000  Uiso   1.00
C112   C     0.04280   0.47716   0.11286   0.00000  Uiso   1.00
C113   C     0.46959   0.45554   0.05677   0.00000  Uiso   1.00
C114   C     0.03041   0.54446   0.27656   0.00000  Uiso   1.00
Cu115  Cu    0.25501   0.50579   0.22813   0.00000  Uiso   1.00
Cu116  Cu    0.24500   0.49421   0.10521   0.00000  Uiso   1.00
H117   H     0.39602   0.54016   0.26165   0.00000  Uiso   1.00
H118   H     0.10398   0.45984   0.07168   0.00000  Uiso   1.00
H119   H     0.38149   0.46275   0.06955   0.00000  Uiso   1.00
H120   H     0.11851   0.53725   0.26379   0.00000  Uiso   1.00
H121   H     0.03109   0.43794   0.01657   0.00000  Uiso   1.00
H122   H     0.46891   0.56205   0.31676   0.00000  Uiso   1.00
H123   H     0.24417   0.65345   0.09535   0.00000  Uiso   1.00
H124   H     0.25583   0.34655   0.23798   0.00000  Uiso   1.00
H125   H     0.21498   0.45924   0.31608   0.00000  Uiso   1.00
H126   H     0.28502   0.54076   0.01725   0.00000  Uiso   1.00
N127   N     0.23745   0.48547   0.01284   0.00000  Uiso   1.00
N128   N     0.26256   0.51453   0.32049   0.00000  Uiso   1.00
O129   O     0.25326   0.42871   0.20659   0.00000  Uiso   1.00
O130   O     0.24675   0.57129   0.12674   0.00000  Uiso   1.00
O131   O     0.24480   0.41892   0.10279   0.00000  Uiso   1.00
O132   O     0.25520   0.58108   0.23055   0.00000  Uiso   1.00
O133   O     0.18936   0.50488   0.21857   0.00000  Uiso   1.00
O134   O     0.31065   0.49512   0.11476   0.00000  Uiso   1.00
O135   O     0.18090   0.49510   0.11477   0.00000  Uiso   1.00
O136   O     0.31910   0.50490   0.21857   0.00000  Uiso   1.00
Br137  Br    0.43578   0.42327   0.31325   0.00000  Uiso   1.00
Br138  Br    0.06422   0.57673   0.02008   0.00000  Uiso   1.00
C139   C     0.74864   0.39990   0.15109   0.00000  Uiso   1.00
C140   C     0.75136   0.60009   0.18224   0.00000  Uiso   1.00
C141   C     0.51597   0.45529   0.05829   0.00000  Uiso   1.00
C142   C     0.98403   0.54471   0.27504   0.00000  Uiso   1.00
C143   C     0.74798   0.34395   0.14231   0.00000  Uiso   1.00
C144   C     0.75202   0.65605   0.19102   0.00000  Uiso   1.00
C145   C     0.66437   0.49954   0.16725   0.00000  Uiso   1.00
C146   C     0.83563   0.50046   0.16608   0.00000  Uiso   1.00
C147   C     0.91099   0.52297   0.21972   0.00000  Uiso   1.00
C148   C     0.58901   0.47703   0.11361   0.00000  Uiso   1.00
C149   C     0.88398   0.50121   0.16530   0.00000  Uiso   1.00
C150   C     0.61602   0.49879   0.16803   0.00000  Uiso   1.00
C151   C     0.90312   0.47948   0.11095   0.00000  Uiso   1.00
C152   C     0.59688   0.52052   0.22238   0.00000  Uiso   1.00
C153   C     0.94954   0.47835   0.11065   0.00000  Uiso   1.00
C154   C     0.55046   0.52165   0.22268   0.00000  Uiso   1.00
C155   C     0.97668   0.50032   0.16607   0.00000  Uiso   1.00
C156   C     0.52332   0.49968   0.16726   0.00000  Uiso   1.00
C157   C     0.95720   0.52284   0.22048   0.00000  Uiso   1.00
C158   C     0.54280   0.47716   0.11286   0.00000  Uiso   1.00
C159   C     0.96959   0.45554   0.05677   0.00000  Uiso   1.00
C160   C     0.53041   0.54446   0.27656   0.00000  Uiso   1.00
Cu161  Cu    0.75501   0.50579   0.22813   0.00000  Uiso   1.00
Cu162  Cu    0.74500   0.49421   0.10521   0.00000  Uiso   1.00
H163   H     0.89602   0.54016   0.26165   0.00000  Uiso   1.00
H164   H     0.60398   0.45984   0.07168   0.00000  Uiso   1.00
H165   H     0.88149   0.46275   0.06955   0.00000  Uiso   1.00
H166   H     0.61851   0.53725   0.26379   0.00000  Uiso   1.00
H167   H     0.53109   0.43794   0.01657   0.00000  Uiso   1.00
H168   H     0.96891   0.56205   0.31676   0.00000  Uiso   1.00
H169   H     0.74417   0.65345   0.09535   0.00000  Uiso   1.00
H170   H     0.75583   0.34655   0.23798   0.00000  Uiso   1.00
H171   H     0.71498   0.45924   0.31608   0.00000  Uiso   1.00
H172   H     0.78502   0.54076   0.01725   0.00000  Uiso   1.00
N173   N     0.73745   0.48547   0.01284   0.00000  Uiso   1.00
N174   N     0.76256   0.51453   0.32049   0.00000  Uiso   1.00
O175   O     0.75326   0.42871   0.20659   0.00000  Uiso   1.00
O176   O     0.74675   0.57129   0.12674   0.00000  Uiso   1.00
O177   O     0.74480   0.41892   0.10279   0.00000  Uiso   1.00
O178   O     0.75520   0.58108   0.23055   0.00000  Uiso   1.00
O179   O     0.68936   0.50488   0.21857   0.00000  Uiso   1.00
O180   O     0.81065   0.49512   0.11476   0.00000  Uiso   1.00
O181   O     0.68090   0.49510   0.11477   0.00000  Uiso   1.00
O182   O     0.81910   0.50490   0.21857   0.00000  Uiso   1.00
Br183  Br    0.93578   0.42327   0.31325   0.00000  Uiso   1.00
Br184  Br    0.56422   0.57673   0.02008   0.00000  Uiso   1.00
C185   C     0.24864   0.73324   0.15109   0.00000  Uiso   1.00
C186   C     0.25136   0.93343   0.18224   0.00000  Uiso   1.00
C187   C     0.01597   0.78863   0.05829   0.00000  Uiso   1.00
C188   C     0.48403   0.87804   0.27504   0.00000  Uiso   1.00
C189   C     0.24798   0.67729   0.14231   0.00000  Uiso   1.00
C190   C     0.25202   0.98938   0.19102   0.00000  Uiso   1.00
C191   C     0.16437   0.83287   0.16725   0.00000  Uiso   1.00
C192   C     0.33563   0.83379   0.16608   0.00000  Uiso   1.00
C193   C     0.41099   0.85630   0.21972   0.00000  Uiso   1.00
C194   C     0.08901   0.81036   0.11361   0.00000  Uiso   1.00
C195   C     0.38398   0.83454   0.16530   0.00000  Uiso   1.00
C196   C     0.11602   0.83213   0.16803   0.00000  Uiso   1.00
C197   C     0.40312   0.81281   0.11095   0.00000  Uiso   1.00
C198   C     0.09688   0.85386   0.22238   0.00000  Uiso   1.00
C199   C     0.44954   0.81168   0.11065   0.00000  Uiso   1.00
C200   C     0.05046   0.85499   0.22268   0.00000  Uiso   1.00
C201   C     0.47668   0.83366   0.16607   0.00000  Uiso   1.00
C202   C     0.02332   0.83301   0.16726   0.00000  Uiso   1.00
C203   C     0.45720   0.85618   0.22048   0.00000  Uiso   1.00
C204   C     0.04280   0.81049   0.11286   0.00000  Uiso   1.00
C205   C     0.46959   0.78887   0.05677   0.00000  Uiso   1.00
C206   C     0.03041   0.87779   0.27656   0.00000  Uiso   1.00
Cu207  Cu    0.25501   0.83913   0.22813   0.00000  Uiso   1.00
Cu208  Cu    0.24500   0.82754   0.10521   0.00000  Uiso   1.00
H209   H     0.39602   0.87349   0.26165   0.00000  Uiso   1.00
H210   H     0.10398   0.79318   0.07168   0.00000  Uiso   1.00
H211   H     0.38149   0.79609   0.06955   0.00000  Uiso   1.00
H212   H     0.11851   0.87058   0.26379   0.00000  Uiso   1.00
H213   H     0.03109   0.77128   0.01657   0.00000  Uiso   1.00
H214   H     0.46891   0.89539   0.31676   0.00000  Uiso   1.00
H215   H     0.24417   0.98678   0.09535   0.00000  Uiso   1.00
H216   H     0.25583   0.67988   0.23798   0.00000  Uiso   1.00
H217   H     0.21498   0.79258   0.31608   0.00000  Uiso   1.00
H218   H     0.28502   0.87409   0.01725   0.00000  Uiso   1.00
N219   N     0.23745   0.81881   0.01284   0.00000  Uiso   1.00
N220   N     0.26256   0.84786   0.32049   0.00000  Uiso   1.00
O221   O     0.25326   0.76204   0.20659   0.00000  Uiso   1.00
O222   O     0.24675   0.90462   0.12674   0.00000  Uiso   1.00
O223   O     0.24480   0.75226   0.10279   0.00000  Uiso   1.00
O224   O     0.25520   0.91441   0.23055   0.00000  Uiso   1.00
O225   O     0.18936   0.83821   0.21857   0.00000  Uiso   1.00
O226   O     0.31065   0.82845   0.11476   0.00000  Uiso   1.00
O227   O     0.18090   0.82843   0.11477   0.00000  Uiso   1.00
O228   O     0.31910   0.83824   0.21857   0.00000  Uiso   1.00
Br229  Br    0.43578   0.75660   0.31325   0.00000  Uiso   1.00
Br230  Br    0.06422   0.91006   0.02008   0.00000  Uiso   1.00
C231   C     0.74864   0.73324   0.15109   0.00000  Uiso   1.00
C232   C     0.75136   0.93343   0.18224   0.00000  Uiso   1.00
C233   C     0.51597   0.78863   0.05829   0.00000  Uiso   1.00
C234   C     0.98403   0.87804   0.27504   0.00000  Uiso   1.00
C235   C     0.74798   0.67729   0.14231   0.00000  Uiso   1.00
C236   C     0.75202   0.98938   0.19102   0.00000  Uiso   1.00
C237   C     0.66437   0.83287   0.16725   0.00000  Uiso   1.00
C238   C     0.83563   0.83379   0.16608   0.00000  Uiso   1.00
C239   C     0.91099   0.85630   0.21972   0.00000  Uiso   1.00
C240   C     0.58901   0.81036   0.11361   0.00000  Uiso   1.00
C241   C     0.88398   0.83454   0.16530   0.00000  Uiso   1.00
C242   C     0.61602   0.83213   0.16803   0.00000  Uiso   1.00
C243   C     0.90312   0.81281   0.11095   0.00000  Uiso   1.00
C244   C     0.59688   0.85386   0.22238   0.00000  Uiso   1.00
C245   C     0.94954   0.81168   0.11065   0.00000  Uiso   1.00
C246   C     0.55046   0.85499   0.22268   0.00000  Uiso   1.00
C247   C     0.97668   0.83366   0.16607   0.00000  Uiso   1.00
C248   C     0.52332   0.83301   0.16726   0.00000  Uiso   1.00
C249   C     0.95720   0.85618   0.22048   0.00000  Uiso   1.00
C250   C     0.54280   0.81049   0.11286   0.00000  Uiso   1.00
C251   C     0.96959   0.78887   0.05677   0.00000  Uiso   1.00
C252   C     0.53041   0.87779   0.27656   0.00000  Uiso   1.00
Cu253  Cu    0.75501   0.83913   0.22813   0.00000  Uiso   1.00
Cu254  Cu    0.74500   0.82754   0.10521   0.00000  Uiso   1.00
H255   H     0.89602   0.87349   0.26165   0.00000  Uiso   1.00
H256   H     0.60398   0.79318   0.07168   0.00000  Uiso   1.00
H257   H     0.88149   0.79609   0.06955   0.00000  Uiso   1.00
H258   H     0.61851   0.87058   0.26379   0.00000  Uiso   1.00
H259   H     0.53109   0.77128   0.01657   0.00000  Uiso   1.00
H260   H     0.96891   0.89539   0.31676   0.00000  Uiso   1.00
H261   H     0.74417   0.98678   0.09535   0.00000  Uiso   1.00
H262   H     0.75583   0.67988   0.23798   0.00000  Uiso   1.00
H263   H     0.71498   0.79258   0.31608   0.00000  Uiso   1.00
H264   H     0.78502   0.87409   0.01725   0.00000  Uiso   1.00
N265   N     0.73745   0.81881   0.01284   0.00000  Uiso   1.00
N266   N     0.76256   0.84786   0.32049   0.00000  Uiso   1.00
O267   O     0.75326   0.76204   0.20659   0.00000  Uiso   1.00
O268   O     0.74675   0.90462   0.12674   0.00000  Uiso   1.00
O269   O     0.74480   0.75226   0.10279   0.00000  Uiso   1.00
O270   O     0.75520   0.91441   0.23055   0.00000  Uiso   1.00
O271   O     0.68936   0.83821   0.21857   0.00000  Uiso   1.00
O272   O     0.81065   0.82845   0.11476   0.00000  Uiso   1.00
O273   O     0.68090   0.82843   0.11477   0.00000  Uiso   1.00
O274   O     0.81910   0.83824   0.21857   0.00000  Uiso   1.00
Br275  Br    0.93578   0.75660   0.31325   0.00000  Uiso   1.00
Br276  Br    0.56422   0.91006   0.02008   0.00000  Uiso   1.00
C277   C     0.24864   0.06657   0.48443   0.00000  Uiso   1.00
C278   C     0.25136   0.26676   0.51557   0.00000  Uiso   1.00
C279   C     0.01597   0.12196   0.39162   0.00000  Uiso   1.00
C280   C     0.48403   0.21137   0.60838   0.00000  Uiso   1.00
C281   C     0.24798   0.01062   0.47564   0.00000  Uiso   1.00
C282   C     0.25202   0.32271   0.52436   0.00000  Uiso   1.00
C283   C     0.16437   0.16621   0.50058   0.00000  Uiso   1.00
C284   C     0.33563   0.16713   0.49942   0.00000  Uiso   1.00
C285   C     0.41099   0.18964   0.55305   0.00000  Uiso   1.00
C286   C     0.08901   0.14369   0.44695   0.00000  Uiso   1.00
C287   C     0.38398   0.16787   0.49864   0.00000  Uiso   1.00
C288   C     0.11602   0.16546   0.50136   0.00000  Uiso   1.00
C289   C     0.40312   0.14614   0.44428   0.00000  Uiso   1.00
C290   C     0.09688   0.18719   0.55572   0.00000  Uiso   1.00
C291   C     0.44954   0.14501   0.44398   0.00000  Uiso   1.00
C292   C     0.05046   0.18832   0.55602   0.00000  Uiso   1.00
C293   C     0.47668   0.16699   0.49941   0.00000  Uiso   1.00
C294   C     0.02332   0.16634   0.50059   0.00000  Uiso   1.00
C295   C     0.45720   0.18951   0.55381   0.00000  Uiso   1.00
C296   C     0.04280   0.14382   0.44619   0.00000  Uiso   1.00
C297   C     0.46959   0.12221   0.39011   0.00000  Uiso   1.00
C298   C     0.03041   0.21113   0.60989   0.00000  Uiso   1.00
Cu299  Cu    0.25501   0.17246   0.56146   0.00000  Uiso   1.00
Cu300  Cu    0.24500   0.16087   0.43854   0.00000  Uiso   1.00
H301   H     0.39602   0.20682   0.59499   0.00000  Uiso   1.00
H302   H     0.10398   0.12651   0.40501   0.00000  Uiso   1.00
H303   H     0.38149   0.12942   0.40288   0.00000  Uiso   1.00
H304   H     0.11851   0.20391   0.59712   0.00000  Uiso   1.00
H305   H     0.03109   0.10461   0.34991   0.00000  Uiso   1.00
H306   H     0.46891   0.22872   0.65009   0.00000  Uiso   1.00
H307   H     0.24417   0.32012   0.42869   0.00000  Uiso   1.00
H308   H     0.25583   0.01322   0.57131   0.00000  Uiso   1.00
H309   H     0.21498   0.12591   0.64942   0.00000  Uiso   1.00
H310   H     0.28502   0.20742   0.35058   0.00000  Uiso   1.00
N311   N     0.23745   0.15214   0.34617   0.00000  Uiso   1.00
N312   N     0.26256   0.18119   0.65383   0.00000  Uiso   1.00
O313   O     0.25326   0.09538   0.53992   0.00000  Uiso   1.00
O314   O     0.24675   0.23796   0.46008   0.00000  Uiso   1.00
O315   O     0.24480   0.08559   0.43612   0.00000  Uiso   1.00
O316   O     0.25520   0.24774   0.56388   0.00000  Uiso   1.00
O317   O     0.18936   0.17155   0.55191   0.00000  Uiso   1.00
O318   O     0.31065   0.16179   0.44809   0.00000  Uiso   1.00
O319   O     0.18090   0.16176   0.44810   0.00000  Uiso   1.00
O320   O     0.31910   0.17157   0.55190   0.00000  Uiso   1.00
Br321  Br    0.43578   0.08993   0.64659   0.00000  Uiso   1.00
Br322  Br    0.06422   0.24340   0.35341   0.00000  Uiso   1.00
C323   C     0.74864   0.06657   0.48443   0.00000  Uiso   1.00
C324   C     0.75136   0.26676   0.51557   0.00000  Uiso   1.00
C325   C     0.51597   0.12196   0.39162   0.00000  Uiso   1.00
C326   C     0.98403   0.21137   0.60838   0.00000  Uiso   1.00
C327   C     0.74798   0.01062   0.47564   0.00000  Uiso   1.00
C328   C     0.75202   0.32271   0.52436   0.00000  Uiso   1.00
C329   C     0.66437   0.16621   0.50058   0.00000  Uiso   1.00
C330   C     0.83563   0.16713   0.49942   0.00000  Uiso   1.00
C331   C     0.91099   0.18964   0.55305   0.00000  Uiso   1.00
C332   C     0.58901   0.14369   0.44695   0.00000  Uiso   1.00
C333   C     0.88398   0.16787   0.49864   0.00000  Uiso   1.00
C334   C     0.61602   0.16546   0.50136   0.00000  Uiso   1.00
C335   C     0.90312   0.14614   0.44428   0.00000  Uiso   1.00
C336   C     0.59688   0.18719   0.55572   0.00000  Uiso   1.00
C337   C     0.94954   0.14501   0.44398   0.00000  Uiso   1.00
C338   C     0.55046   0.18832   0.55602   0.00000  Uiso   1.00
C339   C     0.97668   0.16699   0.49941   0.00000  Uiso   1.00
C340   C     0.52332   0.16634   0.50059   0.00000  Uiso   1.00
C341   C     0.95720   0.18951   0.55381   0.00000  Uiso   1.00
C342   C     0.54280   0.14382   0.44619   0.00000  Uiso   1.00
C343   C     0.96959   0.12221   0.39011   0.00000  Uiso   1.00
C344   C     0.53041   0.21113   0.60989   0.00000  Uiso   1.00
Cu345  Cu    0.75501   0.17246   0.56146   0.00000  Uiso   1.00
Cu346  Cu    0.74500   0.16087   0.43854   0.00000  Uiso   1.00
H347   H     0.89602   0.20682   0.59499   0.00000  Uiso   1.00
H348   H     0.60398   0.12651   0.40501   0.00000  Uiso   1.00
H349   H     0.88149   0.12942   0.40288   0.00000  Uiso   1.00
H350   H     0.61851   0.20391   0.59712   0.00000  Uiso   1.00
H351   H     0.53109   0.10461   0.34991   0.00000  Uiso   1.00
H352   H     0.96891   0.22872   0.65009   0.00000  Uiso   1.00
H353   H     0.74417   0.32012   0.42869   0.00000  Uiso   1.00
H354   H     0.75583   0.01322   0.57131   0.00000  Uiso   1.00
H355   H     0.71498   0.12591   0.64942   0.00000  Uiso   1.00
H356   H     0.78502   0.20742   0.35058   0.00000  Uiso   1.00
N357   N     0.73745   0.15214   0.34617   0.00000  Uiso   1.00
N358   N     0.76256   0.18119   0.65383   0.00000  Uiso   1.00
O359   O     0.75326   0.09538   0.53992   0.00000  Uiso   1.00
O360   O     0.74675   0.23796   0.46008   0.00000  Uiso   1.00
O361   O     0.74480   0.08559   0.43612   0.00000  Uiso   1.00
O362   O     0.75520   0.24774   0.56388   0.00000  Uiso   1.00
O363   O     0.68936   0.17155   0.55191   0.00000  Uiso   1.00
O364   O     0.81065   0.16179   0.44809   0.00000  Uiso   1.00
O365   O     0.68090   0.16176   0.44810   0.00000  Uiso   1.00
O366   O     0.81910   0.17157   0.55190   0.00000  Uiso   1.00
Br367  Br    0.93578   0.08993   0.64659   0.00000  Uiso   1.00
Br368  Br    0.56422   0.24340   0.35341   0.00000  Uiso   1.00
C369   C     0.24864   0.39990   0.48443   0.00000  Uiso   1.00
C370   C     0.25136   0.60009   0.51557   0.00000  Uiso   1.00
C371   C     0.01597   0.45529   0.39162   0.00000  Uiso   1.00
C372   C     0.48403   0.54471   0.60838   0.00000  Uiso   1.00
C373   C     0.24798   0.34395   0.47564   0.00000  Uiso   1.00
C374   C     0.25202   0.65605   0.52436   0.00000  Uiso   1.00
C375   C     0.16437   0.49954   0.50058   0.00000  Uiso   1.00
C376   C     0.33563   0.50046   0.49942   0.00000  Uiso   1.00
C377   C     0.41099   0.52297   0.55305   0.00000  Uiso   1.00
C378   C     0.08901   0.47703   0.44695   0.00000  Uiso   1.00
C379   C     0.38398   0.50121   0.49864   0.00000  Uiso   1.00
C380   C     0.11602   0.49879   0.50136   0.00000  Uiso   1.00
C381   C     0.40312   0.47948   0.44428   0.00000  Uiso   1.00
C382   C     0.09688   0.52052   0.55572   0.00000  Uiso   1.00
C383   C     0.44954   0.47835   0.44398   0.00000  Uiso   1.00
C384   C     0.05046   0.52165   0.55602   0.00000  Uiso   1.00
C385   C     0.47668   0.50032   0.49941   0.00000  Uiso   1.00
C386   C     0.02332   0.49968   0.50059   0.00000  Uiso   1.00
C387   C     0.45720   0.52284   0.55381   0.00000  Uiso   1.00
C388   C     0.04280   0.47716   0.44619   0.00000  Uiso   1.00
C389   C     0.46959   0.45554   0.39011   0.00000  Uiso   1.00
C390   C     0.03041   0.54446   0.60989   0.00000  Uiso   1.00
Cu391  Cu    0.25501   0.50579   0.56146   0.00000  Uiso   1.00
Cu392  Cu    0.24500   0.49421   0.43854   0.00000  Uiso   1.00
H393   H     0.39602   0.54016   0.59499   0.00000  Uiso   1.00
H394   H     0.10398   0.45984   0.40501   0.00000  Uiso   1.00
H395   H     0.38149   0.46275   0.40288   0.00000  Uiso   1.00
H396   H     0.11851   0.53725   0.59712   0.00000  Uiso   1.00
H397   H     0.03109   0.43794   0.34991   0.00000  Uiso   1.00
H398   H     0.46891   0.56205   0.65009   0.00000  Uiso   1.00
H399   H     0.24417   0.65345   0.42869   0.00000  Uiso   1.00
H400   H     0.25583   0.34655   0.57131   0.00000  Uiso   1.00
H401   H     0.21498   0.45924   0.64942   0.00000  Uiso   1.00
H402   H     0.28502   0.54076   0.35058   0.00000  Uiso   1.00
N403   N     0.23745   0.48547   0.34617   0.00000  Uiso   1.00
N404   N     0.26256   0.51453   0.65383   0.00000  Uiso   1.00
O405   O     0.25326   0.42871   0.53992   0.00000  Uiso   1.00
O406   O     0.24675   0.57129   0.46008   0.00000  Uiso   1.00
O407   O     0.24480   0.41892   0.43612   0.00000  Uiso   1.00
O408   O     0.25520   0.58108   0.56388   0.00000  Uiso   1.00
O409   O     0.18936   0.50488   0.55191   0.00000  Uiso   1.00
O410   O     0.31065   0.49512   0.44809   0.00000  Uiso   1.00
O411   O     0.18090   0.49510   0.44810   0.00000  Uiso   1.00
O412   O     0.31910   0.50490   0.55190   0.00000  Uiso   1.00
Br413  Br    0.43578   0.42327   0.64659   0.00000  Uiso   1.00
Br414  Br    0.06422   0.57673   0.35341   0.00000  Uiso   1.00
C415   C     0.74864   0.39990   0.48443   0.00000  Uiso   1.00
C416   C     0.75136   0.60009   0.51557   0.00000  Uiso   1.00
C417   C     0.51597   0.45529   0.39162   0.00000  Uiso   1.00
C418   C     0.98403   0.54471   0.60838   0.00000  Uiso   1.00
C419   C     0.74798   0.34395   0.47564   0.00000  Uiso   1.00
C420   C     0.75202   0.65605   0.52436   0.00000  Uiso   1.00
C421   C     0.66437   0.49954   0.50058   0.00000  Uiso   1.00
C422   C     0.83563   0.50046   0.49942   0.00000  Uiso   1.00
C423   C     0.91099   0.52297   0.55305   0.00000  Uiso   1.00
C424   C     0.58901   0.47703   0.44695   0.00000  Uiso   1.00
C425   C     0.88398   0.50121   0.49864   0.00000  Uiso   1.00
C426   C     0.61602   0.49879   0.50136   0.00000  Uiso   1.00
C427   C     0.90312   0.47948   0.44428   0.00000  Uiso   1.00
C428   C     0.59688   0.52052   0.55572   0.00000  Uiso   1.00
C429   C     0.94954   0.47835   0.44398   0.00000  Uiso   1.00
C430   C     0.55046   0.52165   0.55602   0.00000  Uiso   1.00
C431   C     0.97668   0.50032   0.49941   0.00000  Uiso   1.00
C432   C     0.52332   0.49968   0.50059   0.00000  Uiso   1.00
C433   C     0.95720   0.52284   0.55381   0.00000  Uiso   1.00
C434   C     0.54280   0.47716   0.44619   0.00000  Uiso   1.00
C435   C     0.96959   0.45554   0.39011   0.00000  Uiso   1.00
C436   C     0.53041   0.54446   0.60989   0.00000  Uiso   1.00
Cu437  Cu    0.75501   0.50579   0.56146   0.00000  Uiso   1.00
Cu438  Cu    0.74500   0.49421   0.43854   0.00000  Uiso   1.00
H439   H     0.89602   0.54016   0.59499   0.00000  Uiso   1.00
H440   H     0.60398   0.45984   0.40501   0.00000  Uiso   1.00
H441   H     0.88149   0.46275   0.40288   0.00000  Uiso   1.00
H442   H     0.61851   0.53725   0.59712   0.00000  Uiso   1.00
H443   H     0.53109   0.43794   0.34991   0.00000  Uiso   1.00
H444   H     0.96891   0.56205   0.65009   0.00000  Uiso   1.00
H445   H     0.74417   0.65345   0.42869   0.00000  Uiso   1.00
H446   H     0.75583   0.34655   0.57131   0.00000  Uiso   1.00
H447   H     0.71498   0.45924   0.64942   0.00000  Uiso   1.00
H448   H     0.78502   0.54076   0.35058   0.00000  Uiso   1.00
N449   N     0.73745   0.48547   0.34617   0.00000  Uiso   1.00
N450   N     0.76256   0.51453   0.65383   0.00000  Uiso   1.00
O451   O     0.75326   0.42871   0.53992   0.00000  Uiso   1.00
O452   O     0.74675   0.57129   0.46008   0.00000  Uiso   1.00
O453   O     0.74480   0.41892   0.43612   0.00000  Uiso   1.00
O454   O     0.75520   0.58108   0.56388   0.00000  Uiso   1.00
O455   O     0.68936   0.50488   0.55191   0.00000  Uiso   1.00
O456   O     0.81065   0.49512   0.44809   0.00000  Uiso   1.00
O457   O     0.68090   0.49510   0.44810   0.00000  Uiso   1.00
O458   O     0.81910   0.50490   0.55190   0.00000  Uiso   1.00
Br459  Br    0.93578   0.42327   0.64659   0.00000  Uiso   1.00
Br460  Br    0.56422   0.57673   0.35341   0.00000  Uiso   1.00
C461   C     0.24864   0.73324   0.48443   0.00000  Uiso   1.00
C462   C     0.25136   0.93343   0.51557   0.00000  Uiso   1.00
C463   C     0.01597   0.78863   0.39162   0.00000  Uiso   1.00
C464   C     0.48403   0.87804   0.60838   0.00000  Uiso   1.00
C465   C     0.24798   0.67729   0.47564   0.00000  Uiso   1.00
C466   C     0.25202   0.98938   0.52436   0.00000  Uiso   1.00
C467   C     0.16437   0.83287   0.50058   0.00000  Uiso   1.00
C468   C     0.33563   0.83379   0.49942   0.00000  Uiso   1.00
C469   C     0.41099   0.85630   0.55305   0.00000  Uiso   1.00
C470   C     0.08901   0.81036   0.44695   0.00000  Uiso   1.00
C471   C     0.38398   0.83454   0.49864   0.00000  Uiso   1.00
C472   C     0.11602   0.83213   0.50136   0.00000  Uiso   1.00
C473   C     0.40312   0.81281   0.44428   0.00000  Uiso   1.00
C474   C     0.09688   0.85386   0.55572   0.00000  Uiso   1.00
C475   C     0.44954   0.81168   0.44398   0.00000  Uiso   1.00
C476   C     0.05046   0.85499   0.55602   0.00000  Uiso   1.00
C477   C     0.47668   0.83366   0.49941   0.00000  Uiso   1.00
C478   C     0.02332   0.83301   0.50059   0.00000  Uiso   1.00
C479   C     0.45720   0.85618   0.55381   0.00000  Uiso   1.00
C480   C     0.04280   0.81049   0.44619   0.00000  Uiso   1.00
C481   C     0.46959   0.78887   0.39011   0.00000  Uiso   1.00
C482   C     0.03041   0.87779   0.60989   0.00000  Uiso   1.00
Cu483  Cu    0.25501   0.83913   0.56146   0.00000  Uiso   1.00
Cu484  Cu    0.24500   0.82754   0.43854   0.00000  Uiso   1.00
H485   H     0.39602   0.87349   0.59499   0.00000  Uiso   1.00
H486   H     0.10398   0.79318   0.40501   0.00000  Uiso   1.00
H487   H     0.38149   0.79609   0.40288   0.00000  Uiso   1.00
H488   H     0.11851   0.87058   0.59712   0.00000  Uiso   1.00
H489   H     0.03109   0.77128   0.34991   0.00000  Uiso   1.00
H490   H     0.46891   0.89539   0.65009   0.00000  Uiso   1.00
H491   H     0.24417   0.98678   0.42869   0.00000  Uiso   1.00
H492   H     0.25583   0.67988   0.57131   0.00000  Uiso   1.00
H493   H     0.21498   0.79258   0.64942   0.00000  Uiso   1.00
H494   H     0.28502   0.87409   0.35058   0.00000  Uiso   1.00
N495   N     0.23745   0.81881   0.34617   0.00000  Uiso   1.00
N496   N     0.26256   0.84786   0.65383   0.00000  Uiso   1.00
O497   O     0.25326   0.76204   0.53992   0.00000  Uiso   1.00
O498   O     0.24675   0.90462   0.46008   0.00000  Uiso   1.00
O499   O     0.24480   0.75226   0.43612   0.00000  Uiso   1.00
O500   O     0.25520   0.91441   0.56388   0.00000  Uiso   1.00
O501   O     0.18936   0.83821   0.55191   0.00000  Uiso   1.00
O502   O     0.31065   0.82845   0.44809   0.00000  Uiso   1.00
O503   O     0.18090   0.82843   0.44810   0.00000  Uiso   1.00
O504   O     0.31910   0.83824   0.55190   0.00000  Uiso   1.00
Br505  Br    0.43578   0.75660   0.64659   0.00000  Uiso   1.00
Br506  Br    0.06422   0.91006   0.35341   0.00000  Uiso   1.00
C507   C     0.74864   0.73324   0.48443   0.00000  Uiso   1.00
C508   C     0.75136   0.93343   0.51557   0.00000  Uiso   1.00
C509   C     0.51597   0.78863   0.39162   0.00000  Uiso   1.00
C510   C     0.98403   0.87804   0.60838   0.00000  Uiso   1.00
C511   C     0.74798   0.67729   0.47564   0.00000  Uiso   1.00
C512   C     0.75202   0.98938   0.52436   0.00000  Uiso   1.00
C513   C     0.66437   0.83287   0.50058   0.00000  Uiso   1.00
C514   C     0.83563   0.83379   0.49942   0.00000  Uiso   1.00
C515   C     0.91099   0.85630   0.55305   0.00000  Uiso   1.00
C516   C     0.58901   0.81036   0.44695   0.00000  Uiso   1.00
C517   C     0.88398   0.83454   0.49864   0.00000  Uiso   1.00
C518   C     0.61602   0.83213   0.50136   0.00000  Uiso   1.00
C519   C     0.90312   0.81281   0.44428   0.00000  Uiso   1.00
C520   C     0.59688   0.85386   0.55572   0.00000  Uiso   1.00
C521   C     0.94954   0.81168   0.44398   0.00000  Uiso   1.00
C522   C     0.55046   0.85499   0.55602   0.00000  Uiso   1.00
C523   C     0.97668   0.83366   0.49941   0.00000  Uiso   1.00
C524   C     0.52332   0.83301   0.50059   0.00000  Uiso   1.00
C525   C     0.95720   0.85618   0.55381   0.00000  Uiso   1.00
C526   C     0.54280   0.81049   0.44619   0.00000  Uiso   1.00
C527   C     0.96959   0.78887   0.39011   0.00000  Uiso   1.00
C528   C     0.53041   0.87779   0.60989   0.00000  Uiso   1.00
Cu529  Cu    0.75501   0.83913   0.56146   0.00000  Uiso   1.00
Cu530  Cu    0.74500   0.82754   0.43854   0.00000  Uiso   1.00
H531   H     0.89602   0.87349   0.59499   0.00000  Uiso   1.00
H532   H     0.60398   0.79318   0.40501   0.00000  Uiso   1.00
H533   H     0.88149   0.79609   0.40288   0.00000  Uiso   1.00
H534   H     0.61851   0.87058   0.59712   0.00000  Uiso   1.00
H535   H     0.53109   0.77128   0.34991   0.00000  Uiso   1.00
H536   H     0.96891   0.89539   0.65009   0.00000  Uiso   1.00
H537   H     0.74417   0.98678   0.42869   0.00000  Uiso   1.00
H538   H     0.75583   0.67988   0.57131   0.00000  Uiso   1.00
H539   H     0.71498   0.79258   0.64942   0.00000  Uiso   1.00
H540   H     0.78502   0.87409   0.35058   0.00000  Uiso   1.00
N541   N     0.73745   0.81881   0.34617   0.00000  Uiso   1.00
N542   N     0.76256   0.84786   0.65383   0.00000  Uiso   1.00
O543   O     0.75326   0.76204   0.53992   0.00000  Uiso   1.00
O544   O     0.74675   0.90462   0.46008   0.00000  Uiso   1.00
O545   O     0.74480   0.75226   0.43612   0.00000  Uiso   1.00
O546   O     0.75520   0.91441   0.56388   0.00000  Uiso   1.00
O547   O     0.68936   0.83821   0.55191   0.00000  Uiso   1.00
O548   O     0.81065   0.82845   0.44809   0.00000  Uiso   1.00
O549   O     0.68090   0.82843   0.44810   0.00000  Uiso   1.00
O550   O     0.81910   0.83824   0.55190   0.00000  Uiso   1.00
Br551  Br    0.93578   0.75660   0.64659   0.00000  Uiso   1.00
Br552  Br    0.56422   0.91006   0.35341   0.00000  Uiso   1.00
C553   C     0.24864   0.06657   0.81776   0.00000  Uiso   1.00
C554   C     0.25136   0.26676   0.84891   0.00000  Uiso   1.00
C555   C     0.01597   0.12196   0.72496   0.00000  Uiso   1.00
C556   C     0.48403   0.21137   0.94171   0.00000  Uiso   1.00
C557   C     0.24798   0.01062   0.80898   0.00000  Uiso   1.00
C558   C     0.25202   0.32271   0.85769   0.00000  Uiso   1.00
C559   C     0.16437   0.16621   0.83392   0.00000  Uiso   1.00
C560   C     0.33563   0.16713   0.83275   0.00000  Uiso   1.00
C561   C     0.41099   0.18964   0.88639   0.00000  Uiso   1.00
C562   C     0.08901   0.14369   0.78028   0.00000  Uiso   1.00
C563   C     0.38398   0.16787   0.83197   0.00000  Uiso   1.00
C564   C     0.11602   0.16546   0.83470   0.00000  Uiso   1.00
C565   C     0.40312   0.14614   0.77762   0.00000  Uiso   1.00
C566   C     0.09688   0.18719   0.88905   0.00000  Uiso   1.00
C567   C     0.44954   0.14501   0.77732   0.00000  Uiso   1.00
C568   C     0.05046   0.18832   0.88935   0.00000  Uiso   1.00
C569   C     0.47668   0.16699   0.83274   0.00000  Uiso   1.00
C570   C     0.02332   0.16634   0.83393   0.00000  Uiso   1.00
C571   C     0.45720   0.18951   0.88714   0.00000  Uiso   1.00
C572   C     0.04280   0.14382   0.77952   0.00000  Uiso   1.00
C573   C     0.46959   0.12221   0.72344   0.00000  Uiso   1.00
C574   C     0.03041   0.21113   0.94323   0.00000  Uiso   1.00
Cu575  Cu    0.25501   0.17246   0.89479   0.00000  Uiso   1.00
Cu576  Cu    0.24500   0.16087   0.77187   0.00000  Uiso   1.00
H577   H     0.39602   0.20682   0.92832   0.00000  Uiso   1.00
H578   H     0.10398   0.12651   0.73835   0.00000  Uiso   1.00
H579   H     0.38149   0.12942   0.73621   0.00000  Uiso   1.00
H580   H     0.11851   0.20391   0.93045   0.00000  Uiso   1.00
H581   H     0.03109   0.10461   0.68324   0.00000  Uiso   1.00
H582   H     0.46891   0.22872   0.98343   0.00000  Uiso   1.00
H583   H     0.24417   0.32012   0.76202   0.00000  Uiso   1.00
H584   H     0.25583   0.01322   0.90465   0.00000  Uiso   1.00
H585   H     0.21498   0.12591   0.98275   0.00000  Uiso   1.00
H586   H     0.28502   0.20742   0.68392   0.00000  Uiso   1.00
N587   N     0.23745   0.15214   0.67951   0.00000  Uiso   1.00
N588   N     0.26256   0.18119   0.98716   0.00000  Uiso   1.00
O589   O     0.25326   0.09538   0.87326   0.00000  Uiso   1.00
O590   O     0.24675   0.23796   0.79341   0.00000  Uiso   1.00
O591   O     0.24480   0.08559   0.76945   0.00000  Uiso   1.00
O592   O     0.25520   0.24774   0.89721   0.00000  Uiso   1.00
O593   O     0.18936   0.17155   0.88524   0.00000  Uiso   1.00
O594   O     0.31065   0.16179   0.78143   0.00000  Uiso   1.00
O595   O     0.18090   0.16176   0.78143   0.00000  Uiso   1.00
O596   O     0.31910   0.17157   0.88523   0.00000  Uiso   1.00
Br597  Br    0.43578   0.08993   0.97992   0.00000  Uiso   1.00
Br598  Br    0.06422   0.24340   0.68675   0.00000  Uiso   1.00
C599   C     0.74864   0.06657   0.81776   0.00000  Uiso   1.00
C600   C     0.75136   0.26676   0.84891   0.00000  Uiso   1.00
C601   C     0.51597   0.12196   0.72496   0.00000  Uiso   1.00
C602   C     0.98403   0.21137   0.94171   0.00000  Uiso   1.00
C603   C     0.74798   0.01062   0.80898   0.00000  Uiso   1.00
C604   C     0.75202   0.32271   0.85769   0.00000  Uiso   1.00
C605   C     0.66437   0.16621   0.83392   0.00000  Uiso   1.00
C606   C     0.83563   0.16713   0.83275   0.00000  Uiso   1.00
C607   C     0.91099   0.18964   0.88639   0.00000  Uiso   1.00
C608   C     0.58901   0.14369   0.78028   0.00000  Uiso   1.00
C609   C     0.88398   0.16787   0.83197   0.00000  Uiso   1.00
C610   C     0.61602   0.16546   0.83470   0.00000  Uiso   1.00
C611   C     0.90312   0.14614   0.77762   0.00000  Uiso   1.00
C612   C     0.59688   0.18719   0.88905   0.00000  Uiso   1.00
C613   C     0.94954   0.14501   0.77732   0.00000  Uiso   1.00
C614   C     0.55046   0.18832   0.88935   0.00000  Uiso   1.00
C615   C     0.97668   0.16699   0.83274   0.00000  Uiso   1.00
C616   C     0.52332   0.16634   0.83393   0.00000  Uiso   1.00
C617   C     0.95720   0.18951   0.88714   0.00000  Uiso   1.00
C618   C     0.54280   0.14382   0.77952   0.00000  Uiso   1.00
C619   C     0.96959   0.12221   0.72344   0.00000  Uiso   1.00
C620   C     0.53041   0.21113   0.94323   0.00000  Uiso   1.00
Cu621  Cu    0.75501   0.17246   0.89479   0.00000  Uiso   1.00
Cu622  Cu    0.74500   0.16087   0.77187   0.00000  Uiso   1.00
H623   H     0.89602   0.20682   0.92832   0.00000  Uiso   1.00
H624   H     0.60398   0.12651   0.73835   0.00000  Uiso   1.00
H625   H     0.88149   0.12942   0.73621   0.00000  Uiso   1.00
H626   H     0.61851   0.20391   0.93045   0.00000  Uiso   1.00
H627   H     0.53109   0.10461   0.68324   0.00000  Uiso   1.00
H628   H     0.96891   0.22872   0.98343   0.00000  Uiso   1.00
H629   H     0.74417   0.32012   0.76202   0.00000  Uiso   1.00
H630   H     0.75583   0.01322   0.90465   0.00000  Uiso   1.00
H631   H     0.71498   0.12591   0.98275   0.00000  Uiso   1.00
H632   H     0.78502   0.20742   0.68392   0.00000  Uiso   1.00
N633   N     0.73745   0.15214   0.67951   0.00000  Uiso   1.00
N634   N     0.76256   0.18119   0.98716   0.00000  Uiso   1.00
O635   O     0.75326   0.09538   0.87326   0.00000  Uiso   1.00
O636   O     0.74675   0.23796   0.79341   0.00000  Uiso   1.00
O637   O     0.74480   0.08559   0.76945   0.00000  Uiso   1.00
O638   O     0.75520   0.24774   0.89721   0.00000  Uiso   1.00
O639   O     0.68936   0.17155   0.88524   0.00000  Uiso   1.00
O640   O     0.81065   0.16179   0.78143   0.00000  Uiso   1.00
O641   O     0.68090   0.16176   0.78143   0.00000  Uiso   1.00
O642   O     0.81910   0.17157   0.88523   0.00000  Uiso   1.00
Br643  Br    0.93578   0.08993   0.97992   0.00000  Uiso   1.00
Br644  Br    0.56422   0.24340   0.68675   0.00000  Uiso   1.00
C645   C     0.24864   0.39990   0.81776   0.00000  Uiso   1.00
C646   C     0.25136   0.60009   0.84891   0.00000  Uiso   1.00
C647   C     0.01597   0.45529   0.72496   0.00000  Uiso   1.00
C648   C     0.48403   0.54471   0.94171   0.00000  Uiso   1.00
C649   C     0.24798   0.34395   0.80898   0.00000  Uiso   1.00
C650   C     0.25202   0.65605   0.85769   0.00000  Uiso   1.00
C651   C     0.16437   0.49954   0.83392   0.00000  Uiso   1.00
C652   C     0.33563   0.50046   0.83275   0.00000  Uiso   1.00
C653   C     0.41099   0.52297   0.88639   0.00000  Uiso   1.00
C654   C     0.08901   0.47703   0.78028   0.00000  Uiso   1.00
C655   C     0.38398   0.50121   0.83197   0.00000  Uiso   1.00
C656   C     0.11602   0.49879   0.83470   0.00000  Uiso   1.00
C657   C     0.40312   0.47948   0.77762   0.00000  Uiso   1.00
C658   C     0.09688   0.52052   0.88905   0.00000  Uiso   1.00
C659   C     0.44954   0.47835   0.77732   0.00000  Uiso   1.00
C660   C     0.05046   0.52165   0.88935   0.00000  Uiso   1.00
C661   C     0.47668   0.50032   0.83274   0.00000  Uiso   1.00
C662   C     0.02332   0.49968   0.83393   0.00000  Uiso   1.00
C663   C     0.45720   0.52284   0.88714   0.00000  Uiso   1.00
C664   C     0.04280   0.47716   0.77952   0.00000  Uiso   1.00
C665   C     0.46959   0.45554   0.72344   0.00000  Uiso   1.00
C666   C     0.03041   0.54446   0.94323   0.00000  Uiso   1.00
Cu667  Cu    0.25501   0.50579   0.89479   0.00000  Uiso   1.00
Cu668  Cu    0.24500   0.49421   0.77187   0.00000  Uiso   1.00
H669   H     0.39602   0.54016   0.92832   0.00000  Uiso   1.00
H670   H     0.10398   0.45984   0.73835   0.00000  Uiso   1.00
H671   H     0.38149   0.46275   0.73621   0.00000  Uiso   1.00
H672   H     0.11851   0.53725   0.93045   0.00000  Uiso   1.00
H673   H     0.03109   0.43794   0.68324   0.00000  Uiso   1.00
H674   H     0.46891   0.56205   0.98343   0.00000  Uiso   1.00
H675   H     0.24417   0.65345   0.76202   0.00000  Uiso   1.00
H676   H     0.25583   0.34655   0.90465   0.00000  Uiso   1.00
H677   H     0.21498   0.45924   0.98275   0.00000  Uiso   1.00
H678   H     0.28502   0.54076   0.68392   0.00000  Uiso   1.00
N679   N     0.23745   0.48547   0.67951   0.00000  Uiso   1.00
N680   N     0.26256   0.51453   0.98716   0.00000  Uiso   1.00
O681   O     0.25326   0.42871   0.87326   0.00000  Uiso   1.00
O682   O     0.24675   0.57129   0.79341   0.00000  Uiso   1.00
O683   O     0.24480   0.41892   0.76945   0.00000  Uiso   1.00
O684   O     0.25520   0.58108   0.89721   0.00000  Uiso   1.00
O685   O     0.18936   0.50488   0.88524   0.00000  Uiso   1.00
O686   O     0.31065   0.49512   0.78143   0.00000  Uiso   1.00
O687   O     0.18090   0.49510   0.78143   0.00000  Uiso   1.00
O688   O     0.31910   0.50490   0.88523   0.00000  Uiso   1.00
Br689  Br    0.43578   0.42327   0.97992   0.00000  Uiso   1.00
Br690  Br    0.06422   0.57673   0.68675   0.00000  Uiso   1.00
C691   C     0.74864   0.39990   0.81776   0.00000  Uiso   1.00
C692   C     0.75136   0.60009   0.84891   0.00000  Uiso   1.00
C693   C     0.51597   0.45529   0.72496   0.00000  Uiso   1.00
C694   C     0.98403   0.54471   0.94171   0.00000  Uiso   1.00
C695   C     0.74798   0.34395   0.80898   0.00000  Uiso   1.00
C696   C     0.75202   0.65605   0.85769   0.00000  Uiso   1.00
C697   C     0.66437   0.49954   0.83392   0.00000  Uiso   1.00
C698   C     0.83563   0.50046   0.83275   0.00000  Uiso   1.00
C699   C     0.91099   0.52297   0.88639   0.00000  Uiso   1.00
C700   C     0.58901   0.47703   0.78028   0.00000  Uiso   1.00
C701   C     0.88398   0.50121   0.83197   0.00000  Uiso   1.00
C702   C     0.61602   0.49879   0.83470   0.00000  Uiso   1.00
C703   C     0.90312   0.47948   0.77762   0.00000  Uiso   1.00
C704   C     0.59688   0.52052   0.88905   0.00000  Uiso   1.00
C705   C     0.94954   0.47835   0.77732   0.00000  Uiso   1.00
C706   C     0.55046   0.52165   0.88935   0.00000  Uiso   1.00
C707   C     0.97668   0.50032   0.83274   0.00000  Uiso   1.00
C708   C     0.52332   0.49968   0.83393   0.00000  Uiso   1.00
C709   C     0.95720   0.52284   0.88714   0.00000  Uiso   1.00
C710   C     0.54280   0.47716   0.77952   0.00000  Uiso   1.00
C711   C     0.96959   0.45554   0.72344   0.00000  Uiso   1.00
C712   C     0.53041   0.54446   0.94323   0.00000  Uiso   1.00
Cu713  Cu    0.75501   0.50579   0.89479   0.00000  Uiso   1.00
Cu714  Cu    0.74500   0.49421   0.77187   0.00000  Uiso   1.00
H715   H     0.89602   0.54016   0.92832   0.00000  Uiso   1.00
H716   H     0.60398   0.45984   0.73835   0.00000  Uiso   1.00
H717   H     0.88149   0.46275   0.73621   0.00000  Uiso   1.00
H718   H     0.61851   0.53725   0.93045   0.00000  Uiso   1.00
H719   H     0.53109   0.43794   0.68324   0.00000  Uiso   1.00
H720   H     0.96891   0.56205   0.98343   0.00000  Uiso   1.00
H721   H     0.74417   0.65345   0.76202   0.00000  Uiso   1.00
H722   H     0.75583   0.34655   0.90465   0.00000  Uiso   1.00
H723   H     0.71498   0.45924   0.98275   0.00000  Uiso   1.00
H724   H     0.78502   0.54076   0.68392   0.00000  Uiso   1.00
N725   N     0.73745   0.48547   0.67951   0.00000  Uiso   1.00
N726   N     0.76256   0.51453   0.98716   0.00000  Uiso   1.00
O727   O     0.75326   0.42871   0.87326   0.00000  Uiso   1.00
O728   O     0.74675   0.57129   0.79341   0.00000  Uiso   1.00
O729   O     0.74480   0.41892   0.76945   0.00000  Uiso   1.00
O730   O     0.75520   0.58108   0.89721   0.00000  Uiso   1.00
O731   O     0.68936   0.50488   0.88524   0.00000  Uiso   1.00
O732   O     0.81065   0.49512   0.78143   0.00000  Uiso   1.00
O733   O     0.68090   0.49510   0.78143   0.00000  Uiso   1.00
O734   O     0.81910   0.50490   0.88523   0.00000  Uiso   1.00
Br735  Br    0.93578   0.42327   0.97992   0.00000  Uiso   1.00
Br736  Br    0.56422   0.57673   0.68675   0.00000  Uiso   1.00
C737   C     0.24864   0.73324   0.81776   0.00000  Uiso   1.00
C738   C     0.25136   0.93343   0.84891   0.00000  Uiso   1.00
C739   C     0.01597   0.78863   0.72496   0.00000  Uiso   1.00
C740   C     0.48403   0.87804   0.94171   0.00000  Uiso   1.00
C741   C     0.24798   0.67729   0.80898   0.00000  Uiso   1.00
C742   C     0.25202   0.98938   0.85769   0.00000  Uiso   1.00
C743   C     0.16437   0.83287   0.83392   0.00000  Uiso   1.00
C744   C     0.33563   0.83379   0.83275   0.00000  Uiso   1.00
C745   C     0.41099   0.85630   0.88639   0.00000  Uiso   1.00
C746   C     0.08901   0.81036   0.78028   0.00000  Uiso   1.00
C747   C     0.38398   0.83454   0.83197   0.00000  Uiso   1.00
C748   C     0.11602   0.83213   0.83470   0.00000  Uiso   1.00
C749   C     0.40312   0.81281   0.77762   0.00000  Uiso   1.00
C750   C     0.09688   0.85386   0.88905   0.00000  Uiso   1.00
C751   C     0.44954   0.81168   0.77732   0.00000  Uiso   1.00
C752   C     0.05046   0.85499   0.88935   0.00000  Uiso   1.00
C753   C     0.47668   0.83366   0.83274   0.00000  Uiso   1.00
C754   C     0.02332   0.83301   0.83393   0.00000  Uiso   1.00
C755   C     0.45720   0.85618   0.88714   0.00000  Uiso   1.00
C756   C     0.04280   0.81049   0.77952   0.00000  Uiso   1.00
C757   C     0.46959   0.78887   0.72344   0.00000  Uiso   1.00
C758   C     0.03041   0.87779   0.94323   0.00000  Uiso   1.00
Cu759  Cu    0.25501   0.83913   0.89479   0.00000  Uiso   1.00
Cu760  Cu    0.24500   0.82754   0.77187   0.00000  Uiso   1.00
H761   H     0.39602   0.87349   0.92832   0.00000  Uiso   1.00
H762   H     0.10398   0.79318   0.73835   0.00000  Uiso   1.00
H763   H     0.38149   0.79609   0.73621   0.00000  Uiso   1.00
H764   H     0.11851   0.87058   0.93045   0.00000  Uiso   1.00
H765   H     0.03109   0.77128   0.68324   0.00000  Uiso   1.00
H766   H     0.46891   0.89539   0.98343   0.00000  Uiso   1.00
H767   H     0.24417   0.98678   0.76202   0.00000  Uiso   1.00
H768   H     0.25583   0.67988   0.90465   0.00000  Uiso   1.00
H769   H     0.21498   0.79258   0.98275   0.00000  Uiso   1.00
H770   H     0.28502   0.87409   0.68392   0.00000  Uiso   1.00
N771   N     0.23745   0.81881   0.67951   0.00000  Uiso   1.00
N772   N     0.26256   0.84786   0.98716   0.00000  Uiso   1.00
O773   O     0.25326   0.76204   0.87326   0.00000  Uiso   1.00
O774   O     0.24675   0.90462   0.79341   0.00000  Uiso   1.00
O775   O     0.24480   0.75226   0.76945   0.00000  Uiso   1.00
O776   O     0.25520   0.91441   0.89721   0.00000  Uiso   1.00
O777   O     0.18936   0.83821   0.88524   0.00000  Uiso   1.00
O778   O     0.31065   0.82845   0.78143   0.00000  Uiso   1.00
O779   O     0.18090   0.82843   0.78143   0.00000  Uiso   1.00
O780   O     0.31910   0.83824   0.88523   0.00000  Uiso   1.00
Br781  Br    0.43578   0.75660   0.97992   0.00000  Uiso   1.00
Br782  Br    0.06422   0.91006   0.68675   0.00000  Uiso   1.00
C783   C     0.74864   0.73324   0.81776   0.00000  Uiso   1.00
C784   C     0.75136   0.93343   0.84891   0.00000  Uiso   1.00
C785   C     0.51597   0.78863   0.72496   0.00000  Uiso   1.00
C786   C     0.98403   0.87804   0.94171   0.00000  Uiso   1.00
C787   C     0.74798   0.67729   0.80898   0.00000  Uiso   1.00
C788   C     0.75202   0.98938   0.85769   0.00000  Uiso   1.00
C789   C     0.66437   0.83287   0.83392   0.00000  Uiso   1.00
C790   C     0.83563   0.83379   0.83275   0.00000  Uiso   1.00
C791   C     0.91099   0.85630   0.88639   0.00000  Uiso   1.00
C792   C     0.58901   0.81036   0.78028   0.00000  Uiso   1.00
C793   C     0.88398   0.83454   0.83197   0.00000  Uiso   1.00
C794   C     0.61602   0.83213   0.83470   0.00000  Uiso   1.00
C795   C     0.90312   0.81281   0.77762   0.00000  Uiso   1.00
C796   C     0.59688   0.85386   0.88905   0.00000  Uiso   1.00
C797   C     0.94954   0.81168   0.77732   0.00000  Uiso   1.00
C798   C     0.55046   0.85499   0.88935   0.00000  Uiso   1.00
C799   C     0.97668   0.83366   0.83274   0.00000  Uiso   1.00
C800   C     0.52332   0.83301   0.83393   0.00000  Uiso   1.00
C801   C     0.95720   0.85618   0.88714   0.00000  Uiso   1.00
C802   C     0.54280   0.81049   0.77952   0.00000  Uiso   1.00
C803   C     0.96959   0.78887   0.72344   0.00000  Uiso   1.00
C804   C     0.53041   0.87779   0.94323   0.00000  Uiso   1.00
Cu805  Cu    0.75501   0.83913   0.89479   0.00000  Uiso   1.00
Cu806  Cu    0.74500   0.82754   0.77187   0.00000  Uiso   1.00
H807   H     0.89602   0.87349   0.92832   0.00000  Uiso   1.00
H808   H     0.60398   0.79318   0.73835   0.00000  Uiso   1.00
H809   H     0.88149   0.79609   0.73621   0.00000  Uiso   1.00
H810   H     0.61851   0.87058   0.93045   0.00000  Uiso   1.00
H811   H     0.53109   0.77128   0.68324   0.00000  Uiso   1.00
H812   H     0.96891   0.89539   0.98343   0.00000  Uiso   1.00
H813   H     0.74417   0.98678   0.76202   0.00000  Uiso   1.00
H814   H     0.75583   0.67988   0.90465   0.00000  Uiso   1.00
H815   H     0.71498   0.79258   0.98275   0.00000  Uiso   1.00
H816   H     0.78502   0.87409   0.68392   0.00000  Uiso   1.00
N817   N     0.73745   0.81881   0.67951   0.00000  Uiso   1.00
N818   N     0.76256   0.84786   0.98716   0.00000  Uiso   1.00
O819   O     0.75326   0.76204   0.87326   0.00000  Uiso   1.00
O820   O     0.74675   0.90462   0.79341   0.00000  Uiso   1.00
O821   O     0.74480   0.75226   0.76945   0.00000  Uiso   1.00
O822   O     0.75520   0.91441   0.89721   0.00000  Uiso   1.00
O823   O     0.68936   0.83821   0.88524   0.00000  Uiso   1.00
O824   O     0.81065   0.82845   0.78143   0.00000  Uiso   1.00
O825   O     0.68090   0.82843   0.78143   0.00000  Uiso   1.00
O826   O     0.81910   0.83824   0.88523   0.00000  Uiso   1.00
Br827  Br    0.93578   0.75660   0.97992   0.00000  Uiso   1.00
Br828  Br    0.56422   0.91006   0.68675   0.00000  Uiso   1.00
loop_
_geom_bond_atom_site_label_1
_geom_bond_atom_site_label_2
_geom_bond_distance
_geom_bond_site_symmetry_2
_ccdc_geom_bond_type
C1     O37     1.292   .     A
C1     C5      1.426   .     S
C1     O39     1.283   .     A
C2     O38     1.292   .     A
C2     C6      1.426   .     S
C2     O40     1.283   .     A
C3     C20     1.399   .     A
C3     H29     1.084   .     S
C3     C67     1.393   1_455 S
C4     C19     1.399   .     A
C4     H30     1.084   .     S
C4     C68     1.393   .     S
C5     C190    1.326   1_545 S
C5     H215    1.088   1_545 S
C6     C97     1.326   .     S
C6     H124    1.088   .     S
C7     O43     1.292   .     A
C7     O41     1.298   .     A
C7     C12     1.455   .     S
C8     O42     1.298   .     A
C8     C11     1.455   .     S
C8     O44     1.292   .     A
C9     C11     1.399   .     A
C9     H25     1.085   .     S
C9     C19     1.389   .     A
C10    H26     1.085   .     S
C10    C12     1.399   .     A
C10    C20     1.389   .     A
C11    C13     1.399   .     A
C12    C14     1.399   .     A
C13    C15     1.399   .     A
C13    H27     1.082   .     S
C14    H28     1.082   .     S
C14    C16     1.399   .     A
C15    C17     1.419   .     A
C15    C21     1.411   .     A
C16    C18     1.419   .     A
C16    C22     1.411   .     A
C17    C19     1.410   .     A
C17    C64     1.402   .     S
C18    C20     1.410   .     A
C18    C63     1.402   1_455 S
C21    C49     1.393   .     S
C21    Br597   1.923   1_554 S
C22    C50     1.393   1_455 S
C22    Br322   1.923   .     S
Cu23   Cu24    2.686   .     S
Cu23   O41     1.968   .     S
Cu23   O40     1.949   .     S
Cu23   N36     2.018   .     S
Cu23   O37     1.955   .     S
Cu23   O44     1.957   .     S
Cu24   O38     1.955   .     S
Cu24   N35     2.018   .     S
Cu24   O39     1.949   .     S
Cu24   O42     1.968   .     S
Cu24   O43     1.957   .     S
H31    C97     1.088   .     S
H32    C190    1.088   1_545 S
H33    N311    1.029   .     S
H34    N588    1.029   1_554 S
N35    H585    1.029   1_554 S
N35    N588    1.297   1_554 S
N36    N311    1.297   .     S
N36    H310    1.029   .     S
Br45   C297    1.923   .     S
Br46   C574    1.923   1_554 S
C47    O83     1.292   .     A
C47    C51     1.426   .     S
C47    O85     1.283   .     A
C48    O84     1.292   .     A
C48    C52     1.426   .     S
C48    O86     1.283   .     A
C49    C66     1.399   .     A
C49    H75     1.084   .     S
C50    C65     1.399   .     A
C50    H76     1.084   .     S
C50    C22     1.393   1_655 S
C51    C236    1.326   1_545 S
C51    H261    1.088   1_545 S
C52    C143    1.326   .     S
C52    H170    1.088   .     S
C53    O89     1.292   .     A
C53    O87     1.298   .     A
C53    C58     1.455   .     S
C54    O88     1.298   .     A
C54    C57     1.455   .     S
C54    O90     1.292   .     A
C55    C57     1.399   .     A
C55    H71     1.085   .     S
C55    C65     1.389   .     A
C56    H72     1.085   .     S
C56    C58     1.399   .     A
C56    C66     1.389   .     A
C57    C59     1.399   .     A
C58    C60     1.399   .     A
C59    C61     1.399   .     A
C59    H73     1.082   .     S
C60    H74     1.082   .     S
C60    C62     1.399   .     A
C61    C63     1.419   .     A
C61    C67     1.411   .     A
C62    C64     1.419   .     A
C62    C68     1.411   .     A
C63    C65     1.410   .     A
C63    C18     1.402   1_655 S
C64    C66     1.410   .     A
C67    C3      1.393   1_655 S
C67    Br643   1.923   1_554 S
C68    Br368   1.923   .     S
Cu69   Cu70    2.686   .     S
Cu69   O87     1.968   .     S
Cu69   O86     1.949   .     S
Cu69   N82     2.018   .     S
Cu69   O83     1.955   .     S
Cu69   O90     1.957   .     S
Cu70   O84     1.955   .     S
Cu70   N81     2.018   .     S
Cu70   O85     1.949   .     S
Cu70   O88     1.968   .     S
Cu70   O89     1.957   .     S
H77    C143    1.088   .     S
H78    C236    1.088   1_545 S
H79    N357    1.029   .     S
H80    N634    1.029   1_554 S
N81    H631    1.029   1_554 S
N81    N634    1.297   1_554 S
N82    N357    1.297   .     S
N82    H356    1.029   .     S
Br91   C343    1.923   .     S
Br92   C620    1.923   1_554 S
C93    O129    1.292   .     A
C93    C97     1.426   .     S
C93    O131    1.283   .     A
C94    O130    1.292   .     A
C94    C98     1.426   .     S
C94    O132    1.283   .     A
C95    C112    1.399   .     A
C95    H121    1.084   .     S
C95    C159    1.393   1_455 S
C96    C111    1.399   .     A
C96    H122    1.084   .     S
C96    C160    1.393   .     S
C98    C189    1.326   .     S
C98    H216    1.088   .     S
C99    O135    1.292   .     A
C99    O133    1.298   .     A
C99    C104    1.455   .     S
C100   O134    1.298   .     A
C100   C103    1.455   .     S
C100   O136    1.292   .     A
C101   C103    1.399   .     A
C101   H117    1.085   .     S
C101   C111    1.389   .     A
C102   H118    1.085   .     S
C102   C104    1.399   .     A
C102   C112    1.389   .     A
C103   C105    1.399   .     A
C104   C106    1.399   .     A
C105   C107    1.399   .     A
C105   H119    1.082   .     S
C106   H120    1.082   .     S
C106   C108    1.399   .     A
C107   C109    1.419   .     A
C107   C113    1.411   .     A
C108   C110    1.419   .     A
C108   C114    1.411   .     A
C109   C111    1.410   .     A
C109   C156    1.402   .     S
C110   C112    1.410   .     A
C110   C155    1.402   1_455 S
C113   C141    1.393   .     S
C113   Br689   1.923   1_554 S
C114   C142    1.393   1_455 S
C114   Br414   1.923   .     S
Cu115  Cu116   2.686   .     S
Cu115  O133    1.968   .     S
Cu115  O132    1.949   .     S
Cu115  N128    2.018   .     S
Cu115  O129    1.955   .     S
Cu115  O136    1.957   .     S
Cu116  O130    1.955   .     S
Cu116  N127    2.018   .     S
Cu116  O131    1.949   .     S
Cu116  O134    1.968   .     S
Cu116  O135    1.957   .     S
H123   C189    1.088   .     S
H125   N403    1.029   .     S
H126   N680    1.029   1_554 S
N127   H677    1.029   1_554 S
N127   N680    1.297   1_554 S
N128   N403    1.297   .     S
N128   H402    1.029   .     S
Br137  C389    1.923   .     S
Br138  C666    1.923   1_554 S
C139   O175    1.292   .     A
C139   C143    1.426   .     S
C139   O177    1.283   .     A
C140   O176    1.292   .     A
C140   C144    1.426   .     S
C140   O178    1.283   .     A
C141   C158    1.399   .     A
C141   H167    1.084   .     S
C142   C157    1.399   .     A
C142   H168    1.084   .     S
C142   C114    1.393   1_655 S
C144   C235    1.326   .     S
C144   H262    1.088   .     S
C145   O181    1.292   .     A
C145   O179    1.298   .     A
C145   C150    1.455   .     S
C146   O180    1.298   .     A
C146   C149    1.455   .     S
C146   O182    1.292   .     A
C147   C149    1.399   .     A
C147   H163    1.085   .     S
C147   C157    1.389   .     A
C148   H164    1.085   .     S
C148   C150    1.399   .     A
C148   C158    1.389   .     A
C149   C151    1.399   .     A
C150   C152    1.399   .     A
C151   C153    1.399   .     A
C151   H165    1.082   .     S
C152   H166    1.082   .     S
C152   C154    1.399   .     A
C153   C155    1.419   .     A
C153   C159    1.411   .     A
C154   C156    1.419   .     A
C154   C160    1.411   .     A
C155   C157    1.410   .     A
C155   C110    1.402   1_655 S
C156   C158    1.410   .     A
C159   C95     1.393   1_655 S
C159   Br735   1.923   1_554 S
C160   Br460   1.923   .     S
Cu161  Cu162   2.686   .     S
Cu161  O179    1.968   .     S
Cu161  O178    1.949   .     S
Cu161  N174    2.018   .     S
Cu161  O175    1.955   .     S
Cu161  O182    1.957   .     S
Cu162  O176    1.955   .     S
Cu162  N173    2.018   .     S
Cu162  O177    1.949   .     S
Cu162  O180    1.968   .     S
Cu162  O181    1.957   .     S
H169   C235    1.088   .     S
H171   N449    1.029   .     S
H172   N726    1.029   1_554 S
N173   H723    1.029   1_554 S
N173   N726    1.297   1_554 S
N174   N449    1.297   .     S
N174   H448    1.029   .     S
Br183  C435    1.923   .     S
Br184  C712    1.923   1_554 S
C185   O221    1.292   .     A
C185   C189    1.426   .     S
C185   O223    1.283   .     A
C186   O222    1.292   .     A
C186   C190    1.426   .     S
C186   O224    1.283   .     A
C187   C204    1.399   .     A
C187   H213    1.084   .     S
C187   C251    1.393   1_455 S
C188   C203    1.399   .     A
C188   H214    1.084   .     S
C188   C252    1.393   .     S
C190   C5      1.326   1_565 S
C190   H32     1.088   1_565 S
C191   O227    1.292   .     A
C191   O225    1.298   .     A
C191   C196    1.455   .     S
C192   O226    1.298   .     A
C192   C195    1.455   .     S
C192   O228    1.292   .     A
C193   C195    1.399   .     A
C193   H209    1.085   .     S
C193   C203    1.389   .     A
C194   H210    1.085   .     S
C194   C196    1.399   .     A
C194   C204    1.389   .     A
C195   C197    1.399   .     A
C196   C198    1.399   .     A
C197   C199    1.399   .     A
C197   H211    1.082   .     S
C198   H212    1.082   .     S
C198   C200    1.399   .     A
C199   C201    1.419   .     A
C199   C205    1.411   .     A
C200   C202    1.419   .     A
C200   C206    1.411   .     A
C201   C203    1.410   .     A
C201   C248    1.402   .     S
C202   C204    1.410   .     A
C202   C247    1.402   1_455 S
C205   C233    1.393   .     S
C205   Br781   1.923   1_554 S
C206   C234    1.393   1_455 S
C206   Br506   1.923   .     S
Cu207  Cu208   2.686   .     S
Cu207  O225    1.968   .     S
Cu207  O224    1.949   .     S
Cu207  N220    2.018   .     S
Cu207  O221    1.955   .     S
Cu207  O228    1.957   .     S
Cu208  O222    1.955   .     S
Cu208  N219    2.018   .     S
Cu208  O223    1.949   .     S
Cu208  O226    1.968   .     S
Cu208  O227    1.957   .     S
H215   C5      1.088   1_565 S
H217   N495    1.029   .     S
H218   N772    1.029   1_554 S
N219   H769    1.029   1_554 S
N219   N772    1.297   1_554 S
N220   N495    1.297   .     S
N220   H494    1.029   .     S
Br229  C481    1.923   .     S
Br230  C758    1.923   1_554 S
C231   O267    1.292   .     A
C231   C235    1.426   .     S
C231   O269    1.283   .     A
C232   O268    1.292   .     A
C232   C236    1.426   .     S
C232   O270    1.283   .     A
C233   C250    1.399   .     A
C233   H259    1.084   .     S
C234   C249    1.399   .     A
C234   H260    1.084   .     S
C234   C206    1.393   1_655 S
C236   C51     1.326   1_565 S
C236   H78     1.088   1_565 S
C237   O273    1.292   .     A
C237   O271    1.298   .     A
C237   C242    1.455   .     S
C238   O272    1.298   .     A
C238   C241    1.455   .     S
C238   O274    1.292   .     A
C239   C241    1.399   .     A
C239   H255    1.085   .     S
C239   C249    1.389   .     A
C240   H256    1.085   .     S
C240   C242    1.399   .     A
C240   C250    1.389   .     A
C241   C243    1.399   .     A
C242   C244    1.399   .     A
C243   C245    1.399   .     A
C243   H257    1.082   .     S
C244   H258    1.082   .     S
C244   C246    1.399   .     A
C245   C247    1.419   .     A
C245   C251    1.411   .     A
C246   C248    1.419   .     A
C246   C252    1.411   .     A
C247   C249    1.410   .     A
C247   C202    1.402   1_655 S
C248   C250    1.410   .     A
C251   C187    1.393   1_655 S
C251   Br827   1.923   1_554 S
C252   Br552   1.923   .     S
Cu253  Cu254   2.686   .     S
Cu253  O271    1.968   .     S
Cu253  O270    1.949   .     S
Cu253  N266    2.018   .     S
Cu253  O267    1.955   .     S
Cu253  O274    1.957   .     S
Cu254  O268    1.955   .     S
Cu254  N265    2.018   .     S
Cu254  O269    1.949   .     S
Cu254  O272    1.968   .     S
Cu254  O273    1.957   .     S
H261   C51     1.088   1_565 S
H263   N541    1.029   .     S
H264   N818    1.029   1_554 S
N265   H815    1.029   1_554 S
N265   N818    1.297   1_554 S
N266   N541    1.297   .     S
N266   H540    1.029   .     S
Br275  C527    1.923   .     S
Br276  C804    1.923   1_554 S
C277   O313    1.292   .     A
C277   C281    1.426   .     S
C277   O315    1.283   .     A
C278   O314    1.292   .     A
C278   C282    1.426   .     S
C278   O316    1.283   .     A
C279   C296    1.399   .     A
C279   H305    1.084   .     S
C279   C343    1.393   1_455 S
C280   C295    1.399   .     A
C280   H306    1.084   .     S
C280   C344    1.393   .     S
C281   C466    1.326   1_545 S
C281   H491    1.088   1_545 S
C282   C373    1.326   .     S
C282   H400    1.088   .     S
C283   O319    1.292   .     A
C283   O317    1.298   .     A
C283   C288    1.455   .     S
C284   O318    1.298   .     A
C284   C287    1.455   .     S
C284   O320    1.292   .     A
C285   C287    1.399   .     A
C285   H301    1.085   .     S
C285   C295    1.389   .     A
C286   H302    1.085   .     S
C286   C288    1.399   .     A
C286   C296    1.389   .     A
C287   C289    1.399   .     A
C288   C290    1.399   .     A
C289   C291    1.399   .     A
C289   H303    1.082   .     S
C290   H304    1.082   .     S
C290   C292    1.399   .     A
C291   C293    1.419   .     A
C291   C297    1.411   .     A
C292   C294    1.419   .     A
C292   C298    1.411   .     A
C293   C295    1.410   .     A
C293   C340    1.402   .     S
C294   C296    1.410   .     A
C294   C339    1.402   1_455 S
C297   C325    1.393   .     S
C298   C326    1.393   1_455 S
C298   Br598   1.923   .     S
Cu299  Cu300   2.686   .     S
Cu299  O317    1.968   .     S
Cu299  O316    1.949   .     S
Cu299  N312    2.018   .     S
Cu299  O313    1.955   .     S
Cu299  O320    1.957   .     S
Cu300  O314    1.955   .     S
Cu300  N311    2.018   .     S
Cu300  O315    1.949   .     S
Cu300  O318    1.968   .     S
Cu300  O319    1.957   .     S
H307   C373    1.088   .     S
H308   C466    1.088   1_545 S
H309   N587    1.029   .     S
N312   N587    1.297   .     S
N312   H586    1.029   .     S
Br321  C573    1.923   .     S
C323   O359    1.292   .     A
C323   C327    1.426   .     S
C323   O361    1.283   .     A
C324   O360    1.292   .     A
C324   C328    1.426   .     S
C324   O362    1.283   .     A
C325   C342    1.399   .     A
C325   H351    1.084   .     S
C326   C341    1.399   .     A
C326   H352    1.084   .     S
C326   C298    1.393   1_655 S
C327   C512    1.326   1_545 S
C327   H537    1.088   1_545 S
C328   C419    1.326   .     S
C328   H446    1.088   .     S
C329   O365    1.292   .     A
C329   O363    1.298   .     A
C329   C334    1.455   .     S
C330   O364    1.298   .     A
C330   C333    1.455   .     S
C330   O366    1.292   .     A
C331   C333    1.399   .     A
C331   H347    1.085   .     S
C331   C341    1.389   .     A
C332   H348    1.085   .     S
C332   C334    1.399   .     A
C332   C342    1.389   .     A
C333   C335    1.399   .     A
C334   C336    1.399   .     A
C335   C337    1.399   .     A
C335   H349    1.082   .     S
C336   H350    1.082   .     S
C336   C338    1.399   .     A
C337   C339    1.419   .     A
C337   C343    1.411   .     A
C338   C340    1.419   .     A
C338   C344    1.411   .     A
C339   C341    1.410   .     A
C339   C294    1.402   1_655 S
C340   C342    1.410   .     A
C343   C279    1.393   1_655 S
C344   Br644   1.923   .     S
Cu345  Cu346   2.686   .     S
Cu345  O363    1.968   .     S
Cu345  O362    1.949   .     S
Cu345  N358    2.018   .     S
Cu345  O359    1.955   .     S
Cu345  O366    1.957   .     S
Cu346  O360    1.955   .     S
Cu346  N357    2.018   .     S
Cu346  O361    1.949   .     S
Cu346  O364    1.968   .     S
Cu346  O365    1.957   .     S
H353   C419    1.088   .     S
H354   C512    1.088   1_545 S
H355   N633    1.029   .     S
N358   N633    1.297   .     S
N358   H632    1.029   .     S
Br367  C619    1.923   .     S
C369   O405    1.292   .     A
C369   C373    1.426   .     S
C369   O407    1.283   .     A
C370   O406    1.292   .     A
C370   C374    1.426   .     S
C370   O408    1.283   .     A
C371   C388    1.399   .     A
C371   H397    1.084   .     S
C371   C435    1.393   1_455 S
C372   C387    1.399   .     A
C372   H398    1.084   .     S
C372   C436    1.393   .     S
C374   C465    1.326   .     S
C374   H492    1.088   .     S
C375   O411    1.292   .     A
C375   O409    1.298   .     A
C375   C380    1.455   .     S
C376   O410    1.298   .     A
C376   C379    1.455   .     S
C376   O412    1.292   .     A
C377   C379    1.399   .     A
C377   H393    1.085   .     S
C377   C387    1.389   .     A
C378   H394    1.085   .     S
C378   C380    1.399   .     A
C378   C388    1.389   .     A
C379   C381    1.399   .     A
C380   C382    1.399   .     A
C381   C383    1.399   .     A
C381   H395    1.082   .     S
C382   H396    1.082   .     S
C382   C384    1.399   .     A
C383   C385    1.419   .     A
C383   C389    1.411   .     A
C384   C386    1.419   .     A
C384   C390    1.411   .     A
C385   C387    1.410   .     A
C385   C432    1.402   .     S
C386   C388    1.410   .     A
C386   C431    1.402   1_455 S
C389   C417    1.393   .     S
C390   C418    1.393   1_455 S
C390   Br690   1.923   .     S
Cu391  Cu392   2.686   .     S
Cu391  O409    1.968   .     S
Cu391  O408    1.949   .     S
Cu391  N404    2.018   .     S
Cu391  O405    1.955   .     S
Cu391  O412    1.957   .     S
Cu392  O406    1.955   .     S
Cu392  N403    2.018   .     S
Cu392  O407    1.949   .     S
Cu392  O410    1.968   .     S
Cu392  O411    1.957   .     S
H399   C465    1.088   .     S
H401   N679    1.029   .     S
N404   N679    1.297   .     S
N404   H678    1.029   .     S
Br413  C665    1.923   .     S
C415   O451    1.292   .     A
C415   C419    1.426   .     S
C415   O453    1.283   .     A
C416   O452    1.292   .     A
C416   C420    1.426   .     S
C416   O454    1.283   .     A
C417   C434    1.399   .     A
C417   H443    1.084   .     S
C418   C433    1.399   .     A
C418   H444    1.084   .     S
C418   C390    1.393   1_655 S
C420   C511    1.326   .     S
C420   H538    1.088   .     S
C421   O457    1.292   .     A
C421   O455    1.298   .     A
C421   C426    1.455   .     S
C422   O456    1.298   .     A
C422   C425    1.455   .     S
C422   O458    1.292   .     A
C423   C425    1.399   .     A
C423   H439    1.085   .     S
C423   C433    1.389   .     A
C424   H440    1.085   .     S
C424   C426    1.399   .     A
C424   C434    1.389   .     A
C425   C427    1.399   .     A
C426   C428    1.399   .     A
C427   C429    1.399   .     A
C427   H441    1.082   .     S
C428   H442    1.082   .     S
C428   C430    1.399   .     A
C429   C431    1.419   .     A
C429   C435    1.411   .     A
C430   C432    1.419   .     A
C430   C436    1.411   .     A
C431   C433    1.410   .     A
C431   C386    1.402   1_655 S
C432   C434    1.410   .     A
C435   C371    1.393   1_655 S
C436   Br736   1.923   .     S
Cu437  Cu438   2.686   .     S
Cu437  O455    1.968   .     S
Cu437  O454    1.949   .     S
Cu437  N450    2.018   .     S
Cu437  O451    1.955   .     S
Cu437  O458    1.957   .     S
Cu438  O452    1.955   .     S
Cu438  N449    2.018   .     S
Cu438  O453    1.949   .     S
Cu438  O456    1.968   .     S
Cu438  O457    1.957   .     S
H445   C511    1.088   .     S
H447   N725    1.029   .     S
N450   N725    1.297   .     S
N450   H724    1.029   .     S
Br459  C711    1.923   .     S
C461   O497    1.292   .     A
C461   C465    1.426   .     S
C461   O499    1.283   .     A
C462   O498    1.292   .     A
C462   C466    1.426   .     S
C462   O500    1.283   .     A
C463   C480    1.399   .     A
C463   H489    1.084   .     S
C463   C527    1.393   1_455 S
C464   C479    1.399   .     A
C464   H490    1.084   .     S
C464   C528    1.393   .     S
C466   C281    1.326   1_565 S
C466   H308    1.088   1_565 S
C467   O503    1.292   .     A
C467   O501    1.298   .     A
C467   C472    1.455   .     S
C468   O502    1.298   .     A
C468   C471    1.455   .     S
C468   O504    1.292   .     A
C469   C471    1.399   .     A
C469   H485    1.085   .     S
C469   C479    1.389   .     A
C470   H486    1.085   .     S
C470   C472    1.399   .     A
C470   C480    1.389   .     A
C471   C473    1.399   .     A
C472   C474    1.399   .     A
C473   C475    1.399   .     A
C473   H487    1.082   .     S
C474   H488    1.082   .     S
C474   C476    1.399   .     A
C475   C477    1.419   .     A
C475   C481    1.411   .     A
C476   C478    1.419   .     A
C476   C482    1.411   .     A
C477   C479    1.410   .     A
C477   C524    1.402   .     S
C478   C480    1.410   .     A
C478   C523    1.402   1_455 S
C481   C509    1.393   .     S
C482   C510    1.393   1_455 S
C482   Br782   1.923   .     S
Cu483  Cu484   2.686   .     S
Cu483  O501    1.968   .     S
Cu483  O500    1.949   .     S
Cu483  N496    2.018   .     S
Cu483  O497    1.955   .     S
Cu483  O504    1.957   .     S
Cu484  O498    1.955   .     S
Cu484  N495    2.018   .     S
Cu484  O499    1.949   .     S
Cu484  O502    1.968   .     S
Cu484  O503    1.957   .     S
H491   C281    1.088   1_565 S
H493   N771    1.029   .     S
N496   N771    1.297   .     S
N496   H770    1.029   .     S
Br505  C757    1.923   .     S
C507   O543    1.292   .     A
C507   C511    1.426   .     S
C507   O545    1.283   .     A
C508   O544    1.292   .     A
C508   C512    1.426   .     S
C508   O546    1.283   .     A
C509   C526    1.399   .     A
C509   H535    1.084   .     S
C510   C525    1.399   .     A
C510   H536    1.084   .     S
C510   C482    1.393   1_655 S
C512   C327    1.326   1_565 S
C512   H354    1.088   1_565 S
C513   O549    1.292   .     A
C513   O547    1.298   .     A
C513   C518    1.455   .     S
C514   O548    1.298   .     A
C514   C517    1.455   .     S
C514   O550    1.292   .     A
C515   C517    1.399   .     A
C515   H531    1.085   .     S
C515   C525    1.389   .     A
C516   H532    1.085   .     S
C516   C518    1.399   .     A
C516   C526    1.389   .     A
C517   C519    1.399   .     A
C518   C520    1.399   .     A
C519   C521    1.399   .     A
C519   H533    1.082   .     S
C520   H534    1.082   .     S
C520   C522    1.399   .     A
C521   C523    1.419   .     A
C521   C527    1.411   .     A
C522   C524    1.419   .     A
C522   C528    1.411   .     A
C523   C525    1.410   .     A
C523   C478    1.402   1_655 S
C524   C526    1.410   .     A
C527   C463    1.393   1_655 S
C528   Br828   1.923   .     S
Cu529  Cu530   2.686   .     S
Cu529  O547    1.968   .     S
Cu529  O546    1.949   .     S
Cu529  N542    2.018   .     S
Cu529  O543    1.955   .     S
Cu529  O550    1.957   .     S
Cu530  O544    1.955   .     S
Cu530  N541    2.018   .     S
Cu530  O545    1.949   .     S
Cu530  O548    1.968   .     S
Cu530  O549    1.957   .     S
H537   C327    1.088   1_565 S
H539   N817    1.029   .     S
N542   N817    1.297   .     S
N542   H816    1.029   .     S
Br551  C803    1.923   .     S
C553   O589    1.292   .     A
C553   C557    1.426   .     S
C553   O591    1.283   .     A
C554   O590    1.292   .     A
C554   C558    1.426   .     S
C554   O592    1.283   .     A
C555   C572    1.399   .     A
C555   H581    1.084   .     S
C555   C619    1.393   1_455 S
C556   C571    1.399   .     A
C556   H582    1.084   .     S
C556   C620    1.393   .     S
C557   C742    1.326   1_545 S
C557   H767    1.088   1_545 S
C558   C649    1.326   .     S
C558   H676    1.088   .     S
C559   O595    1.292   .     A
C559   O593    1.298   .     A
C559   C564    1.455   .     S
C560   O594    1.298   .     A
C560   C563    1.455   .     S
C560   O596    1.292   .     A
C561   C563    1.399   .     A
C561   H577    1.085   .     S
C561   C571    1.389   .     A
C562   H578    1.085   .     S
C562   C564    1.399   .     A
C562   C572    1.389   .     A
C563   C565    1.399   .     A
C564   C566    1.399   .     A
C565   C567    1.399   .     A
C565   H579    1.082   .     S
C566   H580    1.082   .     S
C566   C568    1.399   .     A
C567   C569    1.419   .     A
C567   C573    1.411   .     A
C568   C570    1.419   .     A
C568   C574    1.411   .     A
C569   C571    1.410   .     A
C569   C616    1.402   .     S
C570   C572    1.410   .     A
C570   C615    1.402   1_455 S
C573   C601    1.393   .     S
C574   C602    1.393   1_455 S
C574   Br46    1.923   1_556 S
Cu575  Cu576   2.686   .     S
Cu575  O593    1.968   .     S
Cu575  O592    1.949   .     S
Cu575  N588    2.018   .     S
Cu575  O589    1.955   .     S
Cu575  O596    1.957   .     S
Cu576  O590    1.955   .     S
Cu576  N587    2.018   .     S
Cu576  O591    1.949   .     S
Cu576  O594    1.968   .     S
Cu576  O595    1.957   .     S
H583   C649    1.088   .     S
H584   C742    1.088   1_545 S
H585   N35     1.029   1_556 S
N588   N35     1.297   1_556 S
N588   H34     1.029   1_556 S
Br597  C21     1.923   1_556 S
C599   O635    1.292   .     A
C599   C603    1.426   .     S
C599   O637    1.283   .     A
C600   O636    1.292   .     A
C600   C604    1.426   .     S
C600   O638    1.283   .     A
C601   C618    1.399   .     A
C601   H627    1.084   .     S
C602   C617    1.399   .     A
C602   H628    1.084   .     S
C602   C574    1.393   1_655 S
C603   C788    1.326   1_545 S
C603   H813    1.088   1_545 S
C604   C695    1.326   .     S
C604   H722    1.088   .     S
C605   O641    1.292   .     A
C605   O639    1.298   .     A
C605   C610    1.455   .     S
C606   O640    1.298   .     A
C606   C609    1.455   .     S
C606   O642    1.292   .     A
C607   C609    1.399   .     A
C607   H623    1.085   .     S
C607   C617    1.389   .     A
C608   H624    1.085   .     S
C608   C610    1.399   .     A
C608   C618    1.389   .     A
C609   C611    1.399   .     A
C610   C612    1.399   .     A
C611   C613    1.399   .     A
C611   H625    1.082   .     S
C612   H626    1.082   .     S
C612   C614    1.399   .     A
C613   C615    1.419   .     A
C613   C619    1.411   .     A
C614   C616    1.419   .     A
C614   C620    1.411   .     A
C615   C617    1.410   .     A
C615   C570    1.402   1_655 S
C616   C618    1.410   .     A
C619   C555    1.393   1_655 S
C620   Br92    1.923   1_556 S
Cu621  Cu622   2.686   .     S
Cu621  O639    1.968   .     S
Cu621  O638    1.949   .     S
Cu621  N634    2.018   .     S
Cu621  O635    1.955   .     S
Cu621  O642    1.957   .     S
Cu622  O636    1.955   .     S
Cu622  N633    2.018   .     S
Cu622  O637    1.949   .     S
Cu622  O640    1.968   .     S
Cu622  O641    1.957   .     S
H629   C695    1.088   .     S
H630   C788    1.088   1_545 S
H631   N81     1.029   1_556 S
N634   N81     1.297   1_556 S
N634   H80     1.029   1_556 S
Br643  C67     1.923   1_556 S
C645   O681    1.292   .     A
C645   C649    1.426   .     S
C645   O683    1.283   .     A
C646   O682    1.292   .     A
C646   C650    1.426   .     S
C646   O684    1.283   .     A
C647   C664    1.399   .     A
C647   H673    1.084   .     S
C647   C711    1.393   1_455 S
C648   C663    1.399   .     A
C648   H674    1.084   .     S
C648   C712    1.393   .     S
C650   C741    1.326   .     S
C650   H768    1.088   .     S
C651   O687    1.292   .     A
C651   O685    1.298   .     A
C651   C656    1.455   .     S
C652   O686    1.298   .     A
C652   C655    1.455   .     S
C652   O688    1.292   .     A
C653   C655    1.399   .     A
C653   H669    1.085   .     S
C653   C663    1.389   .     A
C654   H670    1.085   .     S
C654   C656    1.399   .     A
C654   C664    1.389   .     A
C655   C657    1.399   .     A
C656   C658    1.399   .     A
C657   C659    1.399   .     A
C657   H671    1.082   .     S
C658   H672    1.082   .     S
C658   C660    1.399   .     A
C659   C661    1.419   .     A
C659   C665    1.411   .     A
C660   C662    1.419   .     A
C660   C666    1.411   .     A
C661   C663    1.410   .     A
C661   C708    1.402   .     S
C662   C664    1.410   .     A
C662   C707    1.402   1_455 S
C665   C693    1.393   .     S
C666   C694    1.393   1_455 S
C666   Br138   1.923   1_556 S
Cu667  Cu668   2.686   .     S
Cu667  O685    1.968   .     S
Cu667  O684    1.949   .     S
Cu667  N680    2.018   .     S
Cu667  O681    1.955   .     S
Cu667  O688    1.957   .     S
Cu668  O682    1.955   .     S
Cu668  N679    2.018   .     S
Cu668  O683    1.949   .     S
Cu668  O686    1.968   .     S
Cu668  O687    1.957   .     S
H675   C741    1.088   .     S
H677   N127    1.029   1_556 S
N680   N127    1.297   1_556 S
N680   H126    1.029   1_556 S
Br689  C113    1.923   1_556 S
C691   O727    1.292   .     A
C691   C695    1.426   .     S
C691   O729    1.283   .     A
C692   O728    1.292   .     A
C692   C696    1.426   .     S
C692   O730    1.283   .     A
C693   C710    1.399   .     A
C693   H719    1.084   .     S
C694   C709    1.399   .     A
C694   H720    1.084   .     S
C694   C666    1.393   1_655 S
C696   C787    1.326   .     S
C696   H814    1.088   .     S
C697   O733    1.292   .     A
C697   O731    1.298   .     A
C697   C702    1.455   .     S
C698   O732    1.298   .     A
C698   C701    1.455   .     S
C698   O734    1.292   .     A
C699   C701    1.399   .     A
C699   H715    1.085   .     S
C699   C709    1.389   .     A
C700   H716    1.085   .     S
C700   C702    1.399   .     A
C700   C710    1.389   .     A
C701   C703    1.399   .     A
C702   C704    1.399   .     A
C703   C705    1.399   .     A
C703   H717    1.082   .     S
C704   H718    1.082   .     S
C704   C706    1.399   .     A
C705   C707    1.419   .     A
C705   C711    1.411   .     A
C706   C708    1.419   .     A
C706   C712    1.411   .     A
C707   C709    1.410   .     A
C707   C662    1.402   1_655 S
C708   C710    1.410   .     A
C711   C647    1.393   1_655 S
C712   Br184   1.923   1_556 S
Cu713  Cu714   2.686   .     S
Cu713  O731    1.968   .     S
Cu713  O730    1.949   .     S
Cu713  N726    2.018   .     S
Cu713  O727    1.955   .     S
Cu713  O734    1.957   .     S
Cu714  O728    1.955   .     S
Cu714  N725    2.018   .     S
Cu714  O729    1.949   .     S
Cu714  O732    1.968   .     S
Cu714  O733    1.957   .     S
H721   C787    1.088   .     S
H723   N173    1.029   1_556 S
N726   N173    1.297   1_556 S
N726   H172    1.029   1_556 S
Br735  C159    1.923   1_556 S
C737   O773    1.292   .     A
C737   C741    1.426   .     S
C737   O775    1.283   .     A
C738   O774    1.292   .     A
C738   C742    1.426   .     S
C738   O776    1.283   .     A
C739   C756    1.399   .     A
C739   H765    1.084   .     S
C739   C803    1.393   1_455 S
C740   C755    1.399   .     A
C740   H766    1.084   .     S
C740   C804    1.393   .     S
C742   C557    1.326   1_565 S
C742   H584    1.088   1_565 S
C743   O779    1.292   .     A
C743   O777    1.298   .     A
C743   C748    1.455   .     S
C744   O778    1.298   .     A
C744   C747    1.455   .     S
C744   O780    1.292   .     A
C745   C747    1.399   .     A
C745   H761    1.085   .     S
C745   C755    1.389   .     A
C746   H762    1.085   .     S
C746   C748    1.399   .     A
C746   C756    1.389   .     A
C747   C749    1.399   .     A
C748   C750    1.399   .     A
C749   C751    1.399   .     A
C749   H763    1.082   .     S
C750   H764    1.082   .     S
C750   C752    1.399   .     A
C751   C753    1.419   .     A
C751   C757    1.411   .     A
C752   C754    1.419   .     A
C752   C758    1.411   .     A
C753   C755    1.410   .     A
C753   C800    1.402   .     S
C754   C756    1.410   .     A
C754   C799    1.402   1_455 S
C757   C785    1.393   .     S
C758   C786    1.393   1_455 S
C758   Br230   1.923   1_556 S
Cu759  Cu760   2.686   .     S
Cu759  O777    1.968   .     S
Cu759  O776    1.949   .     S
Cu759  N772    2.018   .     S
Cu759  O773    1.955   .     S
Cu759  O780    1.957   .     S
Cu760  O774    1.955   .     S
Cu760  N771    2.018   .     S
Cu760  O775    1.949   .     S
Cu760  O778    1.968   .     S
Cu760  O779    1.957   .     S
H767   C557    1.088   1_565 S
H769   N219    1.029   1_556 S
N772   N219    1.297   1_556 S
N772   H218    1.029   1_556 S
Br781  C205    1.923   1_556 S
C783   O819    1.292   .     A
C783   C787    1.426   .     S
C783   O821    1.283   .     A
C784   O820    1.292   .     A
C784   C788    1.426   .     S
C784   O822    1.283   .     A
C785   C802    1.399   .     A
C785   H811    1.084   .     S
C786   C801    1.399   .     A
C786   H812    1.084   .     S
C786   C758    1.393   1_655 S
C788   C603    1.326   1_565 S
C788   H630    1.088   1_565 S
C789   O825    1.292   .     A
C789   O823    1.298   .     A
C789   C794    1.455   .     S
C790   O824    1.298   .     A
C790   C793    1.455   .     S
C790   O826    1.292   .     A
C791   C793    1.399   .     A
C791   H807    1.085   .     S
C791   C801    1.389   .     A
C792   H808    1.085   .     S
C792   C794    1.399   .     A
C792   C802    1.389   .     A
C793   C795    1.399   .     A
C794   C796    1.399   .     A
C795   C797    1.399   .     A
C795   H809    1.082   .     S
C796   H810    1.082   .     S
C796   C798    1.399   .     A
C797   C799    1.419   .     A
C797   C803    1.411   .     A
C798   C800    1.419   .     A
C798   C804    1.411   .     A
C799   C801    1.410   .     A
C799   C754    1.402   1_655 S
C800   C802    1.410   .     A
C803   C739    1.393   1_655 S
C804   Br276   1.923   1_556 S
Cu805  Cu806   2.686   .     S
Cu805  O823    1.968   .     S
Cu805  O822    1.949   .     S
Cu805  N818    2.018   .     S
Cu805  O819    1.955   .     S
Cu805  O826    1.957   .     S
Cu806  O820    1.955   .     S
Cu806  N817    2.018   .     S
Cu806  O821    1.949   .     S
Cu806  O824    1.968   .     S
Cu806  O825    1.957   .     S
H813   C603    1.088   1_565 S
H815   N265    1.029   1_556 S
N818   N265    1.297   1_556 S
N818   H264    1.029   1_556 S
Br827  C251    1.923   1_556 S
