data_str_m3_o1_o10_pcu_sym.129
_audit_creation_date              2020-01-03
_audit_creation_method            'Materials Studio'
_symmetry_space_group_name_H-M    'P1'
_symmetry_Int_Tables_number       1
_symmetry_cell_setting            triclinic
loop_
_symmetry_equiv_pos_as_xyz
  x,y,z
_cell_length_a                    25.7966
_cell_length_b                    31.8088
_cell_length_c                    29.7978
_cell_angle_alpha                 89.2479
_cell_angle_beta                  97.6060
_cell_angle_gamma                 91.6152
loop_
_atom_site_label
_atom_site_type_symbol
_atom_site_fract_x
_atom_site_fract_y
_atom_site_fract_z
_atom_site_U_iso_or_equiv
_atom_site_adp_type
_atom_site_occupancy
C1     C     0.16620   0.08690   0.16684   0.00000  Uiso   1.00
C2     C     0.16713   0.24643   0.16650   0.00000  Uiso   1.00
C3     C     0.06733   0.16624   0.15521   0.00000  Uiso   1.00
C4     C     0.26600   0.16709   0.17812   0.00000  Uiso   1.00
C5     C     0.01312   0.15928   0.15054   0.00000  Uiso   1.00
C6     C     0.32022   0.17405   0.18280   0.00000  Uiso   1.00
C7     C     0.12113   0.02084   0.14787   0.00000  Uiso   1.00
C8     C     0.21220   0.31249   0.18546   0.00000  Uiso   1.00
C9     C     0.12160   0.31055   0.14725   0.00000  Uiso   1.00
C10    C     0.21173   0.02279   0.18609   0.00000  Uiso   1.00
C11    C     0.16713   0.29060   0.16606   0.00000  Uiso   1.00
C12    C     0.16620   0.04273   0.16727   0.00000  Uiso   1.00
C13    C     0.19676   0.19544   0.02634   0.00000  Uiso   1.00
C14    C     0.13658   0.13789   0.30700   0.00000  Uiso   1.00
C15    C     0.19693   0.19503   0.31190   0.00000  Uiso   1.00
C16    C     0.13640   0.13831   0.02143   0.00000  Uiso   1.00
N17    N     0.16665   0.16666   0.28573   0.00000  Uiso   1.00
N18    N     0.16668   0.16668   0.04760   0.00000  Uiso   1.00
O19    O     0.16666   0.10558   0.20487   0.00000  Uiso   1.00
O20    O     0.16667   0.22775   0.12846   0.00000  Uiso   1.00
O21    O     0.16666   0.10559   0.12843   0.00000  Uiso   1.00
O22    O     0.16667   0.22774   0.20490   0.00000  Uiso   1.00
O23    O     0.09058   0.16666   0.19595   0.00000  Uiso   1.00
O24    O     0.24275   0.16667   0.13739   0.00000  Uiso   1.00
O25    O     0.09058   0.16667   0.11950   0.00000  Uiso   1.00
O26    O     0.24275   0.16666   0.21383   0.00000  Uiso   1.00
Zn27   Zn    0.16667   0.16666   0.21771   0.00000  Uiso   1.00
Zn28   Zn    0.16667   0.16667   0.11563   0.00000  Uiso   1.00
Br29   Br    0.31890   0.12011   0.10316   0.00000  Uiso   1.00
Br30   Br    0.01443   0.21322   0.23018   0.00000  Uiso   1.00
N31    N     0.07536   0.04329   0.12984   0.00000  Uiso   1.00
H32    H     0.04448   0.03379   0.14740   0.00000  Uiso   1.00
H33    H     0.06551   0.03560   0.09574   0.00000  Uiso   1.00
N34    N     0.25798   0.29004   0.20346   0.00000  Uiso   1.00
H35    H     0.28885   0.29955   0.18589   0.00000  Uiso   1.00
H36    H     0.26785   0.29774   0.23757   0.00000  Uiso   1.00
N37    N     0.07632   0.28609   0.12862   0.00000  Uiso   1.00
H38    H     0.06642   0.29467   0.09466   0.00000  Uiso   1.00
H39    H     0.04518   0.29281   0.14628   0.00000  Uiso   1.00
N40    N     0.25700   0.04724   0.20473   0.00000  Uiso   1.00
H41    H     0.26688   0.03866   0.23870   0.00000  Uiso   1.00
H42    H     0.28816   0.04052   0.18709   0.00000  Uiso   1.00
N43    N     0.22786   0.22738   0.05128   0.00000  Uiso   1.00
H44    H     0.25263   0.21393   0.07762   0.00000  Uiso   1.00
H45    H     0.20329   0.24878   0.06334   0.00000  Uiso   1.00
N46    N     0.10554   0.10591   0.28206   0.00000  Uiso   1.00
H47    H     0.08086   0.11932   0.25565   0.00000  Uiso   1.00
H48    H     0.13018   0.08451   0.27009   0.00000  Uiso   1.00
N49    N     0.22891   0.22458   0.29060   0.00000  Uiso   1.00
H50    H     0.26779   0.22097   0.30490   0.00000  Uiso   1.00
H51    H     0.21785   0.25490   0.29768   0.00000  Uiso   1.00
N52    N     0.10441   0.10877   0.04273   0.00000  Uiso   1.00
H53    H     0.11540   0.07844   0.03558   0.00000  Uiso   1.00
H54    H     0.06552   0.11244   0.02849   0.00000  Uiso   1.00
C55    C     0.49954   0.08690   0.16684   0.00000  Uiso   1.00
C56    C     0.50046   0.24643   0.16650   0.00000  Uiso   1.00
C57    C     0.40067   0.16624   0.15521   0.00000  Uiso   1.00
C58    C     0.59933   0.16709   0.17812   0.00000  Uiso   1.00
C59    C     0.34645   0.15928   0.15054   0.00000  Uiso   1.00
C60    C     0.65355   0.17405   0.18280   0.00000  Uiso   1.00
C61    C     0.45447   0.02084   0.14787   0.00000  Uiso   1.00
C62    C     0.54553   0.31249   0.18546   0.00000  Uiso   1.00
C63    C     0.45494   0.31055   0.14725   0.00000  Uiso   1.00
C64    C     0.54506   0.02279   0.18609   0.00000  Uiso   1.00
C65    C     0.50047   0.29060   0.16606   0.00000  Uiso   1.00
C66    C     0.49953   0.04273   0.16727   0.00000  Uiso   1.00
C67    C     0.53010   0.19544   0.02634   0.00000  Uiso   1.00
C68    C     0.46991   0.13789   0.30700   0.00000  Uiso   1.00
C69    C     0.53027   0.19503   0.31190   0.00000  Uiso   1.00
C70    C     0.46973   0.13831   0.02143   0.00000  Uiso   1.00
N71    N     0.49999   0.16666   0.28573   0.00000  Uiso   1.00
N72    N     0.50001   0.16668   0.04760   0.00000  Uiso   1.00
O73    O     0.50000   0.10558   0.20487   0.00000  Uiso   1.00
O74    O     0.50000   0.22775   0.12846   0.00000  Uiso   1.00
O75    O     0.50000   0.10559   0.12843   0.00000  Uiso   1.00
O76    O     0.50000   0.22774   0.20490   0.00000  Uiso   1.00
O77    O     0.42392   0.16666   0.19595   0.00000  Uiso   1.00
O78    O     0.57608   0.16667   0.13739   0.00000  Uiso   1.00
O79    O     0.42392   0.16667   0.11950   0.00000  Uiso   1.00
O80    O     0.57608   0.16666   0.21383   0.00000  Uiso   1.00
Zn81   Zn    0.50000   0.16666   0.21771   0.00000  Uiso   1.00
Zn82   Zn    0.50000   0.16667   0.11563   0.00000  Uiso   1.00
Br83   Br    0.65223   0.12011   0.10316   0.00000  Uiso   1.00
Br84   Br    0.34777   0.21322   0.23018   0.00000  Uiso   1.00
N85    N     0.40870   0.04329   0.12984   0.00000  Uiso   1.00
H86    H     0.37781   0.03379   0.14740   0.00000  Uiso   1.00
H87    H     0.39884   0.03560   0.09574   0.00000  Uiso   1.00
N88    N     0.59131   0.29004   0.20346   0.00000  Uiso   1.00
H89    H     0.62218   0.29955   0.18589   0.00000  Uiso   1.00
H90    H     0.60118   0.29774   0.23757   0.00000  Uiso   1.00
N91    N     0.40966   0.28609   0.12862   0.00000  Uiso   1.00
H92    H     0.39976   0.29467   0.09466   0.00000  Uiso   1.00
H93    H     0.37851   0.29281   0.14628   0.00000  Uiso   1.00
N94    N     0.59033   0.04724   0.20473   0.00000  Uiso   1.00
H95    H     0.60021   0.03866   0.23870   0.00000  Uiso   1.00
H96    H     0.62149   0.04052   0.18709   0.00000  Uiso   1.00
N97    N     0.56119   0.22738   0.05128   0.00000  Uiso   1.00
H98    H     0.58596   0.21393   0.07762   0.00000  Uiso   1.00
H99    H     0.53662   0.24878   0.06334   0.00000  Uiso   1.00
N100   N     0.43888   0.10591   0.28206   0.00000  Uiso   1.00
H101   H     0.41419   0.11932   0.25565   0.00000  Uiso   1.00
H102   H     0.46351   0.08451   0.27009   0.00000  Uiso   1.00
N103   N     0.56224   0.22458   0.29060   0.00000  Uiso   1.00
H104   H     0.60113   0.22097   0.30490   0.00000  Uiso   1.00
H105   H     0.55118   0.25490   0.29768   0.00000  Uiso   1.00
N106   N     0.43774   0.10877   0.04273   0.00000  Uiso   1.00
H107   H     0.44873   0.07844   0.03558   0.00000  Uiso   1.00
H108   H     0.39886   0.11244   0.02849   0.00000  Uiso   1.00
C109   C     0.83287   0.08690   0.16684   0.00000  Uiso   1.00
C110   C     0.83380   0.24643   0.16650   0.00000  Uiso   1.00
C111   C     0.73400   0.16624   0.15521   0.00000  Uiso   1.00
C112   C     0.93267   0.16709   0.17812   0.00000  Uiso   1.00
C113   C     0.67978   0.15928   0.15054   0.00000  Uiso   1.00
C114   C     0.98688   0.17405   0.18280   0.00000  Uiso   1.00
C115   C     0.78780   0.02084   0.14787   0.00000  Uiso   1.00
C116   C     0.87887   0.31249   0.18546   0.00000  Uiso   1.00
C117   C     0.78827   0.31055   0.14725   0.00000  Uiso   1.00
C118   C     0.87839   0.02279   0.18609   0.00000  Uiso   1.00
C119   C     0.83380   0.29060   0.16606   0.00000  Uiso   1.00
C120   C     0.83287   0.04273   0.16727   0.00000  Uiso   1.00
C121   C     0.86343   0.19544   0.02634   0.00000  Uiso   1.00
C122   C     0.80325   0.13789   0.30700   0.00000  Uiso   1.00
C123   C     0.86360   0.19503   0.31190   0.00000  Uiso   1.00
C124   C     0.80306   0.13831   0.02143   0.00000  Uiso   1.00
N125   N     0.83332   0.16666   0.28573   0.00000  Uiso   1.00
N126   N     0.83335   0.16668   0.04760   0.00000  Uiso   1.00
O127   O     0.83333   0.10558   0.20487   0.00000  Uiso   1.00
O128   O     0.83334   0.22775   0.12846   0.00000  Uiso   1.00
O129   O     0.83333   0.10559   0.12843   0.00000  Uiso   1.00
O130   O     0.83334   0.22774   0.20490   0.00000  Uiso   1.00
O131   O     0.75725   0.16666   0.19595   0.00000  Uiso   1.00
O132   O     0.90942   0.16667   0.13739   0.00000  Uiso   1.00
O133   O     0.75725   0.16667   0.11950   0.00000  Uiso   1.00
O134   O     0.90942   0.16666   0.21383   0.00000  Uiso   1.00
Zn135  Zn    0.83333   0.16666   0.21771   0.00000  Uiso   1.00
Zn136  Zn    0.83333   0.16667   0.11563   0.00000  Uiso   1.00
Br137  Br    0.98557   0.12011   0.10316   0.00000  Uiso   1.00
Br138  Br    0.68110   0.21322   0.23018   0.00000  Uiso   1.00
N139   N     0.74203   0.04329   0.12984   0.00000  Uiso   1.00
H140   H     0.71114   0.03379   0.14740   0.00000  Uiso   1.00
H141   H     0.73218   0.03560   0.09574   0.00000  Uiso   1.00
N142   N     0.92464   0.29004   0.20346   0.00000  Uiso   1.00
H143   H     0.95551   0.29955   0.18589   0.00000  Uiso   1.00
H144   H     0.93452   0.29774   0.23757   0.00000  Uiso   1.00
N145   N     0.74299   0.28609   0.12862   0.00000  Uiso   1.00
H146   H     0.73309   0.29467   0.09466   0.00000  Uiso   1.00
H147   H     0.71185   0.29281   0.14628   0.00000  Uiso   1.00
N148   N     0.92367   0.04724   0.20473   0.00000  Uiso   1.00
H149   H     0.93354   0.03866   0.23870   0.00000  Uiso   1.00
H150   H     0.95482   0.04052   0.18709   0.00000  Uiso   1.00
N151   N     0.89453   0.22738   0.05128   0.00000  Uiso   1.00
H152   H     0.91929   0.21393   0.07762   0.00000  Uiso   1.00
H153   H     0.86995   0.24878   0.06334   0.00000  Uiso   1.00
N154   N     0.77221   0.10591   0.28206   0.00000  Uiso   1.00
H155   H     0.74752   0.11932   0.25565   0.00000  Uiso   1.00
H156   H     0.79684   0.08451   0.27009   0.00000  Uiso   1.00
N157   N     0.89558   0.22458   0.29060   0.00000  Uiso   1.00
H158   H     0.93446   0.22097   0.30490   0.00000  Uiso   1.00
H159   H     0.88451   0.25490   0.29768   0.00000  Uiso   1.00
N160   N     0.77108   0.10877   0.04273   0.00000  Uiso   1.00
H161   H     0.78206   0.07844   0.03558   0.00000  Uiso   1.00
H162   H     0.73219   0.11244   0.02849   0.00000  Uiso   1.00
C163   C     0.16620   0.42024   0.16684   0.00000  Uiso   1.00
C164   C     0.16713   0.57976   0.16650   0.00000  Uiso   1.00
C165   C     0.06733   0.49958   0.15521   0.00000  Uiso   1.00
C166   C     0.26600   0.50042   0.17812   0.00000  Uiso   1.00
C167   C     0.01312   0.49262   0.15054   0.00000  Uiso   1.00
C168   C     0.32022   0.50738   0.18280   0.00000  Uiso   1.00
C169   C     0.12113   0.35418   0.14787   0.00000  Uiso   1.00
C170   C     0.21220   0.64582   0.18546   0.00000  Uiso   1.00
C171   C     0.12160   0.64388   0.14725   0.00000  Uiso   1.00
C172   C     0.21173   0.35612   0.18609   0.00000  Uiso   1.00
C173   C     0.16713   0.62394   0.16606   0.00000  Uiso   1.00
C174   C     0.16620   0.37606   0.16727   0.00000  Uiso   1.00
C175   C     0.19676   0.52877   0.02634   0.00000  Uiso   1.00
C176   C     0.13658   0.47122   0.30700   0.00000  Uiso   1.00
C177   C     0.19693   0.52836   0.31190   0.00000  Uiso   1.00
C178   C     0.13640   0.47164   0.02143   0.00000  Uiso   1.00
N179   N     0.16665   0.49999   0.28573   0.00000  Uiso   1.00
N180   N     0.16668   0.50001   0.04760   0.00000  Uiso   1.00
O181   O     0.16666   0.43892   0.20487   0.00000  Uiso   1.00
O182   O     0.16667   0.56108   0.12846   0.00000  Uiso   1.00
O183   O     0.16666   0.43893   0.12843   0.00000  Uiso   1.00
O184   O     0.16667   0.56107   0.20490   0.00000  Uiso   1.00
O185   O     0.09058   0.50000   0.19595   0.00000  Uiso   1.00
O186   O     0.24275   0.50000   0.13739   0.00000  Uiso   1.00
O187   O     0.09058   0.50000   0.11950   0.00000  Uiso   1.00
O188   O     0.24275   0.50000   0.21383   0.00000  Uiso   1.00
Zn189  Zn    0.16667   0.49999   0.21771   0.00000  Uiso   1.00
Zn190  Zn    0.16667   0.50001   0.11563   0.00000  Uiso   1.00
Br191  Br    0.31890   0.45344   0.10316   0.00000  Uiso   1.00
Br192  Br    0.01443   0.54655   0.23018   0.00000  Uiso   1.00
N193   N     0.07536   0.37662   0.12984   0.00000  Uiso   1.00
H194   H     0.04448   0.36712   0.14740   0.00000  Uiso   1.00
H195   H     0.06551   0.36893   0.09574   0.00000  Uiso   1.00
N196   N     0.25798   0.62338   0.20346   0.00000  Uiso   1.00
H197   H     0.28885   0.63288   0.18589   0.00000  Uiso   1.00
H198   H     0.26785   0.63107   0.23757   0.00000  Uiso   1.00
N199   N     0.07632   0.61942   0.12862   0.00000  Uiso   1.00
H200   H     0.06642   0.62800   0.09466   0.00000  Uiso   1.00
H201   H     0.04518   0.62614   0.14628   0.00000  Uiso   1.00
N202   N     0.25700   0.38057   0.20473   0.00000  Uiso   1.00
H203   H     0.26688   0.37199   0.23870   0.00000  Uiso   1.00
H204   H     0.28816   0.37385   0.18709   0.00000  Uiso   1.00
N205   N     0.22786   0.56072   0.05128   0.00000  Uiso   1.00
H206   H     0.25263   0.54726   0.07762   0.00000  Uiso   1.00
H207   H     0.20329   0.58211   0.06334   0.00000  Uiso   1.00
N208   N     0.10554   0.43924   0.28206   0.00000  Uiso   1.00
H209   H     0.08086   0.45265   0.25565   0.00000  Uiso   1.00
H210   H     0.13018   0.41784   0.27009   0.00000  Uiso   1.00
N211   N     0.22891   0.55791   0.29060   0.00000  Uiso   1.00
H212   H     0.26779   0.55431   0.30490   0.00000  Uiso   1.00
H213   H     0.21785   0.58823   0.29768   0.00000  Uiso   1.00
N214   N     0.10441   0.44210   0.04273   0.00000  Uiso   1.00
H215   H     0.11540   0.41177   0.03558   0.00000  Uiso   1.00
H216   H     0.06552   0.44577   0.02849   0.00000  Uiso   1.00
C217   C     0.49954   0.42024   0.16684   0.00000  Uiso   1.00
C218   C     0.50046   0.57976   0.16650   0.00000  Uiso   1.00
C219   C     0.40067   0.49958   0.15521   0.00000  Uiso   1.00
C220   C     0.59933   0.50042   0.17812   0.00000  Uiso   1.00
C221   C     0.34645   0.49262   0.15054   0.00000  Uiso   1.00
C222   C     0.65355   0.50738   0.18280   0.00000  Uiso   1.00
C223   C     0.45447   0.35418   0.14787   0.00000  Uiso   1.00
C224   C     0.54553   0.64582   0.18546   0.00000  Uiso   1.00
C225   C     0.45494   0.64388   0.14725   0.00000  Uiso   1.00
C226   C     0.54506   0.35612   0.18609   0.00000  Uiso   1.00
C227   C     0.50047   0.62394   0.16606   0.00000  Uiso   1.00
C228   C     0.49953   0.37606   0.16727   0.00000  Uiso   1.00
C229   C     0.53010   0.52877   0.02634   0.00000  Uiso   1.00
C230   C     0.46991   0.47122   0.30700   0.00000  Uiso   1.00
C231   C     0.53027   0.52836   0.31190   0.00000  Uiso   1.00
C232   C     0.46973   0.47164   0.02143   0.00000  Uiso   1.00
N233   N     0.49999   0.49999   0.28573   0.00000  Uiso   1.00
N234   N     0.50001   0.50001   0.04760   0.00000  Uiso   1.00
O235   O     0.50000   0.43892   0.20487   0.00000  Uiso   1.00
O236   O     0.50000   0.56108   0.12846   0.00000  Uiso   1.00
O237   O     0.50000   0.43893   0.12843   0.00000  Uiso   1.00
O238   O     0.50000   0.56107   0.20490   0.00000  Uiso   1.00
O239   O     0.42392   0.50000   0.19595   0.00000  Uiso   1.00
O240   O     0.57608   0.50000   0.13739   0.00000  Uiso   1.00
O241   O     0.42392   0.50000   0.11950   0.00000  Uiso   1.00
O242   O     0.57608   0.50000   0.21383   0.00000  Uiso   1.00
Zn243  Zn    0.50000   0.49999   0.21771   0.00000  Uiso   1.00
Zn244  Zn    0.50000   0.50001   0.11563   0.00000  Uiso   1.00
Br245  Br    0.65223   0.45344   0.10316   0.00000  Uiso   1.00
Br246  Br    0.34777   0.54655   0.23018   0.00000  Uiso   1.00
N247   N     0.40870   0.37662   0.12984   0.00000  Uiso   1.00
H248   H     0.37781   0.36712   0.14740   0.00000  Uiso   1.00
H249   H     0.39884   0.36893   0.09574   0.00000  Uiso   1.00
N250   N     0.59131   0.62338   0.20346   0.00000  Uiso   1.00
H251   H     0.62218   0.63288   0.18589   0.00000  Uiso   1.00
H252   H     0.60118   0.63107   0.23757   0.00000  Uiso   1.00
N253   N     0.40966   0.61942   0.12862   0.00000  Uiso   1.00
H254   H     0.39976   0.62800   0.09466   0.00000  Uiso   1.00
H255   H     0.37851   0.62614   0.14628   0.00000  Uiso   1.00
N256   N     0.59033   0.38057   0.20473   0.00000  Uiso   1.00
H257   H     0.60021   0.37199   0.23870   0.00000  Uiso   1.00
H258   H     0.62149   0.37385   0.18709   0.00000  Uiso   1.00
N259   N     0.56119   0.56072   0.05128   0.00000  Uiso   1.00
H260   H     0.58596   0.54726   0.07762   0.00000  Uiso   1.00
H261   H     0.53662   0.58211   0.06334   0.00000  Uiso   1.00
N262   N     0.43888   0.43924   0.28206   0.00000  Uiso   1.00
H263   H     0.41419   0.45265   0.25565   0.00000  Uiso   1.00
H264   H     0.46351   0.41784   0.27009   0.00000  Uiso   1.00
N265   N     0.56224   0.55791   0.29060   0.00000  Uiso   1.00
H266   H     0.60113   0.55431   0.30490   0.00000  Uiso   1.00
H267   H     0.55118   0.58823   0.29768   0.00000  Uiso   1.00
N268   N     0.43774   0.44210   0.04273   0.00000  Uiso   1.00
H269   H     0.44873   0.41177   0.03558   0.00000  Uiso   1.00
H270   H     0.39886   0.44577   0.02849   0.00000  Uiso   1.00
C271   C     0.83287   0.42024   0.16684   0.00000  Uiso   1.00
C272   C     0.83380   0.57976   0.16650   0.00000  Uiso   1.00
C273   C     0.73400   0.49958   0.15521   0.00000  Uiso   1.00
C274   C     0.93267   0.50042   0.17812   0.00000  Uiso   1.00
C275   C     0.67978   0.49262   0.15054   0.00000  Uiso   1.00
C276   C     0.98688   0.50738   0.18280   0.00000  Uiso   1.00
C277   C     0.78780   0.35418   0.14787   0.00000  Uiso   1.00
C278   C     0.87887   0.64582   0.18546   0.00000  Uiso   1.00
C279   C     0.78827   0.64388   0.14725   0.00000  Uiso   1.00
C280   C     0.87839   0.35612   0.18609   0.00000  Uiso   1.00
C281   C     0.83380   0.62394   0.16606   0.00000  Uiso   1.00
C282   C     0.83287   0.37606   0.16727   0.00000  Uiso   1.00
C283   C     0.86343   0.52877   0.02634   0.00000  Uiso   1.00
C284   C     0.80325   0.47122   0.30700   0.00000  Uiso   1.00
C285   C     0.86360   0.52836   0.31190   0.00000  Uiso   1.00
C286   C     0.80306   0.47164   0.02143   0.00000  Uiso   1.00
N287   N     0.83332   0.49999   0.28573   0.00000  Uiso   1.00
N288   N     0.83335   0.50001   0.04760   0.00000  Uiso   1.00
O289   O     0.83333   0.43892   0.20487   0.00000  Uiso   1.00
O290   O     0.83334   0.56108   0.12846   0.00000  Uiso   1.00
O291   O     0.83333   0.43893   0.12843   0.00000  Uiso   1.00
O292   O     0.83334   0.56107   0.20490   0.00000  Uiso   1.00
O293   O     0.75725   0.50000   0.19595   0.00000  Uiso   1.00
O294   O     0.90942   0.50000   0.13739   0.00000  Uiso   1.00
O295   O     0.75725   0.50000   0.11950   0.00000  Uiso   1.00
O296   O     0.90942   0.50000   0.21383   0.00000  Uiso   1.00
Zn297  Zn    0.83333   0.49999   0.21771   0.00000  Uiso   1.00
Zn298  Zn    0.83333   0.50001   0.11563   0.00000  Uiso   1.00
Br299  Br    0.98557   0.45344   0.10316   0.00000  Uiso   1.00
Br300  Br    0.68110   0.54655   0.23018   0.00000  Uiso   1.00
N301   N     0.74203   0.37662   0.12984   0.00000  Uiso   1.00
H302   H     0.71114   0.36712   0.14740   0.00000  Uiso   1.00
H303   H     0.73218   0.36893   0.09574   0.00000  Uiso   1.00
N304   N     0.92464   0.62338   0.20346   0.00000  Uiso   1.00
H305   H     0.95551   0.63288   0.18589   0.00000  Uiso   1.00
H306   H     0.93452   0.63107   0.23757   0.00000  Uiso   1.00
N307   N     0.74299   0.61942   0.12862   0.00000  Uiso   1.00
H308   H     0.73309   0.62800   0.09466   0.00000  Uiso   1.00
H309   H     0.71185   0.62614   0.14628   0.00000  Uiso   1.00
N310   N     0.92367   0.38057   0.20473   0.00000  Uiso   1.00
H311   H     0.93354   0.37199   0.23870   0.00000  Uiso   1.00
H312   H     0.95482   0.37385   0.18709   0.00000  Uiso   1.00
N313   N     0.89453   0.56072   0.05128   0.00000  Uiso   1.00
H314   H     0.91929   0.54726   0.07762   0.00000  Uiso   1.00
H315   H     0.86995   0.58211   0.06334   0.00000  Uiso   1.00
N316   N     0.77221   0.43924   0.28206   0.00000  Uiso   1.00
H317   H     0.74752   0.45265   0.25565   0.00000  Uiso   1.00
H318   H     0.79684   0.41784   0.27009   0.00000  Uiso   1.00
N319   N     0.89558   0.55791   0.29060   0.00000  Uiso   1.00
H320   H     0.93446   0.55431   0.30490   0.00000  Uiso   1.00
H321   H     0.88451   0.58823   0.29768   0.00000  Uiso   1.00
N322   N     0.77108   0.44210   0.04273   0.00000  Uiso   1.00
H323   H     0.78206   0.41177   0.03558   0.00000  Uiso   1.00
H324   H     0.73219   0.44577   0.02849   0.00000  Uiso   1.00
C325   C     0.16620   0.75357   0.16684   0.00000  Uiso   1.00
C326   C     0.16713   0.91310   0.16650   0.00000  Uiso   1.00
C327   C     0.06733   0.83291   0.15521   0.00000  Uiso   1.00
C328   C     0.26600   0.83375   0.17812   0.00000  Uiso   1.00
C329   C     0.01312   0.82595   0.15054   0.00000  Uiso   1.00
C330   C     0.32022   0.84072   0.18280   0.00000  Uiso   1.00
C331   C     0.12113   0.68751   0.14787   0.00000  Uiso   1.00
C332   C     0.21220   0.97916   0.18546   0.00000  Uiso   1.00
C333   C     0.12160   0.97721   0.14725   0.00000  Uiso   1.00
C334   C     0.21173   0.68945   0.18609   0.00000  Uiso   1.00
C335   C     0.16713   0.95727   0.16606   0.00000  Uiso   1.00
C336   C     0.16620   0.70940   0.16727   0.00000  Uiso   1.00
C337   C     0.19676   0.86211   0.02634   0.00000  Uiso   1.00
C338   C     0.13658   0.80455   0.30700   0.00000  Uiso   1.00
C339   C     0.19693   0.86169   0.31190   0.00000  Uiso   1.00
C340   C     0.13640   0.80498   0.02143   0.00000  Uiso   1.00
N341   N     0.16665   0.83332   0.28573   0.00000  Uiso   1.00
N342   N     0.16668   0.83334   0.04760   0.00000  Uiso   1.00
O343   O     0.16666   0.77225   0.20487   0.00000  Uiso   1.00
O344   O     0.16667   0.89442   0.12846   0.00000  Uiso   1.00
O345   O     0.16666   0.77226   0.12843   0.00000  Uiso   1.00
O346   O     0.16667   0.89441   0.20490   0.00000  Uiso   1.00
O347   O     0.09058   0.83333   0.19595   0.00000  Uiso   1.00
O348   O     0.24275   0.83334   0.13739   0.00000  Uiso   1.00
O349   O     0.09058   0.83334   0.11950   0.00000  Uiso   1.00
O350   O     0.24275   0.83333   0.21383   0.00000  Uiso   1.00
Zn351  Zn    0.16667   0.83333   0.21771   0.00000  Uiso   1.00
Zn352  Zn    0.16667   0.83334   0.11563   0.00000  Uiso   1.00
Br353  Br    0.31890   0.78677   0.10316   0.00000  Uiso   1.00
Br354  Br    0.01443   0.87989   0.23018   0.00000  Uiso   1.00
N355   N     0.07536   0.70996   0.12984   0.00000  Uiso   1.00
H356   H     0.04448   0.70046   0.14740   0.00000  Uiso   1.00
H357   H     0.06551   0.70226   0.09574   0.00000  Uiso   1.00
N358   N     0.25798   0.95671   0.20346   0.00000  Uiso   1.00
H359   H     0.28885   0.96621   0.18589   0.00000  Uiso   1.00
H360   H     0.26785   0.96440   0.23757   0.00000  Uiso   1.00
N361   N     0.07632   0.95276   0.12862   0.00000  Uiso   1.00
H362   H     0.06642   0.96134   0.09466   0.00000  Uiso   1.00
H363   H     0.04518   0.95948   0.14628   0.00000  Uiso   1.00
N364   N     0.25700   0.71391   0.20473   0.00000  Uiso   1.00
H365   H     0.26688   0.70533   0.23870   0.00000  Uiso   1.00
H366   H     0.28816   0.70718   0.18709   0.00000  Uiso   1.00
N367   N     0.22786   0.89405   0.05128   0.00000  Uiso   1.00
H368   H     0.25263   0.88059   0.07762   0.00000  Uiso   1.00
H369   H     0.20329   0.91544   0.06334   0.00000  Uiso   1.00
N370   N     0.10554   0.77258   0.28206   0.00000  Uiso   1.00
H371   H     0.08086   0.78599   0.25565   0.00000  Uiso   1.00
H372   H     0.13018   0.75117   0.27009   0.00000  Uiso   1.00
N373   N     0.22891   0.89124   0.29060   0.00000  Uiso   1.00
H374   H     0.26779   0.88764   0.30490   0.00000  Uiso   1.00
H375   H     0.21785   0.92156   0.29768   0.00000  Uiso   1.00
N376   N     0.10441   0.77543   0.04273   0.00000  Uiso   1.00
H377   H     0.11540   0.74511   0.03558   0.00000  Uiso   1.00
H378   H     0.06552   0.77910   0.02849   0.00000  Uiso   1.00
C379   C     0.49954   0.75357   0.16684   0.00000  Uiso   1.00
C380   C     0.50046   0.91310   0.16650   0.00000  Uiso   1.00
C381   C     0.40067   0.83291   0.15521   0.00000  Uiso   1.00
C382   C     0.59933   0.83375   0.17812   0.00000  Uiso   1.00
C383   C     0.34645   0.82595   0.15054   0.00000  Uiso   1.00
C384   C     0.65355   0.84072   0.18280   0.00000  Uiso   1.00
C385   C     0.45447   0.68751   0.14787   0.00000  Uiso   1.00
C386   C     0.54553   0.97916   0.18546   0.00000  Uiso   1.00
C387   C     0.45494   0.97721   0.14725   0.00000  Uiso   1.00
C388   C     0.54506   0.68945   0.18609   0.00000  Uiso   1.00
C389   C     0.50047   0.95727   0.16606   0.00000  Uiso   1.00
C390   C     0.49953   0.70940   0.16727   0.00000  Uiso   1.00
C391   C     0.53010   0.86211   0.02634   0.00000  Uiso   1.00
C392   C     0.46991   0.80455   0.30700   0.00000  Uiso   1.00
C393   C     0.53027   0.86169   0.31190   0.00000  Uiso   1.00
C394   C     0.46973   0.80498   0.02143   0.00000  Uiso   1.00
N395   N     0.49999   0.83332   0.28573   0.00000  Uiso   1.00
N396   N     0.50001   0.83334   0.04760   0.00000  Uiso   1.00
O397   O     0.50000   0.77225   0.20487   0.00000  Uiso   1.00
O398   O     0.50000   0.89442   0.12846   0.00000  Uiso   1.00
O399   O     0.50000   0.77226   0.12843   0.00000  Uiso   1.00
O400   O     0.50000   0.89441   0.20490   0.00000  Uiso   1.00
O401   O     0.42392   0.83333   0.19595   0.00000  Uiso   1.00
O402   O     0.57608   0.83334   0.13739   0.00000  Uiso   1.00
O403   O     0.42392   0.83334   0.11950   0.00000  Uiso   1.00
O404   O     0.57608   0.83333   0.21383   0.00000  Uiso   1.00
Zn405  Zn    0.50000   0.83333   0.21771   0.00000  Uiso   1.00
Zn406  Zn    0.50000   0.83334   0.11563   0.00000  Uiso   1.00
Br407  Br    0.65223   0.78677   0.10316   0.00000  Uiso   1.00
Br408  Br    0.34777   0.87989   0.23018   0.00000  Uiso   1.00
N409   N     0.40870   0.70996   0.12984   0.00000  Uiso   1.00
H410   H     0.37781   0.70046   0.14740   0.00000  Uiso   1.00
H411   H     0.39884   0.70226   0.09574   0.00000  Uiso   1.00
N412   N     0.59131   0.95671   0.20346   0.00000  Uiso   1.00
H413   H     0.62218   0.96621   0.18589   0.00000  Uiso   1.00
H414   H     0.60118   0.96440   0.23757   0.00000  Uiso   1.00
N415   N     0.40966   0.95276   0.12862   0.00000  Uiso   1.00
H416   H     0.39976   0.96134   0.09466   0.00000  Uiso   1.00
H417   H     0.37851   0.95948   0.14628   0.00000  Uiso   1.00
N418   N     0.59033   0.71391   0.20473   0.00000  Uiso   1.00
H419   H     0.60021   0.70533   0.23870   0.00000  Uiso   1.00
H420   H     0.62149   0.70718   0.18709   0.00000  Uiso   1.00
N421   N     0.56119   0.89405   0.05128   0.00000  Uiso   1.00
H422   H     0.58596   0.88059   0.07762   0.00000  Uiso   1.00
H423   H     0.53662   0.91544   0.06334   0.00000  Uiso   1.00
N424   N     0.43888   0.77258   0.28206   0.00000  Uiso   1.00
H425   H     0.41419   0.78599   0.25565   0.00000  Uiso   1.00
H426   H     0.46351   0.75117   0.27009   0.00000  Uiso   1.00
N427   N     0.56224   0.89124   0.29060   0.00000  Uiso   1.00
H428   H     0.60113   0.88764   0.30490   0.00000  Uiso   1.00
H429   H     0.55118   0.92156   0.29768   0.00000  Uiso   1.00
N430   N     0.43774   0.77543   0.04273   0.00000  Uiso   1.00
H431   H     0.44873   0.74511   0.03558   0.00000  Uiso   1.00
H432   H     0.39886   0.77910   0.02849   0.00000  Uiso   1.00
C433   C     0.83287   0.75357   0.16684   0.00000  Uiso   1.00
C434   C     0.83380   0.91310   0.16650   0.00000  Uiso   1.00
C435   C     0.73400   0.83291   0.15521   0.00000  Uiso   1.00
C436   C     0.93267   0.83375   0.17812   0.00000  Uiso   1.00
C437   C     0.67978   0.82595   0.15054   0.00000  Uiso   1.00
C438   C     0.98688   0.84072   0.18280   0.00000  Uiso   1.00
C439   C     0.78780   0.68751   0.14787   0.00000  Uiso   1.00
C440   C     0.87887   0.97916   0.18546   0.00000  Uiso   1.00
C441   C     0.78827   0.97721   0.14725   0.00000  Uiso   1.00
C442   C     0.87839   0.68945   0.18609   0.00000  Uiso   1.00
C443   C     0.83380   0.95727   0.16606   0.00000  Uiso   1.00
C444   C     0.83287   0.70940   0.16727   0.00000  Uiso   1.00
C445   C     0.86343   0.86211   0.02634   0.00000  Uiso   1.00
C446   C     0.80325   0.80455   0.30700   0.00000  Uiso   1.00
C447   C     0.86360   0.86169   0.31190   0.00000  Uiso   1.00
C448   C     0.80306   0.80498   0.02143   0.00000  Uiso   1.00
N449   N     0.83332   0.83332   0.28573   0.00000  Uiso   1.00
N450   N     0.83335   0.83334   0.04760   0.00000  Uiso   1.00
O451   O     0.83333   0.77225   0.20487   0.00000  Uiso   1.00
O452   O     0.83334   0.89442   0.12846   0.00000  Uiso   1.00
O453   O     0.83333   0.77226   0.12843   0.00000  Uiso   1.00
O454   O     0.83334   0.89441   0.20490   0.00000  Uiso   1.00
O455   O     0.75725   0.83333   0.19595   0.00000  Uiso   1.00
O456   O     0.90942   0.83334   0.13739   0.00000  Uiso   1.00
O457   O     0.75725   0.83334   0.11950   0.00000  Uiso   1.00
O458   O     0.90942   0.83333   0.21383   0.00000  Uiso   1.00
Zn459  Zn    0.83333   0.83333   0.21771   0.00000  Uiso   1.00
Zn460  Zn    0.83333   0.83334   0.11563   0.00000  Uiso   1.00
Br461  Br    0.98557   0.78677   0.10316   0.00000  Uiso   1.00
Br462  Br    0.68110   0.87989   0.23018   0.00000  Uiso   1.00
N463   N     0.74203   0.70996   0.12984   0.00000  Uiso   1.00
H464   H     0.71114   0.70046   0.14740   0.00000  Uiso   1.00
H465   H     0.73218   0.70226   0.09574   0.00000  Uiso   1.00
N466   N     0.92464   0.95671   0.20346   0.00000  Uiso   1.00
H467   H     0.95551   0.96621   0.18589   0.00000  Uiso   1.00
H468   H     0.93452   0.96440   0.23757   0.00000  Uiso   1.00
N469   N     0.74299   0.95276   0.12862   0.00000  Uiso   1.00
H470   H     0.73309   0.96134   0.09466   0.00000  Uiso   1.00
H471   H     0.71185   0.95948   0.14628   0.00000  Uiso   1.00
N472   N     0.92367   0.71391   0.20473   0.00000  Uiso   1.00
H473   H     0.93354   0.70533   0.23870   0.00000  Uiso   1.00
H474   H     0.95482   0.70718   0.18709   0.00000  Uiso   1.00
N475   N     0.89453   0.89405   0.05128   0.00000  Uiso   1.00
H476   H     0.91929   0.88059   0.07762   0.00000  Uiso   1.00
H477   H     0.86995   0.91544   0.06334   0.00000  Uiso   1.00
N478   N     0.77221   0.77258   0.28206   0.00000  Uiso   1.00
H479   H     0.74752   0.78599   0.25565   0.00000  Uiso   1.00
H480   H     0.79684   0.75117   0.27009   0.00000  Uiso   1.00
N481   N     0.89558   0.89124   0.29060   0.00000  Uiso   1.00
H482   H     0.93446   0.88764   0.30490   0.00000  Uiso   1.00
H483   H     0.88451   0.92156   0.29768   0.00000  Uiso   1.00
N484   N     0.77108   0.77543   0.04273   0.00000  Uiso   1.00
H485   H     0.78206   0.74511   0.03558   0.00000  Uiso   1.00
H486   H     0.73219   0.77910   0.02849   0.00000  Uiso   1.00
C487   C     0.16620   0.08690   0.50017   0.00000  Uiso   1.00
C488   C     0.16713   0.24643   0.49983   0.00000  Uiso   1.00
C489   C     0.06733   0.16624   0.48854   0.00000  Uiso   1.00
C490   C     0.26600   0.16709   0.51146   0.00000  Uiso   1.00
C491   C     0.01312   0.15928   0.48387   0.00000  Uiso   1.00
C492   C     0.32022   0.17405   0.51613   0.00000  Uiso   1.00
C493   C     0.12113   0.02084   0.48120   0.00000  Uiso   1.00
C494   C     0.21220   0.31249   0.51879   0.00000  Uiso   1.00
C495   C     0.12160   0.31055   0.48058   0.00000  Uiso   1.00
C496   C     0.21173   0.02279   0.51942   0.00000  Uiso   1.00
C497   C     0.16713   0.29060   0.49939   0.00000  Uiso   1.00
C498   C     0.16620   0.04273   0.50061   0.00000  Uiso   1.00
C499   C     0.19676   0.19544   0.35967   0.00000  Uiso   1.00
C500   C     0.13658   0.13789   0.64033   0.00000  Uiso   1.00
C501   C     0.19693   0.19503   0.64523   0.00000  Uiso   1.00
C502   C     0.13640   0.13831   0.35477   0.00000  Uiso   1.00
N503   N     0.16665   0.16666   0.61907   0.00000  Uiso   1.00
N504   N     0.16668   0.16668   0.38093   0.00000  Uiso   1.00
O505   O     0.16666   0.10558   0.53821   0.00000  Uiso   1.00
O506   O     0.16667   0.22775   0.46179   0.00000  Uiso   1.00
O507   O     0.16666   0.10559   0.46176   0.00000  Uiso   1.00
O508   O     0.16667   0.22774   0.53824   0.00000  Uiso   1.00
O509   O     0.09058   0.16666   0.52928   0.00000  Uiso   1.00
O510   O     0.24275   0.16667   0.47072   0.00000  Uiso   1.00
O511   O     0.09058   0.16667   0.45284   0.00000  Uiso   1.00
O512   O     0.24275   0.16666   0.54716   0.00000  Uiso   1.00
Zn513  Zn    0.16667   0.16666   0.55104   0.00000  Uiso   1.00
Zn514  Zn    0.16667   0.16667   0.44896   0.00000  Uiso   1.00
Br515  Br    0.31890   0.12011   0.43650   0.00000  Uiso   1.00
Br516  Br    0.01443   0.21322   0.56351   0.00000  Uiso   1.00
N517   N     0.07536   0.04329   0.46318   0.00000  Uiso   1.00
H518   H     0.04448   0.03379   0.48074   0.00000  Uiso   1.00
H519   H     0.06551   0.03560   0.42907   0.00000  Uiso   1.00
N520   N     0.25798   0.29004   0.53680   0.00000  Uiso   1.00
H521   H     0.28885   0.29955   0.51922   0.00000  Uiso   1.00
H522   H     0.26785   0.29774   0.57090   0.00000  Uiso   1.00
N523   N     0.07632   0.28609   0.46196   0.00000  Uiso   1.00
H524   H     0.06642   0.29467   0.42799   0.00000  Uiso   1.00
H525   H     0.04518   0.29281   0.47962   0.00000  Uiso   1.00
N526   N     0.25700   0.04724   0.53806   0.00000  Uiso   1.00
H527   H     0.26688   0.03866   0.57203   0.00000  Uiso   1.00
H528   H     0.28816   0.04052   0.52042   0.00000  Uiso   1.00
N529   N     0.22786   0.22738   0.38461   0.00000  Uiso   1.00
H530   H     0.25263   0.21393   0.41095   0.00000  Uiso   1.00
H531   H     0.20329   0.24878   0.39668   0.00000  Uiso   1.00
N532   N     0.10554   0.10591   0.61540   0.00000  Uiso   1.00
H533   H     0.08086   0.11932   0.58898   0.00000  Uiso   1.00
H534   H     0.13018   0.08451   0.60342   0.00000  Uiso   1.00
N535   N     0.22891   0.22458   0.62393   0.00000  Uiso   1.00
H536   H     0.26779   0.22097   0.63823   0.00000  Uiso   1.00
H537   H     0.21785   0.25490   0.63101   0.00000  Uiso   1.00
N538   N     0.10441   0.10877   0.37606   0.00000  Uiso   1.00
H539   H     0.11540   0.07844   0.36892   0.00000  Uiso   1.00
H540   H     0.06552   0.11244   0.36182   0.00000  Uiso   1.00
C541   C     0.49954   0.08690   0.50017   0.00000  Uiso   1.00
C542   C     0.50046   0.24643   0.49983   0.00000  Uiso   1.00
C543   C     0.40067   0.16624   0.48854   0.00000  Uiso   1.00
C544   C     0.59933   0.16709   0.51146   0.00000  Uiso   1.00
C545   C     0.34645   0.15928   0.48387   0.00000  Uiso   1.00
C546   C     0.65355   0.17405   0.51613   0.00000  Uiso   1.00
C547   C     0.45447   0.02084   0.48120   0.00000  Uiso   1.00
C548   C     0.54553   0.31249   0.51879   0.00000  Uiso   1.00
C549   C     0.45494   0.31055   0.48058   0.00000  Uiso   1.00
C550   C     0.54506   0.02279   0.51942   0.00000  Uiso   1.00
C551   C     0.50047   0.29060   0.49939   0.00000  Uiso   1.00
C552   C     0.49953   0.04273   0.50061   0.00000  Uiso   1.00
C553   C     0.53010   0.19544   0.35967   0.00000  Uiso   1.00
C554   C     0.46991   0.13789   0.64033   0.00000  Uiso   1.00
C555   C     0.53027   0.19503   0.64523   0.00000  Uiso   1.00
C556   C     0.46973   0.13831   0.35477   0.00000  Uiso   1.00
N557   N     0.49999   0.16666   0.61907   0.00000  Uiso   1.00
N558   N     0.50001   0.16668   0.38093   0.00000  Uiso   1.00
O559   O     0.50000   0.10558   0.53821   0.00000  Uiso   1.00
O560   O     0.50000   0.22775   0.46179   0.00000  Uiso   1.00
O561   O     0.50000   0.10559   0.46176   0.00000  Uiso   1.00
O562   O     0.50000   0.22774   0.53824   0.00000  Uiso   1.00
O563   O     0.42392   0.16666   0.52928   0.00000  Uiso   1.00
O564   O     0.57608   0.16667   0.47072   0.00000  Uiso   1.00
O565   O     0.42392   0.16667   0.45284   0.00000  Uiso   1.00
O566   O     0.57608   0.16666   0.54716   0.00000  Uiso   1.00
Zn567  Zn    0.50000   0.16666   0.55104   0.00000  Uiso   1.00
Zn568  Zn    0.50000   0.16667   0.44896   0.00000  Uiso   1.00
Br569  Br    0.65223   0.12011   0.43650   0.00000  Uiso   1.00
Br570  Br    0.34777   0.21322   0.56351   0.00000  Uiso   1.00
N571   N     0.40870   0.04329   0.46318   0.00000  Uiso   1.00
H572   H     0.37781   0.03379   0.48074   0.00000  Uiso   1.00
H573   H     0.39884   0.03560   0.42907   0.00000  Uiso   1.00
N574   N     0.59131   0.29004   0.53680   0.00000  Uiso   1.00
H575   H     0.62218   0.29955   0.51922   0.00000  Uiso   1.00
H576   H     0.60118   0.29774   0.57090   0.00000  Uiso   1.00
N577   N     0.40966   0.28609   0.46196   0.00000  Uiso   1.00
H578   H     0.39976   0.29467   0.42799   0.00000  Uiso   1.00
H579   H     0.37851   0.29281   0.47962   0.00000  Uiso   1.00
N580   N     0.59033   0.04724   0.53806   0.00000  Uiso   1.00
H581   H     0.60021   0.03866   0.57203   0.00000  Uiso   1.00
H582   H     0.62149   0.04052   0.52042   0.00000  Uiso   1.00
N583   N     0.56119   0.22738   0.38461   0.00000  Uiso   1.00
H584   H     0.58596   0.21393   0.41095   0.00000  Uiso   1.00
H585   H     0.53662   0.24878   0.39668   0.00000  Uiso   1.00
N586   N     0.43888   0.10591   0.61540   0.00000  Uiso   1.00
H587   H     0.41419   0.11932   0.58898   0.00000  Uiso   1.00
H588   H     0.46351   0.08451   0.60342   0.00000  Uiso   1.00
N589   N     0.56224   0.22458   0.62393   0.00000  Uiso   1.00
H590   H     0.60113   0.22097   0.63823   0.00000  Uiso   1.00
H591   H     0.55118   0.25490   0.63101   0.00000  Uiso   1.00
N592   N     0.43774   0.10877   0.37606   0.00000  Uiso   1.00
H593   H     0.44873   0.07844   0.36892   0.00000  Uiso   1.00
H594   H     0.39886   0.11244   0.36182   0.00000  Uiso   1.00
C595   C     0.83287   0.08690   0.50017   0.00000  Uiso   1.00
C596   C     0.83380   0.24643   0.49983   0.00000  Uiso   1.00
C597   C     0.73400   0.16624   0.48854   0.00000  Uiso   1.00
C598   C     0.93267   0.16709   0.51146   0.00000  Uiso   1.00
C599   C     0.67978   0.15928   0.48387   0.00000  Uiso   1.00
C600   C     0.98688   0.17405   0.51613   0.00000  Uiso   1.00
C601   C     0.78780   0.02084   0.48120   0.00000  Uiso   1.00
C602   C     0.87887   0.31249   0.51879   0.00000  Uiso   1.00
C603   C     0.78827   0.31055   0.48058   0.00000  Uiso   1.00
C604   C     0.87839   0.02279   0.51942   0.00000  Uiso   1.00
C605   C     0.83380   0.29060   0.49939   0.00000  Uiso   1.00
C606   C     0.83287   0.04273   0.50061   0.00000  Uiso   1.00
C607   C     0.86343   0.19544   0.35967   0.00000  Uiso   1.00
C608   C     0.80325   0.13789   0.64033   0.00000  Uiso   1.00
C609   C     0.86360   0.19503   0.64523   0.00000  Uiso   1.00
C610   C     0.80306   0.13831   0.35477   0.00000  Uiso   1.00
N611   N     0.83332   0.16666   0.61907   0.00000  Uiso   1.00
N612   N     0.83335   0.16668   0.38093   0.00000  Uiso   1.00
O613   O     0.83333   0.10558   0.53821   0.00000  Uiso   1.00
O614   O     0.83334   0.22775   0.46179   0.00000  Uiso   1.00
O615   O     0.83333   0.10559   0.46176   0.00000  Uiso   1.00
O616   O     0.83334   0.22774   0.53824   0.00000  Uiso   1.00
O617   O     0.75725   0.16666   0.52928   0.00000  Uiso   1.00
O618   O     0.90942   0.16667   0.47072   0.00000  Uiso   1.00
O619   O     0.75725   0.16667   0.45284   0.00000  Uiso   1.00
O620   O     0.90942   0.16666   0.54716   0.00000  Uiso   1.00
Zn621  Zn    0.83333   0.16666   0.55104   0.00000  Uiso   1.00
Zn622  Zn    0.83333   0.16667   0.44896   0.00000  Uiso   1.00
Br623  Br    0.98557   0.12011   0.43650   0.00000  Uiso   1.00
Br624  Br    0.68110   0.21322   0.56351   0.00000  Uiso   1.00
N625   N     0.74203   0.04329   0.46318   0.00000  Uiso   1.00
H626   H     0.71114   0.03379   0.48074   0.00000  Uiso   1.00
H627   H     0.73218   0.03560   0.42907   0.00000  Uiso   1.00
N628   N     0.92464   0.29004   0.53680   0.00000  Uiso   1.00
H629   H     0.95551   0.29955   0.51922   0.00000  Uiso   1.00
H630   H     0.93452   0.29774   0.57090   0.00000  Uiso   1.00
N631   N     0.74299   0.28609   0.46196   0.00000  Uiso   1.00
H632   H     0.73309   0.29467   0.42799   0.00000  Uiso   1.00
H633   H     0.71185   0.29281   0.47962   0.00000  Uiso   1.00
N634   N     0.92367   0.04724   0.53806   0.00000  Uiso   1.00
H635   H     0.93354   0.03866   0.57203   0.00000  Uiso   1.00
H636   H     0.95482   0.04052   0.52042   0.00000  Uiso   1.00
N637   N     0.89453   0.22738   0.38461   0.00000  Uiso   1.00
H638   H     0.91929   0.21393   0.41095   0.00000  Uiso   1.00
H639   H     0.86995   0.24878   0.39668   0.00000  Uiso   1.00
N640   N     0.77221   0.10591   0.61540   0.00000  Uiso   1.00
H641   H     0.74752   0.11932   0.58898   0.00000  Uiso   1.00
H642   H     0.79684   0.08451   0.60342   0.00000  Uiso   1.00
N643   N     0.89558   0.22458   0.62393   0.00000  Uiso   1.00
H644   H     0.93446   0.22097   0.63823   0.00000  Uiso   1.00
H645   H     0.88451   0.25490   0.63101   0.00000  Uiso   1.00
N646   N     0.77108   0.10877   0.37606   0.00000  Uiso   1.00
H647   H     0.78206   0.07844   0.36892   0.00000  Uiso   1.00
H648   H     0.73219   0.11244   0.36182   0.00000  Uiso   1.00
C649   C     0.16620   0.42024   0.50017   0.00000  Uiso   1.00
C650   C     0.16713   0.57976   0.49983   0.00000  Uiso   1.00
C651   C     0.06733   0.49958   0.48854   0.00000  Uiso   1.00
C652   C     0.26600   0.50042   0.51146   0.00000  Uiso   1.00
C653   C     0.01312   0.49262   0.48387   0.00000  Uiso   1.00
C654   C     0.32022   0.50738   0.51613   0.00000  Uiso   1.00
C655   C     0.12113   0.35418   0.48120   0.00000  Uiso   1.00
C656   C     0.21220   0.64582   0.51879   0.00000  Uiso   1.00
C657   C     0.12160   0.64388   0.48058   0.00000  Uiso   1.00
C658   C     0.21173   0.35612   0.51942   0.00000  Uiso   1.00
C659   C     0.16713   0.62394   0.49939   0.00000  Uiso   1.00
C660   C     0.16620   0.37606   0.50061   0.00000  Uiso   1.00
C661   C     0.19676   0.52877   0.35967   0.00000  Uiso   1.00
C662   C     0.13658   0.47122   0.64033   0.00000  Uiso   1.00
C663   C     0.19693   0.52836   0.64523   0.00000  Uiso   1.00
C664   C     0.13640   0.47164   0.35477   0.00000  Uiso   1.00
N665   N     0.16665   0.49999   0.61907   0.00000  Uiso   1.00
N666   N     0.16668   0.50001   0.38093   0.00000  Uiso   1.00
O667   O     0.16666   0.43892   0.53821   0.00000  Uiso   1.00
O668   O     0.16667   0.56108   0.46179   0.00000  Uiso   1.00
O669   O     0.16666   0.43893   0.46176   0.00000  Uiso   1.00
O670   O     0.16667   0.56107   0.53824   0.00000  Uiso   1.00
O671   O     0.09058   0.50000   0.52928   0.00000  Uiso   1.00
O672   O     0.24275   0.50000   0.47072   0.00000  Uiso   1.00
O673   O     0.09058   0.50000   0.45284   0.00000  Uiso   1.00
O674   O     0.24275   0.50000   0.54716   0.00000  Uiso   1.00
Zn675  Zn    0.16667   0.49999   0.55104   0.00000  Uiso   1.00
Zn676  Zn    0.16667   0.50001   0.44896   0.00000  Uiso   1.00
Br677  Br    0.31890   0.45344   0.43650   0.00000  Uiso   1.00
Br678  Br    0.01443   0.54655   0.56351   0.00000  Uiso   1.00
N679   N     0.07536   0.37662   0.46318   0.00000  Uiso   1.00
H680   H     0.04448   0.36712   0.48074   0.00000  Uiso   1.00
H681   H     0.06551   0.36893   0.42907   0.00000  Uiso   1.00
N682   N     0.25798   0.62338   0.53680   0.00000  Uiso   1.00
H683   H     0.28885   0.63288   0.51922   0.00000  Uiso   1.00
H684   H     0.26785   0.63107   0.57090   0.00000  Uiso   1.00
N685   N     0.07632   0.61942   0.46196   0.00000  Uiso   1.00
H686   H     0.06642   0.62800   0.42799   0.00000  Uiso   1.00
H687   H     0.04518   0.62614   0.47962   0.00000  Uiso   1.00
N688   N     0.25700   0.38057   0.53806   0.00000  Uiso   1.00
H689   H     0.26688   0.37199   0.57203   0.00000  Uiso   1.00
H690   H     0.28816   0.37385   0.52042   0.00000  Uiso   1.00
N691   N     0.22786   0.56072   0.38461   0.00000  Uiso   1.00
H692   H     0.25263   0.54726   0.41095   0.00000  Uiso   1.00
H693   H     0.20329   0.58211   0.39668   0.00000  Uiso   1.00
N694   N     0.10554   0.43924   0.61540   0.00000  Uiso   1.00
H695   H     0.08086   0.45265   0.58898   0.00000  Uiso   1.00
H696   H     0.13018   0.41784   0.60342   0.00000  Uiso   1.00
N697   N     0.22891   0.55791   0.62393   0.00000  Uiso   1.00
H698   H     0.26779   0.55431   0.63823   0.00000  Uiso   1.00
H699   H     0.21785   0.58823   0.63101   0.00000  Uiso   1.00
N700   N     0.10441   0.44210   0.37606   0.00000  Uiso   1.00
H701   H     0.11540   0.41177   0.36892   0.00000  Uiso   1.00
H702   H     0.06552   0.44577   0.36182   0.00000  Uiso   1.00
C703   C     0.49954   0.42024   0.50017   0.00000  Uiso   1.00
C704   C     0.50046   0.57976   0.49983   0.00000  Uiso   1.00
C705   C     0.40067   0.49958   0.48854   0.00000  Uiso   1.00
C706   C     0.59933   0.50042   0.51146   0.00000  Uiso   1.00
C707   C     0.34645   0.49262   0.48387   0.00000  Uiso   1.00
C708   C     0.65355   0.50738   0.51613   0.00000  Uiso   1.00
C709   C     0.45447   0.35418   0.48120   0.00000  Uiso   1.00
C710   C     0.54553   0.64582   0.51879   0.00000  Uiso   1.00
C711   C     0.45494   0.64388   0.48058   0.00000  Uiso   1.00
C712   C     0.54506   0.35612   0.51942   0.00000  Uiso   1.00
C713   C     0.50047   0.62394   0.49939   0.00000  Uiso   1.00
C714   C     0.49953   0.37606   0.50061   0.00000  Uiso   1.00
C715   C     0.53010   0.52877   0.35967   0.00000  Uiso   1.00
C716   C     0.46991   0.47122   0.64033   0.00000  Uiso   1.00
C717   C     0.53027   0.52836   0.64523   0.00000  Uiso   1.00
C718   C     0.46973   0.47164   0.35477   0.00000  Uiso   1.00
N719   N     0.49999   0.49999   0.61907   0.00000  Uiso   1.00
N720   N     0.50001   0.50001   0.38093   0.00000  Uiso   1.00
O721   O     0.50000   0.43892   0.53821   0.00000  Uiso   1.00
O722   O     0.50000   0.56108   0.46179   0.00000  Uiso   1.00
O723   O     0.50000   0.43893   0.46176   0.00000  Uiso   1.00
O724   O     0.50000   0.56107   0.53824   0.00000  Uiso   1.00
O725   O     0.42392   0.50000   0.52928   0.00000  Uiso   1.00
O726   O     0.57608   0.50000   0.47072   0.00000  Uiso   1.00
O727   O     0.42392   0.50000   0.45284   0.00000  Uiso   1.00
O728   O     0.57608   0.50000   0.54716   0.00000  Uiso   1.00
Zn729  Zn    0.50000   0.49999   0.55104   0.00000  Uiso   1.00
Zn730  Zn    0.50000   0.50001   0.44896   0.00000  Uiso   1.00
Br731  Br    0.65223   0.45344   0.43650   0.00000  Uiso   1.00
Br732  Br    0.34777   0.54655   0.56351   0.00000  Uiso   1.00
N733   N     0.40870   0.37662   0.46318   0.00000  Uiso   1.00
H734   H     0.37781   0.36712   0.48074   0.00000  Uiso   1.00
H735   H     0.39884   0.36893   0.42907   0.00000  Uiso   1.00
N736   N     0.59131   0.62338   0.53680   0.00000  Uiso   1.00
H737   H     0.62218   0.63288   0.51922   0.00000  Uiso   1.00
H738   H     0.60118   0.63107   0.57090   0.00000  Uiso   1.00
N739   N     0.40966   0.61942   0.46196   0.00000  Uiso   1.00
H740   H     0.39976   0.62800   0.42799   0.00000  Uiso   1.00
H741   H     0.37851   0.62614   0.47962   0.00000  Uiso   1.00
N742   N     0.59033   0.38057   0.53806   0.00000  Uiso   1.00
H743   H     0.60021   0.37199   0.57203   0.00000  Uiso   1.00
H744   H     0.62149   0.37385   0.52042   0.00000  Uiso   1.00
N745   N     0.56119   0.56072   0.38461   0.00000  Uiso   1.00
H746   H     0.58596   0.54726   0.41095   0.00000  Uiso   1.00
H747   H     0.53662   0.58211   0.39668   0.00000  Uiso   1.00
N748   N     0.43888   0.43924   0.61540   0.00000  Uiso   1.00
H749   H     0.41419   0.45265   0.58898   0.00000  Uiso   1.00
H750   H     0.46351   0.41784   0.60342   0.00000  Uiso   1.00
N751   N     0.56224   0.55791   0.62393   0.00000  Uiso   1.00
H752   H     0.60113   0.55431   0.63823   0.00000  Uiso   1.00
H753   H     0.55118   0.58823   0.63101   0.00000  Uiso   1.00
N754   N     0.43774   0.44210   0.37606   0.00000  Uiso   1.00
H755   H     0.44873   0.41177   0.36892   0.00000  Uiso   1.00
H756   H     0.39886   0.44577   0.36182   0.00000  Uiso   1.00
C757   C     0.83287   0.42024   0.50017   0.00000  Uiso   1.00
C758   C     0.83380   0.57976   0.49983   0.00000  Uiso   1.00
C759   C     0.73400   0.49958   0.48854   0.00000  Uiso   1.00
C760   C     0.93267   0.50042   0.51146   0.00000  Uiso   1.00
C761   C     0.67978   0.49262   0.48387   0.00000  Uiso   1.00
C762   C     0.98688   0.50738   0.51613   0.00000  Uiso   1.00
C763   C     0.78780   0.35418   0.48120   0.00000  Uiso   1.00
C764   C     0.87887   0.64582   0.51879   0.00000  Uiso   1.00
C765   C     0.78827   0.64388   0.48058   0.00000  Uiso   1.00
C766   C     0.87839   0.35612   0.51942   0.00000  Uiso   1.00
C767   C     0.83380   0.62394   0.49939   0.00000  Uiso   1.00
C768   C     0.83287   0.37606   0.50061   0.00000  Uiso   1.00
C769   C     0.86343   0.52877   0.35967   0.00000  Uiso   1.00
C770   C     0.80325   0.47122   0.64033   0.00000  Uiso   1.00
C771   C     0.86360   0.52836   0.64523   0.00000  Uiso   1.00
C772   C     0.80306   0.47164   0.35477   0.00000  Uiso   1.00
N773   N     0.83332   0.49999   0.61907   0.00000  Uiso   1.00
N774   N     0.83335   0.50001   0.38093   0.00000  Uiso   1.00
O775   O     0.83333   0.43892   0.53821   0.00000  Uiso   1.00
O776   O     0.83334   0.56108   0.46179   0.00000  Uiso   1.00
O777   O     0.83333   0.43893   0.46176   0.00000  Uiso   1.00
O778   O     0.83334   0.56107   0.53824   0.00000  Uiso   1.00
O779   O     0.75725   0.50000   0.52928   0.00000  Uiso   1.00
O780   O     0.90942   0.50000   0.47072   0.00000  Uiso   1.00
O781   O     0.75725   0.50000   0.45284   0.00000  Uiso   1.00
O782   O     0.90942   0.50000   0.54716   0.00000  Uiso   1.00
Zn783  Zn    0.83333   0.49999   0.55104   0.00000  Uiso   1.00
Zn784  Zn    0.83333   0.50001   0.44896   0.00000  Uiso   1.00
Br785  Br    0.98557   0.45344   0.43650   0.00000  Uiso   1.00
Br786  Br    0.68110   0.54655   0.56351   0.00000  Uiso   1.00
N787   N     0.74203   0.37662   0.46318   0.00000  Uiso   1.00
H788   H     0.71114   0.36712   0.48074   0.00000  Uiso   1.00
H789   H     0.73218   0.36893   0.42907   0.00000  Uiso   1.00
N790   N     0.92464   0.62338   0.53680   0.00000  Uiso   1.00
H791   H     0.95551   0.63288   0.51922   0.00000  Uiso   1.00
H792   H     0.93452   0.63107   0.57090   0.00000  Uiso   1.00
N793   N     0.74299   0.61942   0.46196   0.00000  Uiso   1.00
H794   H     0.73309   0.62800   0.42799   0.00000  Uiso   1.00
H795   H     0.71185   0.62614   0.47962   0.00000  Uiso   1.00
N796   N     0.92367   0.38057   0.53806   0.00000  Uiso   1.00
H797   H     0.93354   0.37199   0.57203   0.00000  Uiso   1.00
H798   H     0.95482   0.37385   0.52042   0.00000  Uiso   1.00
N799   N     0.89453   0.56072   0.38461   0.00000  Uiso   1.00
H800   H     0.91929   0.54726   0.41095   0.00000  Uiso   1.00
H801   H     0.86995   0.58211   0.39668   0.00000  Uiso   1.00
N802   N     0.77221   0.43924   0.61540   0.00000  Uiso   1.00
H803   H     0.74752   0.45265   0.58898   0.00000  Uiso   1.00
H804   H     0.79684   0.41784   0.60342   0.00000  Uiso   1.00
N805   N     0.89558   0.55791   0.62393   0.00000  Uiso   1.00
H806   H     0.93446   0.55431   0.63823   0.00000  Uiso   1.00
H807   H     0.88451   0.58823   0.63101   0.00000  Uiso   1.00
N808   N     0.77108   0.44210   0.37606   0.00000  Uiso   1.00
H809   H     0.78206   0.41177   0.36892   0.00000  Uiso   1.00
H810   H     0.73219   0.44577   0.36182   0.00000  Uiso   1.00
C811   C     0.16620   0.75357   0.50017   0.00000  Uiso   1.00
C812   C     0.16713   0.91310   0.49983   0.00000  Uiso   1.00
C813   C     0.06733   0.83291   0.48854   0.00000  Uiso   1.00
C814   C     0.26600   0.83375   0.51146   0.00000  Uiso   1.00
C815   C     0.01312   0.82595   0.48387   0.00000  Uiso   1.00
C816   C     0.32022   0.84072   0.51613   0.00000  Uiso   1.00
C817   C     0.12113   0.68751   0.48120   0.00000  Uiso   1.00
C818   C     0.21220   0.97916   0.51879   0.00000  Uiso   1.00
C819   C     0.12160   0.97721   0.48058   0.00000  Uiso   1.00
C820   C     0.21173   0.68945   0.51942   0.00000  Uiso   1.00
C821   C     0.16713   0.95727   0.49939   0.00000  Uiso   1.00
C822   C     0.16620   0.70940   0.50061   0.00000  Uiso   1.00
C823   C     0.19676   0.86211   0.35967   0.00000  Uiso   1.00
C824   C     0.13658   0.80455   0.64033   0.00000  Uiso   1.00
C825   C     0.19693   0.86169   0.64523   0.00000  Uiso   1.00
C826   C     0.13640   0.80498   0.35477   0.00000  Uiso   1.00
N827   N     0.16665   0.83332   0.61907   0.00000  Uiso   1.00
N828   N     0.16668   0.83334   0.38093   0.00000  Uiso   1.00
O829   O     0.16666   0.77225   0.53821   0.00000  Uiso   1.00
O830   O     0.16667   0.89442   0.46179   0.00000  Uiso   1.00
O831   O     0.16666   0.77226   0.46176   0.00000  Uiso   1.00
O832   O     0.16667   0.89441   0.53824   0.00000  Uiso   1.00
O833   O     0.09058   0.83333   0.52928   0.00000  Uiso   1.00
O834   O     0.24275   0.83334   0.47072   0.00000  Uiso   1.00
O835   O     0.09058   0.83334   0.45284   0.00000  Uiso   1.00
O836   O     0.24275   0.83333   0.54716   0.00000  Uiso   1.00
Zn837  Zn    0.16667   0.83333   0.55104   0.00000  Uiso   1.00
Zn838  Zn    0.16667   0.83334   0.44896   0.00000  Uiso   1.00
Br839  Br    0.31890   0.78677   0.43650   0.00000  Uiso   1.00
Br840  Br    0.01443   0.87989   0.56351   0.00000  Uiso   1.00
N841   N     0.07536   0.70996   0.46318   0.00000  Uiso   1.00
H842   H     0.04448   0.70046   0.48074   0.00000  Uiso   1.00
H843   H     0.06551   0.70226   0.42907   0.00000  Uiso   1.00
N844   N     0.25798   0.95671   0.53680   0.00000  Uiso   1.00
H845   H     0.28885   0.96621   0.51922   0.00000  Uiso   1.00
H846   H     0.26785   0.96440   0.57090   0.00000  Uiso   1.00
N847   N     0.07632   0.95276   0.46196   0.00000  Uiso   1.00
H848   H     0.06642   0.96134   0.42799   0.00000  Uiso   1.00
H849   H     0.04518   0.95948   0.47962   0.00000  Uiso   1.00
N850   N     0.25700   0.71391   0.53806   0.00000  Uiso   1.00
H851   H     0.26688   0.70533   0.57203   0.00000  Uiso   1.00
H852   H     0.28816   0.70718   0.52042   0.00000  Uiso   1.00
N853   N     0.22786   0.89405   0.38461   0.00000  Uiso   1.00
H854   H     0.25263   0.88059   0.41095   0.00000  Uiso   1.00
H855   H     0.20329   0.91544   0.39668   0.00000  Uiso   1.00
N856   N     0.10554   0.77258   0.61540   0.00000  Uiso   1.00
H857   H     0.08086   0.78599   0.58898   0.00000  Uiso   1.00
H858   H     0.13018   0.75117   0.60342   0.00000  Uiso   1.00
N859   N     0.22891   0.89124   0.62393   0.00000  Uiso   1.00
H860   H     0.26779   0.88764   0.63823   0.00000  Uiso   1.00
H861   H     0.21785   0.92156   0.63101   0.00000  Uiso   1.00
N862   N     0.10441   0.77543   0.37606   0.00000  Uiso   1.00
H863   H     0.11540   0.74511   0.36892   0.00000  Uiso   1.00
H864   H     0.06552   0.77910   0.36182   0.00000  Uiso   1.00
C865   C     0.49954   0.75357   0.50017   0.00000  Uiso   1.00
C866   C     0.50046   0.91310   0.49983   0.00000  Uiso   1.00
C867   C     0.40067   0.83291   0.48854   0.00000  Uiso   1.00
C868   C     0.59933   0.83375   0.51146   0.00000  Uiso   1.00
C869   C     0.34645   0.82595   0.48387   0.00000  Uiso   1.00
C870   C     0.65355   0.84072   0.51613   0.00000  Uiso   1.00
C871   C     0.45447   0.68751   0.48120   0.00000  Uiso   1.00
C872   C     0.54553   0.97916   0.51879   0.00000  Uiso   1.00
C873   C     0.45494   0.97721   0.48058   0.00000  Uiso   1.00
C874   C     0.54506   0.68945   0.51942   0.00000  Uiso   1.00
C875   C     0.50047   0.95727   0.49939   0.00000  Uiso   1.00
C876   C     0.49953   0.70940   0.50061   0.00000  Uiso   1.00
C877   C     0.53010   0.86211   0.35967   0.00000  Uiso   1.00
C878   C     0.46991   0.80455   0.64033   0.00000  Uiso   1.00
C879   C     0.53027   0.86169   0.64523   0.00000  Uiso   1.00
C880   C     0.46973   0.80498   0.35477   0.00000  Uiso   1.00
N881   N     0.49999   0.83332   0.61907   0.00000  Uiso   1.00
N882   N     0.50001   0.83334   0.38093   0.00000  Uiso   1.00
O883   O     0.50000   0.77225   0.53821   0.00000  Uiso   1.00
O884   O     0.50000   0.89442   0.46179   0.00000  Uiso   1.00
O885   O     0.50000   0.77226   0.46176   0.00000  Uiso   1.00
O886   O     0.50000   0.89441   0.53824   0.00000  Uiso   1.00
O887   O     0.42392   0.83333   0.52928   0.00000  Uiso   1.00
O888   O     0.57608   0.83334   0.47072   0.00000  Uiso   1.00
O889   O     0.42392   0.83334   0.45284   0.00000  Uiso   1.00
O890   O     0.57608   0.83333   0.54716   0.00000  Uiso   1.00
Zn891  Zn    0.50000   0.83333   0.55104   0.00000  Uiso   1.00
Zn892  Zn    0.50000   0.83334   0.44896   0.00000  Uiso   1.00
Br893  Br    0.65223   0.78677   0.43650   0.00000  Uiso   1.00
Br894  Br    0.34777   0.87989   0.56351   0.00000  Uiso   1.00
N895   N     0.40870   0.70996   0.46318   0.00000  Uiso   1.00
H896   H     0.37781   0.70046   0.48074   0.00000  Uiso   1.00
H897   H     0.39884   0.70226   0.42907   0.00000  Uiso   1.00
N898   N     0.59131   0.95671   0.53680   0.00000  Uiso   1.00
H899   H     0.62218   0.96621   0.51922   0.00000  Uiso   1.00
H900   H     0.60118   0.96440   0.57090   0.00000  Uiso   1.00
N901   N     0.40966   0.95276   0.46196   0.00000  Uiso   1.00
H902   H     0.39976   0.96134   0.42799   0.00000  Uiso   1.00
H903   H     0.37851   0.95948   0.47962   0.00000  Uiso   1.00
N904   N     0.59033   0.71391   0.53806   0.00000  Uiso   1.00
H905   H     0.60021   0.70533   0.57203   0.00000  Uiso   1.00
H906   H     0.62149   0.70718   0.52042   0.00000  Uiso   1.00
N907   N     0.56119   0.89405   0.38461   0.00000  Uiso   1.00
H908   H     0.58596   0.88059   0.41095   0.00000  Uiso   1.00
H909   H     0.53662   0.91544   0.39668   0.00000  Uiso   1.00
N910   N     0.43888   0.77258   0.61540   0.00000  Uiso   1.00
H911   H     0.41419   0.78599   0.58898   0.00000  Uiso   1.00
H912   H     0.46351   0.75117   0.60342   0.00000  Uiso   1.00
N913   N     0.56224   0.89124   0.62393   0.00000  Uiso   1.00
H914   H     0.60113   0.88764   0.63823   0.00000  Uiso   1.00
H915   H     0.55118   0.92156   0.63101   0.00000  Uiso   1.00
N916   N     0.43774   0.77543   0.37606   0.00000  Uiso   1.00
H917   H     0.44873   0.74511   0.36892   0.00000  Uiso   1.00
H918   H     0.39886   0.77910   0.36182   0.00000  Uiso   1.00
C919   C     0.83287   0.75357   0.50017   0.00000  Uiso   1.00
C920   C     0.83380   0.91310   0.49983   0.00000  Uiso   1.00
C921   C     0.73400   0.83291   0.48854   0.00000  Uiso   1.00
C922   C     0.93267   0.83375   0.51146   0.00000  Uiso   1.00
C923   C     0.67978   0.82595   0.48387   0.00000  Uiso   1.00
C924   C     0.98688   0.84072   0.51613   0.00000  Uiso   1.00
C925   C     0.78780   0.68751   0.48120   0.00000  Uiso   1.00
C926   C     0.87887   0.97916   0.51879   0.00000  Uiso   1.00
C927   C     0.78827   0.97721   0.48058   0.00000  Uiso   1.00
C928   C     0.87839   0.68945   0.51942   0.00000  Uiso   1.00
C929   C     0.83380   0.95727   0.49939   0.00000  Uiso   1.00
C930   C     0.83287   0.70940   0.50061   0.00000  Uiso   1.00
C931   C     0.86343   0.86211   0.35967   0.00000  Uiso   1.00
C932   C     0.80325   0.80455   0.64033   0.00000  Uiso   1.00
C933   C     0.86360   0.86169   0.64523   0.00000  Uiso   1.00
C934   C     0.80306   0.80498   0.35477   0.00000  Uiso   1.00
N935   N     0.83332   0.83332   0.61907   0.00000  Uiso   1.00
N936   N     0.83335   0.83334   0.38093   0.00000  Uiso   1.00
O937   O     0.83333   0.77225   0.53821   0.00000  Uiso   1.00
O938   O     0.83334   0.89442   0.46179   0.00000  Uiso   1.00
O939   O     0.83333   0.77226   0.46176   0.00000  Uiso   1.00
O940   O     0.83334   0.89441   0.53824   0.00000  Uiso   1.00
O941   O     0.75725   0.83333   0.52928   0.00000  Uiso   1.00
O942   O     0.90942   0.83334   0.47072   0.00000  Uiso   1.00
O943   O     0.75725   0.83334   0.45284   0.00000  Uiso   1.00
O944   O     0.90942   0.83333   0.54716   0.00000  Uiso   1.00
Zn945  Zn    0.83333   0.83333   0.55104   0.00000  Uiso   1.00
Zn946  Zn    0.83333   0.83334   0.44896   0.00000  Uiso   1.00
Br947  Br    0.98557   0.78677   0.43650   0.00000  Uiso   1.00
Br948  Br    0.68110   0.87989   0.56351   0.00000  Uiso   1.00
N949   N     0.74203   0.70996   0.46318   0.00000  Uiso   1.00
H950   H     0.71114   0.70046   0.48074   0.00000  Uiso   1.00
H951   H     0.73218   0.70226   0.42907   0.00000  Uiso   1.00
N952   N     0.92464   0.95671   0.53680   0.00000  Uiso   1.00
H953   H     0.95551   0.96621   0.51922   0.00000  Uiso   1.00
H954   H     0.93452   0.96440   0.57090   0.00000  Uiso   1.00
N955   N     0.74299   0.95276   0.46196   0.00000  Uiso   1.00
H956   H     0.73309   0.96134   0.42799   0.00000  Uiso   1.00
H957   H     0.71185   0.95948   0.47962   0.00000  Uiso   1.00
N958   N     0.92367   0.71391   0.53806   0.00000  Uiso   1.00
H959   H     0.93354   0.70533   0.57203   0.00000  Uiso   1.00
H960   H     0.95482   0.70718   0.52042   0.00000  Uiso   1.00
N961   N     0.89453   0.89405   0.38461   0.00000  Uiso   1.00
H962   H     0.91929   0.88059   0.41095   0.00000  Uiso   1.00
H963   H     0.86995   0.91544   0.39668   0.00000  Uiso   1.00
N964   N     0.77221   0.77258   0.61540   0.00000  Uiso   1.00
H965   H     0.74752   0.78599   0.58898   0.00000  Uiso   1.00
H966   H     0.79684   0.75117   0.60342   0.00000  Uiso   1.00
N967   N     0.89558   0.89124   0.62393   0.00000  Uiso   1.00
H968   H     0.93446   0.88764   0.63823   0.00000  Uiso   1.00
H969   H     0.88451   0.92156   0.63101   0.00000  Uiso   1.00
N970   N     0.77108   0.77543   0.37606   0.00000  Uiso   1.00
H971   H     0.78206   0.74511   0.36892   0.00000  Uiso   1.00
H972   H     0.73219   0.77910   0.36182   0.00000  Uiso   1.00
C973   C     0.16620   0.08690   0.83350   0.00000  Uiso   1.00
C974   C     0.16713   0.24643   0.83316   0.00000  Uiso   1.00
C975   C     0.06733   0.16624   0.82188   0.00000  Uiso   1.00
C976   C     0.26600   0.16709   0.84479   0.00000  Uiso   1.00
C977   C     0.01312   0.15928   0.81720   0.00000  Uiso   1.00
C978   C     0.32022   0.17405   0.84946   0.00000  Uiso   1.00
C979   C     0.12113   0.02084   0.81454   0.00000  Uiso   1.00
C980   C     0.21220   0.31249   0.85213   0.00000  Uiso   1.00
C981   C     0.12160   0.31055   0.81391   0.00000  Uiso   1.00
C982   C     0.21173   0.02279   0.85275   0.00000  Uiso   1.00
C983   C     0.16713   0.29060   0.83273   0.00000  Uiso   1.00
C984   C     0.16620   0.04273   0.83394   0.00000  Uiso   1.00
C985   C     0.19676   0.19544   0.69300   0.00000  Uiso   1.00
C986   C     0.13658   0.13789   0.97366   0.00000  Uiso   1.00
C987   C     0.19693   0.19503   0.97856   0.00000  Uiso   1.00
C988   C     0.13640   0.13831   0.68810   0.00000  Uiso   1.00
N989   N     0.16665   0.16666   0.95240   0.00000  Uiso   1.00
N990   N     0.16668   0.16668   0.71427   0.00000  Uiso   1.00
O991   O     0.16666   0.10558   0.87154   0.00000  Uiso   1.00
O992   O     0.16667   0.22775   0.79513   0.00000  Uiso   1.00
O993   O     0.16666   0.10559   0.79510   0.00000  Uiso   1.00
O994   O     0.16667   0.22774   0.87157   0.00000  Uiso   1.00
O995   O     0.09058   0.16666   0.86261   0.00000  Uiso   1.00
O996   O     0.24275   0.16667   0.80405   0.00000  Uiso   1.00
O997   O     0.09058   0.16667   0.78617   0.00000  Uiso   1.00
O998   O     0.24275   0.16666   0.88050   0.00000  Uiso   1.00
Zn999  Zn    0.16667   0.16666   0.88437   0.00000  Uiso   1.00
Zn1000 Zn    0.16667   0.16667   0.78229   0.00000  Uiso   1.00
Br1001 Br    0.31890   0.12011   0.76983   0.00000  Uiso   1.00
Br1002 Br    0.01443   0.21322   0.89684   0.00000  Uiso   1.00
N1003  N     0.07536   0.04329   0.79651   0.00000  Uiso   1.00
H1004  H     0.04448   0.03379   0.81407   0.00000  Uiso   1.00
H1005  H     0.06551   0.03560   0.76241   0.00000  Uiso   1.00
N1006  N     0.25798   0.29004   0.87013   0.00000  Uiso   1.00
H1007  H     0.28885   0.29955   0.85256   0.00000  Uiso   1.00
H1008  H     0.26785   0.29774   0.90423   0.00000  Uiso   1.00
N1009  N     0.07632   0.28609   0.79529   0.00000  Uiso   1.00
H1010  H     0.06642   0.29467   0.76132   0.00000  Uiso   1.00
H1011  H     0.04518   0.29281   0.81295   0.00000  Uiso   1.00
N1012  N     0.25700   0.04724   0.87140   0.00000  Uiso   1.00
H1013  H     0.26688   0.03866   0.90536   0.00000  Uiso   1.00
H1014  H     0.28816   0.04052   0.85376   0.00000  Uiso   1.00
N1015  N     0.22786   0.22738   0.71794   0.00000  Uiso   1.00
H1016  H     0.25263   0.21393   0.74429   0.00000  Uiso   1.00
H1017  H     0.20329   0.24878   0.73001   0.00000  Uiso   1.00
N1018  N     0.10554   0.10591   0.94873   0.00000  Uiso   1.00
H1019  H     0.08086   0.11932   0.92231   0.00000  Uiso   1.00
H1020  H     0.13018   0.08451   0.93676   0.00000  Uiso   1.00
N1021  N     0.22891   0.22458   0.95727   0.00000  Uiso   1.00
H1022  H     0.26779   0.22097   0.97156   0.00000  Uiso   1.00
H1023  H     0.21785   0.25490   0.96434   0.00000  Uiso   1.00
N1024  N     0.10441   0.10877   0.70940   0.00000  Uiso   1.00
H1025  H     0.11540   0.07844   0.70225   0.00000  Uiso   1.00
H1026  H     0.06552   0.11244   0.69515   0.00000  Uiso   1.00
C1027  C     0.49954   0.08690   0.83350   0.00000  Uiso   1.00
C1028  C     0.50046   0.24643   0.83316   0.00000  Uiso   1.00
C1029  C     0.40067   0.16624   0.82188   0.00000  Uiso   1.00
C1030  C     0.59933   0.16709   0.84479   0.00000  Uiso   1.00
C1031  C     0.34645   0.15928   0.81720   0.00000  Uiso   1.00
C1032  C     0.65355   0.17405   0.84946   0.00000  Uiso   1.00
C1033  C     0.45447   0.02084   0.81454   0.00000  Uiso   1.00
C1034  C     0.54553   0.31249   0.85213   0.00000  Uiso   1.00
C1035  C     0.45494   0.31055   0.81391   0.00000  Uiso   1.00
C1036  C     0.54506   0.02279   0.85275   0.00000  Uiso   1.00
C1037  C     0.50047   0.29060   0.83273   0.00000  Uiso   1.00
C1038  C     0.49953   0.04273   0.83394   0.00000  Uiso   1.00
C1039  C     0.53010   0.19544   0.69300   0.00000  Uiso   1.00
C1040  C     0.46991   0.13789   0.97366   0.00000  Uiso   1.00
C1041  C     0.53027   0.19503   0.97856   0.00000  Uiso   1.00
C1042  C     0.46973   0.13831   0.68810   0.00000  Uiso   1.00
N1043  N     0.49999   0.16666   0.95240   0.00000  Uiso   1.00
N1044  N     0.50001   0.16668   0.71427   0.00000  Uiso   1.00
O1045  O     0.50000   0.10558   0.87154   0.00000  Uiso   1.00
O1046  O     0.50000   0.22775   0.79513   0.00000  Uiso   1.00
O1047  O     0.50000   0.10559   0.79510   0.00000  Uiso   1.00
O1048  O     0.50000   0.22774   0.87157   0.00000  Uiso   1.00
O1049  O     0.42392   0.16666   0.86261   0.00000  Uiso   1.00
O1050  O     0.57608   0.16667   0.80405   0.00000  Uiso   1.00
O1051  O     0.42392   0.16667   0.78617   0.00000  Uiso   1.00
O1052  O     0.57608   0.16666   0.88050   0.00000  Uiso   1.00
Zn1053 Zn    0.50000   0.16666   0.88437   0.00000  Uiso   1.00
Zn1054 Zn    0.50000   0.16667   0.78229   0.00000  Uiso   1.00
Br1055 Br    0.65223   0.12011   0.76983   0.00000  Uiso   1.00
Br1056 Br    0.34777   0.21322   0.89684   0.00000  Uiso   1.00
N1057  N     0.40870   0.04329   0.79651   0.00000  Uiso   1.00
H1058  H     0.37781   0.03379   0.81407   0.00000  Uiso   1.00
H1059  H     0.39884   0.03560   0.76241   0.00000  Uiso   1.00
N1060  N     0.59131   0.29004   0.87013   0.00000  Uiso   1.00
H1061  H     0.62218   0.29955   0.85256   0.00000  Uiso   1.00
H1062  H     0.60118   0.29774   0.90423   0.00000  Uiso   1.00
N1063  N     0.40966   0.28609   0.79529   0.00000  Uiso   1.00
H1064  H     0.39976   0.29467   0.76132   0.00000  Uiso   1.00
H1065  H     0.37851   0.29281   0.81295   0.00000  Uiso   1.00
N1066  N     0.59033   0.04724   0.87140   0.00000  Uiso   1.00
H1067  H     0.60021   0.03866   0.90536   0.00000  Uiso   1.00
H1068  H     0.62149   0.04052   0.85376   0.00000  Uiso   1.00
N1069  N     0.56119   0.22738   0.71794   0.00000  Uiso   1.00
H1070  H     0.58596   0.21393   0.74429   0.00000  Uiso   1.00
H1071  H     0.53662   0.24878   0.73001   0.00000  Uiso   1.00
N1072  N     0.43888   0.10591   0.94873   0.00000  Uiso   1.00
H1073  H     0.41419   0.11932   0.92231   0.00000  Uiso   1.00
H1074  H     0.46351   0.08451   0.93676   0.00000  Uiso   1.00
N1075  N     0.56224   0.22458   0.95727   0.00000  Uiso   1.00
H1076  H     0.60113   0.22097   0.97156   0.00000  Uiso   1.00
H1077  H     0.55118   0.25490   0.96434   0.00000  Uiso   1.00
N1078  N     0.43774   0.10877   0.70940   0.00000  Uiso   1.00
H1079  H     0.44873   0.07844   0.70225   0.00000  Uiso   1.00
H1080  H     0.39886   0.11244   0.69515   0.00000  Uiso   1.00
C1081  C     0.83287   0.08690   0.83350   0.00000  Uiso   1.00
C1082  C     0.83380   0.24643   0.83316   0.00000  Uiso   1.00
C1083  C     0.73400   0.16624   0.82188   0.00000  Uiso   1.00
C1084  C     0.93267   0.16709   0.84479   0.00000  Uiso   1.00
C1085  C     0.67978   0.15928   0.81720   0.00000  Uiso   1.00
C1086  C     0.98688   0.17405   0.84946   0.00000  Uiso   1.00
C1087  C     0.78780   0.02084   0.81454   0.00000  Uiso   1.00
C1088  C     0.87887   0.31249   0.85213   0.00000  Uiso   1.00
C1089  C     0.78827   0.31055   0.81391   0.00000  Uiso   1.00
C1090  C     0.87839   0.02279   0.85275   0.00000  Uiso   1.00
C1091  C     0.83380   0.29060   0.83273   0.00000  Uiso   1.00
C1092  C     0.83287   0.04273   0.83394   0.00000  Uiso   1.00
C1093  C     0.86343   0.19544   0.69300   0.00000  Uiso   1.00
C1094  C     0.80325   0.13789   0.97366   0.00000  Uiso   1.00
C1095  C     0.86360   0.19503   0.97856   0.00000  Uiso   1.00
C1096  C     0.80306   0.13831   0.68810   0.00000  Uiso   1.00
N1097  N     0.83332   0.16666   0.95240   0.00000  Uiso   1.00
N1098  N     0.83335   0.16668   0.71427   0.00000  Uiso   1.00
O1099  O     0.83333   0.10558   0.87154   0.00000  Uiso   1.00
O1100  O     0.83334   0.22775   0.79513   0.00000  Uiso   1.00
O1101  O     0.83333   0.10559   0.79510   0.00000  Uiso   1.00
O1102  O     0.83334   0.22774   0.87157   0.00000  Uiso   1.00
O1103  O     0.75725   0.16666   0.86261   0.00000  Uiso   1.00
O1104  O     0.90942   0.16667   0.80405   0.00000  Uiso   1.00
O1105  O     0.75725   0.16667   0.78617   0.00000  Uiso   1.00
O1106  O     0.90942   0.16666   0.88050   0.00000  Uiso   1.00
Zn1107 Zn    0.83333   0.16666   0.88437   0.00000  Uiso   1.00
Zn1108 Zn    0.83333   0.16667   0.78229   0.00000  Uiso   1.00
Br1109 Br    0.98557   0.12011   0.76983   0.00000  Uiso   1.00
Br1110 Br    0.68110   0.21322   0.89684   0.00000  Uiso   1.00
N1111  N     0.74203   0.04329   0.79651   0.00000  Uiso   1.00
H1112  H     0.71114   0.03379   0.81407   0.00000  Uiso   1.00
H1113  H     0.73218   0.03560   0.76241   0.00000  Uiso   1.00
N1114  N     0.92464   0.29004   0.87013   0.00000  Uiso   1.00
H1115  H     0.95551   0.29955   0.85256   0.00000  Uiso   1.00
H1116  H     0.93452   0.29774   0.90423   0.00000  Uiso   1.00
N1117  N     0.74299   0.28609   0.79529   0.00000  Uiso   1.00
H1118  H     0.73309   0.29467   0.76132   0.00000  Uiso   1.00
H1119  H     0.71185   0.29281   0.81295   0.00000  Uiso   1.00
N1120  N     0.92367   0.04724   0.87140   0.00000  Uiso   1.00
H1121  H     0.93354   0.03866   0.90536   0.00000  Uiso   1.00
H1122  H     0.95482   0.04052   0.85376   0.00000  Uiso   1.00
N1123  N     0.89453   0.22738   0.71794   0.00000  Uiso   1.00
H1124  H     0.91929   0.21393   0.74429   0.00000  Uiso   1.00
H1125  H     0.86995   0.24878   0.73001   0.00000  Uiso   1.00
N1126  N     0.77221   0.10591   0.94873   0.00000  Uiso   1.00
H1127  H     0.74752   0.11932   0.92231   0.00000  Uiso   1.00
H1128  H     0.79684   0.08451   0.93676   0.00000  Uiso   1.00
N1129  N     0.89558   0.22458   0.95727   0.00000  Uiso   1.00
H1130  H     0.93446   0.22097   0.97156   0.00000  Uiso   1.00
H1131  H     0.88451   0.25490   0.96434   0.00000  Uiso   1.00
N1132  N     0.77108   0.10877   0.70940   0.00000  Uiso   1.00
H1133  H     0.78206   0.07844   0.70225   0.00000  Uiso   1.00
H1134  H     0.73219   0.11244   0.69515   0.00000  Uiso   1.00
C1135  C     0.16620   0.42024   0.83350   0.00000  Uiso   1.00
C1136  C     0.16713   0.57976   0.83316   0.00000  Uiso   1.00
C1137  C     0.06733   0.49958   0.82188   0.00000  Uiso   1.00
C1138  C     0.26600   0.50042   0.84479   0.00000  Uiso   1.00
C1139  C     0.01312   0.49262   0.81720   0.00000  Uiso   1.00
C1140  C     0.32022   0.50738   0.84946   0.00000  Uiso   1.00
C1141  C     0.12113   0.35418   0.81454   0.00000  Uiso   1.00
C1142  C     0.21220   0.64582   0.85213   0.00000  Uiso   1.00
C1143  C     0.12160   0.64388   0.81391   0.00000  Uiso   1.00
C1144  C     0.21173   0.35612   0.85275   0.00000  Uiso   1.00
C1145  C     0.16713   0.62394   0.83273   0.00000  Uiso   1.00
C1146  C     0.16620   0.37606   0.83394   0.00000  Uiso   1.00
C1147  C     0.19676   0.52877   0.69300   0.00000  Uiso   1.00
C1148  C     0.13658   0.47122   0.97366   0.00000  Uiso   1.00
C1149  C     0.19693   0.52836   0.97856   0.00000  Uiso   1.00
C1150  C     0.13640   0.47164   0.68810   0.00000  Uiso   1.00
N1151  N     0.16665   0.49999   0.95240   0.00000  Uiso   1.00
N1152  N     0.16668   0.50001   0.71427   0.00000  Uiso   1.00
O1153  O     0.16666   0.43892   0.87154   0.00000  Uiso   1.00
O1154  O     0.16667   0.56108   0.79513   0.00000  Uiso   1.00
O1155  O     0.16666   0.43893   0.79510   0.00000  Uiso   1.00
O1156  O     0.16667   0.56107   0.87157   0.00000  Uiso   1.00
O1157  O     0.09058   0.50000   0.86261   0.00000  Uiso   1.00
O1158  O     0.24275   0.50000   0.80405   0.00000  Uiso   1.00
O1159  O     0.09058   0.50000   0.78617   0.00000  Uiso   1.00
O1160  O     0.24275   0.50000   0.88050   0.00000  Uiso   1.00
Zn1161 Zn    0.16667   0.49999   0.88437   0.00000  Uiso   1.00
Zn1162 Zn    0.16667   0.50001   0.78229   0.00000  Uiso   1.00
Br1163 Br    0.31890   0.45344   0.76983   0.00000  Uiso   1.00
Br1164 Br    0.01443   0.54655   0.89684   0.00000  Uiso   1.00
N1165  N     0.07536   0.37662   0.79651   0.00000  Uiso   1.00
H1166  H     0.04448   0.36712   0.81407   0.00000  Uiso   1.00
H1167  H     0.06551   0.36893   0.76241   0.00000  Uiso   1.00
N1168  N     0.25798   0.62338   0.87013   0.00000  Uiso   1.00
H1169  H     0.28885   0.63288   0.85256   0.00000  Uiso   1.00
H1170  H     0.26785   0.63107   0.90423   0.00000  Uiso   1.00
N1171  N     0.07632   0.61942   0.79529   0.00000  Uiso   1.00
H1172  H     0.06642   0.62800   0.76132   0.00000  Uiso   1.00
H1173  H     0.04518   0.62614   0.81295   0.00000  Uiso   1.00
N1174  N     0.25700   0.38057   0.87140   0.00000  Uiso   1.00
H1175  H     0.26688   0.37199   0.90536   0.00000  Uiso   1.00
H1176  H     0.28816   0.37385   0.85376   0.00000  Uiso   1.00
N1177  N     0.22786   0.56072   0.71794   0.00000  Uiso   1.00
H1178  H     0.25263   0.54726   0.74429   0.00000  Uiso   1.00
H1179  H     0.20329   0.58211   0.73001   0.00000  Uiso   1.00
N1180  N     0.10554   0.43924   0.94873   0.00000  Uiso   1.00
H1181  H     0.08086   0.45265   0.92231   0.00000  Uiso   1.00
H1182  H     0.13018   0.41784   0.93676   0.00000  Uiso   1.00
N1183  N     0.22891   0.55791   0.95727   0.00000  Uiso   1.00
H1184  H     0.26779   0.55431   0.97156   0.00000  Uiso   1.00
H1185  H     0.21785   0.58823   0.96434   0.00000  Uiso   1.00
N1186  N     0.10441   0.44210   0.70940   0.00000  Uiso   1.00
H1187  H     0.11540   0.41177   0.70225   0.00000  Uiso   1.00
H1188  H     0.06552   0.44577   0.69515   0.00000  Uiso   1.00
C1189  C     0.49954   0.42024   0.83350   0.00000  Uiso   1.00
C1190  C     0.50046   0.57976   0.83316   0.00000  Uiso   1.00
C1191  C     0.40067   0.49958   0.82188   0.00000  Uiso   1.00
C1192  C     0.59933   0.50042   0.84479   0.00000  Uiso   1.00
C1193  C     0.34645   0.49262   0.81720   0.00000  Uiso   1.00
C1194  C     0.65355   0.50738   0.84946   0.00000  Uiso   1.00
C1195  C     0.45447   0.35418   0.81454   0.00000  Uiso   1.00
C1196  C     0.54553   0.64582   0.85213   0.00000  Uiso   1.00
C1197  C     0.45494   0.64388   0.81391   0.00000  Uiso   1.00
C1198  C     0.54506   0.35612   0.85275   0.00000  Uiso   1.00
C1199  C     0.50047   0.62394   0.83273   0.00000  Uiso   1.00
C1200  C     0.49953   0.37606   0.83394   0.00000  Uiso   1.00
C1201  C     0.53010   0.52877   0.69300   0.00000  Uiso   1.00
C1202  C     0.46991   0.47122   0.97366   0.00000  Uiso   1.00
C1203  C     0.53027   0.52836   0.97856   0.00000  Uiso   1.00
C1204  C     0.46973   0.47164   0.68810   0.00000  Uiso   1.00
N1205  N     0.49999   0.49999   0.95240   0.00000  Uiso   1.00
N1206  N     0.50001   0.50001   0.71427   0.00000  Uiso   1.00
O1207  O     0.50000   0.43892   0.87154   0.00000  Uiso   1.00
O1208  O     0.50000   0.56108   0.79513   0.00000  Uiso   1.00
O1209  O     0.50000   0.43893   0.79510   0.00000  Uiso   1.00
O1210  O     0.50000   0.56107   0.87157   0.00000  Uiso   1.00
O1211  O     0.42392   0.50000   0.86261   0.00000  Uiso   1.00
O1212  O     0.57608   0.50000   0.80405   0.00000  Uiso   1.00
O1213  O     0.42392   0.50000   0.78617   0.00000  Uiso   1.00
O1214  O     0.57608   0.50000   0.88050   0.00000  Uiso   1.00
Zn1215 Zn    0.50000   0.49999   0.88437   0.00000  Uiso   1.00
Zn1216 Zn    0.50000   0.50001   0.78229   0.00000  Uiso   1.00
Br1217 Br    0.65223   0.45344   0.76983   0.00000  Uiso   1.00
Br1218 Br    0.34777   0.54655   0.89684   0.00000  Uiso   1.00
N1219  N     0.40870   0.37662   0.79651   0.00000  Uiso   1.00
H1220  H     0.37781   0.36712   0.81407   0.00000  Uiso   1.00
H1221  H     0.39884   0.36893   0.76241   0.00000  Uiso   1.00
N1222  N     0.59131   0.62338   0.87013   0.00000  Uiso   1.00
H1223  H     0.62218   0.63288   0.85256   0.00000  Uiso   1.00
H1224  H     0.60118   0.63107   0.90423   0.00000  Uiso   1.00
N1225  N     0.40966   0.61942   0.79529   0.00000  Uiso   1.00
H1226  H     0.39976   0.62800   0.76132   0.00000  Uiso   1.00
H1227  H     0.37851   0.62614   0.81295   0.00000  Uiso   1.00
N1228  N     0.59033   0.38057   0.87140   0.00000  Uiso   1.00
H1229  H     0.60021   0.37199   0.90536   0.00000  Uiso   1.00
H1230  H     0.62149   0.37385   0.85376   0.00000  Uiso   1.00
N1231  N     0.56119   0.56072   0.71794   0.00000  Uiso   1.00
H1232  H     0.58596   0.54726   0.74429   0.00000  Uiso   1.00
H1233  H     0.53662   0.58211   0.73001   0.00000  Uiso   1.00
N1234  N     0.43888   0.43924   0.94873   0.00000  Uiso   1.00
H1235  H     0.41419   0.45265   0.92231   0.00000  Uiso   1.00
H1236  H     0.46351   0.41784   0.93676   0.00000  Uiso   1.00
N1237  N     0.56224   0.55791   0.95727   0.00000  Uiso   1.00
H1238  H     0.60113   0.55431   0.97156   0.00000  Uiso   1.00
H1239  H     0.55118   0.58823   0.96434   0.00000  Uiso   1.00
N1240  N     0.43774   0.44210   0.70940   0.00000  Uiso   1.00
H1241  H     0.44873   0.41177   0.70225   0.00000  Uiso   1.00
H1242  H     0.39886   0.44577   0.69515   0.00000  Uiso   1.00
C1243  C     0.83287   0.42024   0.83350   0.00000  Uiso   1.00
C1244  C     0.83380   0.57976   0.83316   0.00000  Uiso   1.00
C1245  C     0.73400   0.49958   0.82188   0.00000  Uiso   1.00
C1246  C     0.93267   0.50042   0.84479   0.00000  Uiso   1.00
C1247  C     0.67978   0.49262   0.81720   0.00000  Uiso   1.00
C1248  C     0.98688   0.50738   0.84946   0.00000  Uiso   1.00
C1249  C     0.78780   0.35418   0.81454   0.00000  Uiso   1.00
C1250  C     0.87887   0.64582   0.85213   0.00000  Uiso   1.00
C1251  C     0.78827   0.64388   0.81391   0.00000  Uiso   1.00
C1252  C     0.87839   0.35612   0.85275   0.00000  Uiso   1.00
C1253  C     0.83380   0.62394   0.83273   0.00000  Uiso   1.00
C1254  C     0.83287   0.37606   0.83394   0.00000  Uiso   1.00
C1255  C     0.86343   0.52877   0.69300   0.00000  Uiso   1.00
C1256  C     0.80325   0.47122   0.97366   0.00000  Uiso   1.00
C1257  C     0.86360   0.52836   0.97856   0.00000  Uiso   1.00
C1258  C     0.80306   0.47164   0.68810   0.00000  Uiso   1.00
N1259  N     0.83332   0.49999   0.95240   0.00000  Uiso   1.00
N1260  N     0.83335   0.50001   0.71427   0.00000  Uiso   1.00
O1261  O     0.83333   0.43892   0.87154   0.00000  Uiso   1.00
O1262  O     0.83334   0.56108   0.79513   0.00000  Uiso   1.00
O1263  O     0.83333   0.43893   0.79510   0.00000  Uiso   1.00
O1264  O     0.83334   0.56107   0.87157   0.00000  Uiso   1.00
O1265  O     0.75725   0.50000   0.86261   0.00000  Uiso   1.00
O1266  O     0.90942   0.50000   0.80405   0.00000  Uiso   1.00
O1267  O     0.75725   0.50000   0.78617   0.00000  Uiso   1.00
O1268  O     0.90942   0.50000   0.88050   0.00000  Uiso   1.00
Zn1269 Zn    0.83333   0.49999   0.88437   0.00000  Uiso   1.00
Zn1270 Zn    0.83333   0.50001   0.78229   0.00000  Uiso   1.00
Br1271 Br    0.98557   0.45344   0.76983   0.00000  Uiso   1.00
Br1272 Br    0.68110   0.54655   0.89684   0.00000  Uiso   1.00
N1273  N     0.74203   0.37662   0.79651   0.00000  Uiso   1.00
H1274  H     0.71114   0.36712   0.81407   0.00000  Uiso   1.00
H1275  H     0.73218   0.36893   0.76241   0.00000  Uiso   1.00
N1276  N     0.92464   0.62338   0.87013   0.00000  Uiso   1.00
H1277  H     0.95551   0.63288   0.85256   0.00000  Uiso   1.00
H1278  H     0.93452   0.63107   0.90423   0.00000  Uiso   1.00
N1279  N     0.74299   0.61942   0.79529   0.00000  Uiso   1.00
H1280  H     0.73309   0.62800   0.76132   0.00000  Uiso   1.00
H1281  H     0.71185   0.62614   0.81295   0.00000  Uiso   1.00
N1282  N     0.92367   0.38057   0.87140   0.00000  Uiso   1.00
H1283  H     0.93354   0.37199   0.90536   0.00000  Uiso   1.00
H1284  H     0.95482   0.37385   0.85376   0.00000  Uiso   1.00
N1285  N     0.89453   0.56072   0.71794   0.00000  Uiso   1.00
H1286  H     0.91929   0.54726   0.74429   0.00000  Uiso   1.00
H1287  H     0.86995   0.58211   0.73001   0.00000  Uiso   1.00
N1288  N     0.77221   0.43924   0.94873   0.00000  Uiso   1.00
H1289  H     0.74752   0.45265   0.92231   0.00000  Uiso   1.00
H1290  H     0.79684   0.41784   0.93676   0.00000  Uiso   1.00
N1291  N     0.89558   0.55791   0.95727   0.00000  Uiso   1.00
H1292  H     0.93446   0.55431   0.97156   0.00000  Uiso   1.00
H1293  H     0.88451   0.58823   0.96434   0.00000  Uiso   1.00
N1294  N     0.77108   0.44210   0.70940   0.00000  Uiso   1.00
H1295  H     0.78206   0.41177   0.70225   0.00000  Uiso   1.00
H1296  H     0.73219   0.44577   0.69515   0.00000  Uiso   1.00
C1297  C     0.16620   0.75357   0.83350   0.00000  Uiso   1.00
C1298  C     0.16713   0.91310   0.83316   0.00000  Uiso   1.00
C1299  C     0.06733   0.83291   0.82188   0.00000  Uiso   1.00
C1300  C     0.26600   0.83375   0.84479   0.00000  Uiso   1.00
C1301  C     0.01312   0.82595   0.81720   0.00000  Uiso   1.00
C1302  C     0.32022   0.84072   0.84946   0.00000  Uiso   1.00
C1303  C     0.12113   0.68751   0.81454   0.00000  Uiso   1.00
C1304  C     0.21220   0.97916   0.85213   0.00000  Uiso   1.00
C1305  C     0.12160   0.97721   0.81391   0.00000  Uiso   1.00
C1306  C     0.21173   0.68945   0.85275   0.00000  Uiso   1.00
C1307  C     0.16713   0.95727   0.83273   0.00000  Uiso   1.00
C1308  C     0.16620   0.70940   0.83394   0.00000  Uiso   1.00
C1309  C     0.19676   0.86211   0.69300   0.00000  Uiso   1.00
C1310  C     0.13658   0.80455   0.97366   0.00000  Uiso   1.00
C1311  C     0.19693   0.86169   0.97856   0.00000  Uiso   1.00
C1312  C     0.13640   0.80498   0.68810   0.00000  Uiso   1.00
N1313  N     0.16665   0.83332   0.95240   0.00000  Uiso   1.00
N1314  N     0.16668   0.83334   0.71427   0.00000  Uiso   1.00
O1315  O     0.16666   0.77225   0.87154   0.00000  Uiso   1.00
O1316  O     0.16667   0.89442   0.79513   0.00000  Uiso   1.00
O1317  O     0.16666   0.77226   0.79510   0.00000  Uiso   1.00
O1318  O     0.16667   0.89441   0.87157   0.00000  Uiso   1.00
O1319  O     0.09058   0.83333   0.86261   0.00000  Uiso   1.00
O1320  O     0.24275   0.83334   0.80405   0.00000  Uiso   1.00
O1321  O     0.09058   0.83334   0.78617   0.00000  Uiso   1.00
O1322  O     0.24275   0.83333   0.88050   0.00000  Uiso   1.00
Zn1323 Zn    0.16667   0.83333   0.88437   0.00000  Uiso   1.00
Zn1324 Zn    0.16667   0.83334   0.78229   0.00000  Uiso   1.00
Br1325 Br    0.31890   0.78677   0.76983   0.00000  Uiso   1.00
Br1326 Br    0.01443   0.87989   0.89684   0.00000  Uiso   1.00
N1327  N     0.07536   0.70996   0.79651   0.00000  Uiso   1.00
H1328  H     0.04448   0.70046   0.81407   0.00000  Uiso   1.00
H1329  H     0.06551   0.70226   0.76241   0.00000  Uiso   1.00
N1330  N     0.25798   0.95671   0.87013   0.00000  Uiso   1.00
H1331  H     0.28885   0.96621   0.85256   0.00000  Uiso   1.00
H1332  H     0.26785   0.96440   0.90423   0.00000  Uiso   1.00
N1333  N     0.07632   0.95276   0.79529   0.00000  Uiso   1.00
H1334  H     0.06642   0.96134   0.76132   0.00000  Uiso   1.00
H1335  H     0.04518   0.95948   0.81295   0.00000  Uiso   1.00
N1336  N     0.25700   0.71391   0.87140   0.00000  Uiso   1.00
H1337  H     0.26688   0.70533   0.90536   0.00000  Uiso   1.00
H1338  H     0.28816   0.70718   0.85376   0.00000  Uiso   1.00
N1339  N     0.22786   0.89405   0.71794   0.00000  Uiso   1.00
H1340  H     0.25263   0.88059   0.74429   0.00000  Uiso   1.00
H1341  H     0.20329   0.91544   0.73001   0.00000  Uiso   1.00
N1342  N     0.10554   0.77258   0.94873   0.00000  Uiso   1.00
H1343  H     0.08086   0.78599   0.92231   0.00000  Uiso   1.00
H1344  H     0.13018   0.75117   0.93676   0.00000  Uiso   1.00
N1345  N     0.22891   0.89124   0.95727   0.00000  Uiso   1.00
H1346  H     0.26779   0.88764   0.97156   0.00000  Uiso   1.00
H1347  H     0.21785   0.92156   0.96434   0.00000  Uiso   1.00
N1348  N     0.10441   0.77543   0.70940   0.00000  Uiso   1.00
H1349  H     0.11540   0.74511   0.70225   0.00000  Uiso   1.00
H1350  H     0.06552   0.77910   0.69515   0.00000  Uiso   1.00
C1351  C     0.49954   0.75357   0.83350   0.00000  Uiso   1.00
C1352  C     0.50046   0.91310   0.83316   0.00000  Uiso   1.00
C1353  C     0.40067   0.83291   0.82188   0.00000  Uiso   1.00
C1354  C     0.59933   0.83375   0.84479   0.00000  Uiso   1.00
C1355  C     0.34645   0.82595   0.81720   0.00000  Uiso   1.00
C1356  C     0.65355   0.84072   0.84946   0.00000  Uiso   1.00
C1357  C     0.45447   0.68751   0.81454   0.00000  Uiso   1.00
C1358  C     0.54553   0.97916   0.85213   0.00000  Uiso   1.00
C1359  C     0.45494   0.97721   0.81391   0.00000  Uiso   1.00
C1360  C     0.54506   0.68945   0.85275   0.00000  Uiso   1.00
C1361  C     0.50047   0.95727   0.83273   0.00000  Uiso   1.00
C1362  C     0.49953   0.70940   0.83394   0.00000  Uiso   1.00
C1363  C     0.53010   0.86211   0.69300   0.00000  Uiso   1.00
C1364  C     0.46991   0.80455   0.97366   0.00000  Uiso   1.00
C1365  C     0.53027   0.86169   0.97856   0.00000  Uiso   1.00
C1366  C     0.46973   0.80498   0.68810   0.00000  Uiso   1.00
N1367  N     0.49999   0.83332   0.95240   0.00000  Uiso   1.00
N1368  N     0.50001   0.83334   0.71427   0.00000  Uiso   1.00
O1369  O     0.50000   0.77225   0.87154   0.00000  Uiso   1.00
O1370  O     0.50000   0.89442   0.79513   0.00000  Uiso   1.00
O1371  O     0.50000   0.77226   0.79510   0.00000  Uiso   1.00
O1372  O     0.50000   0.89441   0.87157   0.00000  Uiso   1.00
O1373  O     0.42392   0.83333   0.86261   0.00000  Uiso   1.00
O1374  O     0.57608   0.83334   0.80405   0.00000  Uiso   1.00
O1375  O     0.42392   0.83334   0.78617   0.00000  Uiso   1.00
O1376  O     0.57608   0.83333   0.88050   0.00000  Uiso   1.00
Zn1377 Zn    0.50000   0.83333   0.88437   0.00000  Uiso   1.00
Zn1378 Zn    0.50000   0.83334   0.78229   0.00000  Uiso   1.00
Br1379 Br    0.65223   0.78677   0.76983   0.00000  Uiso   1.00
Br1380 Br    0.34777   0.87989   0.89684   0.00000  Uiso   1.00
N1381  N     0.40870   0.70996   0.79651   0.00000  Uiso   1.00
H1382  H     0.37781   0.70046   0.81407   0.00000  Uiso   1.00
H1383  H     0.39884   0.70226   0.76241   0.00000  Uiso   1.00
N1384  N     0.59131   0.95671   0.87013   0.00000  Uiso   1.00
H1385  H     0.62218   0.96621   0.85256   0.00000  Uiso   1.00
H1386  H     0.60118   0.96440   0.90423   0.00000  Uiso   1.00
N1387  N     0.40966   0.95276   0.79529   0.00000  Uiso   1.00
H1388  H     0.39976   0.96134   0.76132   0.00000  Uiso   1.00
H1389  H     0.37851   0.95948   0.81295   0.00000  Uiso   1.00
N1390  N     0.59033   0.71391   0.87140   0.00000  Uiso   1.00
H1391  H     0.60021   0.70533   0.90536   0.00000  Uiso   1.00
H1392  H     0.62149   0.70718   0.85376   0.00000  Uiso   1.00
N1393  N     0.56119   0.89405   0.71794   0.00000  Uiso   1.00
H1394  H     0.58596   0.88059   0.74429   0.00000  Uiso   1.00
H1395  H     0.53662   0.91544   0.73001   0.00000  Uiso   1.00
N1396  N     0.43888   0.77258   0.94873   0.00000  Uiso   1.00
H1397  H     0.41419   0.78599   0.92231   0.00000  Uiso   1.00
H1398  H     0.46351   0.75117   0.93676   0.00000  Uiso   1.00
N1399  N     0.56224   0.89124   0.95727   0.00000  Uiso   1.00
H1400  H     0.60113   0.88764   0.97156   0.00000  Uiso   1.00
H1401  H     0.55118   0.92156   0.96434   0.00000  Uiso   1.00
N1402  N     0.43774   0.77543   0.70940   0.00000  Uiso   1.00
H1403  H     0.44873   0.74511   0.70225   0.00000  Uiso   1.00
H1404  H     0.39886   0.77910   0.69515   0.00000  Uiso   1.00
C1405  C     0.83287   0.75357   0.83350   0.00000  Uiso   1.00
C1406  C     0.83380   0.91310   0.83316   0.00000  Uiso   1.00
C1407  C     0.73400   0.83291   0.82188   0.00000  Uiso   1.00
C1408  C     0.93267   0.83375   0.84479   0.00000  Uiso   1.00
C1409  C     0.67978   0.82595   0.81720   0.00000  Uiso   1.00
C1410  C     0.98688   0.84072   0.84946   0.00000  Uiso   1.00
C1411  C     0.78780   0.68751   0.81454   0.00000  Uiso   1.00
C1412  C     0.87887   0.97916   0.85213   0.00000  Uiso   1.00
C1413  C     0.78827   0.97721   0.81391   0.00000  Uiso   1.00
C1414  C     0.87839   0.68945   0.85275   0.00000  Uiso   1.00
C1415  C     0.83380   0.95727   0.83273   0.00000  Uiso   1.00
C1416  C     0.83287   0.70940   0.83394   0.00000  Uiso   1.00
C1417  C     0.86343   0.86211   0.69300   0.00000  Uiso   1.00
C1418  C     0.80325   0.80455   0.97366   0.00000  Uiso   1.00
C1419  C     0.86360   0.86169   0.97856   0.00000  Uiso   1.00
C1420  C     0.80306   0.80498   0.68810   0.00000  Uiso   1.00
N1421  N     0.83332   0.83332   0.95240   0.00000  Uiso   1.00
N1422  N     0.83335   0.83334   0.71427   0.00000  Uiso   1.00
O1423  O     0.83333   0.77225   0.87154   0.00000  Uiso   1.00
O1424  O     0.83334   0.89442   0.79513   0.00000  Uiso   1.00
O1425  O     0.83333   0.77226   0.79510   0.00000  Uiso   1.00
O1426  O     0.83334   0.89441   0.87157   0.00000  Uiso   1.00
O1427  O     0.75725   0.83333   0.86261   0.00000  Uiso   1.00
O1428  O     0.90942   0.83334   0.80405   0.00000  Uiso   1.00
O1429  O     0.75725   0.83334   0.78617   0.00000  Uiso   1.00
O1430  O     0.90942   0.83333   0.88050   0.00000  Uiso   1.00
Zn1431 Zn    0.83333   0.83333   0.88437   0.00000  Uiso   1.00
Zn1432 Zn    0.83333   0.83334   0.78229   0.00000  Uiso   1.00
Br1433 Br    0.98557   0.78677   0.76983   0.00000  Uiso   1.00
Br1434 Br    0.68110   0.87989   0.89684   0.00000  Uiso   1.00
N1435  N     0.74203   0.70996   0.79651   0.00000  Uiso   1.00
H1436  H     0.71114   0.70046   0.81407   0.00000  Uiso   1.00
H1437  H     0.73218   0.70226   0.76241   0.00000  Uiso   1.00
N1438  N     0.92464   0.95671   0.87013   0.00000  Uiso   1.00
H1439  H     0.95551   0.96621   0.85256   0.00000  Uiso   1.00
H1440  H     0.93452   0.96440   0.90423   0.00000  Uiso   1.00
N1441  N     0.74299   0.95276   0.79529   0.00000  Uiso   1.00
H1442  H     0.73309   0.96134   0.76132   0.00000  Uiso   1.00
H1443  H     0.71185   0.95948   0.81295   0.00000  Uiso   1.00
N1444  N     0.92367   0.71391   0.87140   0.00000  Uiso   1.00
H1445  H     0.93354   0.70533   0.90536   0.00000  Uiso   1.00
H1446  H     0.95482   0.70718   0.85376   0.00000  Uiso   1.00
N1447  N     0.89453   0.89405   0.71794   0.00000  Uiso   1.00
H1448  H     0.91929   0.88059   0.74429   0.00000  Uiso   1.00
H1449  H     0.86995   0.91544   0.73001   0.00000  Uiso   1.00
N1450  N     0.77221   0.77258   0.94873   0.00000  Uiso   1.00
H1451  H     0.74752   0.78599   0.92231   0.00000  Uiso   1.00
H1452  H     0.79684   0.75117   0.93676   0.00000  Uiso   1.00
N1453  N     0.89558   0.89124   0.95727   0.00000  Uiso   1.00
H1454  H     0.93446   0.88764   0.97156   0.00000  Uiso   1.00
H1455  H     0.88451   0.92156   0.96434   0.00000  Uiso   1.00
N1456  N     0.77108   0.77543   0.70940   0.00000  Uiso   1.00
H1457  H     0.78206   0.74511   0.70225   0.00000  Uiso   1.00
H1458  H     0.73219   0.77910   0.69515   0.00000  Uiso   1.00
loop_
_geom_bond_atom_site_label_1
_geom_bond_atom_site_label_2
_geom_bond_distance
_geom_bond_site_symmetry_2
_ccdc_geom_bond_type
C1     O21     1.284   .     A
C1     C12     1.405   .     S
C1     O19     1.285   .     A
C2     O22     1.284   .     A
C2     C11     1.405   .     S
C2     O20     1.285   .     A
C3     O23     1.281   .     A
C3     O25     1.288   .     A
C3     C5      1.399   .     S
C4     O26     1.288   .     A
C4     O24     1.281   .     A
C4     C6      1.399   .     S
C5     C114    1.343   1_455 S
C5     Br137   1.945   1_455 S
C6     C59     1.343   .     S
C6     Br84    1.945   .     S
C7     C12     1.399   .     A
C7     N31     1.436   .     S
C7     C333    1.389   1_545 S
C8     N34     1.436   .     S
C8     C11     1.399   .     A
C8     C172    1.389   .     S
C9     C11     1.398   .     A
C9     N37     1.437   .     S
C9     C169    1.389   .     S
C10    C12     1.398   .     A
C10    N40     1.437   .     S
C10    C332    1.389   1_545 S
C13    N18     1.384   .     A
C13    N43     1.430   .     S
C13    C987    1.424   1_554 S
C14    N46     1.430   .     S
C14    N17     1.384   .     A
C14    C502    1.424   .     S
C15    N49     1.430   .     S
C15    N17     1.360   .     A
C15    C499    1.424   .     S
C16    N18     1.360   .     A
C16    N52     1.430   .     S
C16    C986    1.424   1_554 S
N17    Zn27    2.027   .     S
N18    Zn28    2.027   .     S
O19    Zn27    1.985   .     S
O20    Zn28    1.985   .     S
O21    Zn28    1.975   .     S
O22    Zn27    1.975   .     S
O23    Zn27    1.984   .     S
O24    Zn28    1.984   .     S
O25    Zn28    1.981   .     S
O26    Zn27    1.981   .     S
Br29   C59     1.945   .     S
Br30   C114    1.945   1_455 S
N31    H33     1.045   .     S
N31    H32     1.045   .     S
N34    H35     1.045   .     S
N34    H36     1.045   .     S
N37    H38     1.045   .     S
N37    H39     1.045   .     S
N40    H41     1.045   .     S
N40    H42     1.045   .     S
N43    H44     1.040   .     S
N43    H45     1.042   .     S
N46    H48     1.042   .     S
N46    H47     1.040   .     S
N49    H50     1.045   .     S
N49    H51     1.045   .     S
N52    H54     1.045   .     S
N52    H53     1.045   .     S
C55    O75     1.284   .     A
C55    C66     1.405   .     S
C55    O73     1.285   .     A
C56    O76     1.284   .     A
C56    C65     1.405   .     S
C56    O74     1.285   .     A
C57    O77     1.281   .     A
C57    O79     1.288   .     A
C57    C59     1.399   .     S
C58    O80     1.288   .     A
C58    O78     1.281   .     A
C58    C60     1.399   .     S
C60    C113    1.343   .     S
C60    Br138   1.945   .     S
C61    C66     1.399   .     A
C61    N85     1.436   .     S
C61    C387    1.389   1_545 S
C62    N88     1.436   .     S
C62    C65     1.399   .     A
C62    C226    1.389   .     S
C63    C65     1.398   .     A
C63    N91     1.437   .     S
C63    C223    1.389   .     S
C64    C66     1.398   .     A
C64    N94     1.437   .     S
C64    C386    1.389   1_545 S
C67    N72     1.384   .     A
C67    N97     1.430   .     S
C67    C1041   1.424   1_554 S
C68    N100    1.430   .     S
C68    N71     1.384   .     A
C68    C556    1.424   .     S
C69    N103    1.430   .     S
C69    N71     1.360   .     A
C69    C553    1.424   .     S
C70    N72     1.360   .     A
C70    N106    1.430   .     S
C70    C1040   1.424   1_554 S
N71    Zn81    2.027   .     S
N72    Zn82    2.027   .     S
O73    Zn81    1.985   .     S
O74    Zn82    1.985   .     S
O75    Zn82    1.975   .     S
O76    Zn81    1.975   .     S
O77    Zn81    1.984   .     S
O78    Zn82    1.984   .     S
O79    Zn82    1.981   .     S
O80    Zn81    1.981   .     S
Br83   C113    1.945   .     S
N85    H87     1.045   .     S
N85    H86     1.045   .     S
N88    H89     1.045   .     S
N88    H90     1.045   .     S
N91    H92     1.045   .     S
N91    H93     1.045   .     S
N94    H95     1.045   .     S
N94    H96     1.045   .     S
N97    H98     1.040   .     S
N97    H99     1.042   .     S
N100   H102    1.042   .     S
N100   H101    1.040   .     S
N103   H104    1.045   .     S
N103   H105    1.045   .     S
N106   H108    1.045   .     S
N106   H107    1.045   .     S
C109   O129    1.284   .     A
C109   C120    1.405   .     S
C109   O127    1.285   .     A
C110   O130    1.284   .     A
C110   C119    1.405   .     S
C110   O128    1.285   .     A
C111   O131    1.281   .     A
C111   O133    1.288   .     A
C111   C113    1.399   .     S
C112   O134    1.288   .     A
C112   O132    1.281   .     A
C112   C114    1.399   .     S
C114   C5      1.343   1_655 S
C114   Br30    1.945   1_655 S
C115   C120    1.399   .     A
C115   N139    1.436   .     S
C115   C441    1.389   1_545 S
C116   N142    1.436   .     S
C116   C119    1.399   .     A
C116   C280    1.389   .     S
C117   C119    1.398   .     A
C117   N145    1.437   .     S
C117   C277    1.389   .     S
C118   C120    1.398   .     A
C118   N148    1.437   .     S
C118   C440    1.389   1_545 S
C121   N126    1.384   .     A
C121   N151    1.430   .     S
C121   C1095   1.424   1_554 S
C122   N154    1.430   .     S
C122   N125    1.384   .     A
C122   C610    1.424   .     S
C123   N157    1.430   .     S
C123   N125    1.360   .     A
C123   C607    1.424   .     S
C124   N126    1.360   .     A
C124   N160    1.430   .     S
C124   C1094   1.424   1_554 S
N125   Zn135   2.027   .     S
N126   Zn136   2.027   .     S
O127   Zn135   1.985   .     S
O128   Zn136   1.985   .     S
O129   Zn136   1.975   .     S
O130   Zn135   1.975   .     S
O131   Zn135   1.984   .     S
O132   Zn136   1.984   .     S
O133   Zn136   1.981   .     S
O134   Zn135   1.981   .     S
Br137  C5      1.945   1_655 S
N139   H141    1.045   .     S
N139   H140    1.045   .     S
N142   H143    1.045   .     S
N142   H144    1.045   .     S
N145   H146    1.045   .     S
N145   H147    1.045   .     S
N148   H149    1.045   .     S
N148   H150    1.045   .     S
N151   H152    1.040   .     S
N151   H153    1.042   .     S
N154   H156    1.042   .     S
N154   H155    1.040   .     S
N157   H158    1.045   .     S
N157   H159    1.045   .     S
N160   H162    1.045   .     S
N160   H161    1.045   .     S
C163   O183    1.284   .     A
C163   C174    1.405   .     S
C163   O181    1.285   .     A
C164   O184    1.284   .     A
C164   C173    1.405   .     S
C164   O182    1.285   .     A
C165   O185    1.281   .     A
C165   O187    1.288   .     A
C165   C167    1.399   .     S
C166   O188    1.288   .     A
C166   O186    1.281   .     A
C166   C168    1.399   .     S
C167   C276    1.343   1_455 S
C167   Br299   1.945   1_455 S
C168   C221    1.343   .     S
C168   Br246   1.945   .     S
C169   C174    1.399   .     A
C169   N193    1.436   .     S
C170   N196    1.436   .     S
C170   C173    1.399   .     A
C170   C334    1.389   .     S
C171   C173    1.398   .     A
C171   N199    1.437   .     S
C171   C331    1.389   .     S
C172   C174    1.398   .     A
C172   N202    1.437   .     S
C175   N180    1.384   .     A
C175   N205    1.430   .     S
C175   C1149   1.424   1_554 S
C176   N208    1.430   .     S
C176   N179    1.384   .     A
C176   C664    1.424   .     S
C177   N211    1.430   .     S
C177   N179    1.360   .     A
C177   C661    1.424   .     S
C178   N180    1.360   .     A
C178   N214    1.430   .     S
C178   C1148   1.424   1_554 S
N179   Zn189   2.027   .     S
N180   Zn190   2.027   .     S
O181   Zn189   1.985   .     S
O182   Zn190   1.985   .     S
O183   Zn190   1.975   .     S
O184   Zn189   1.975   .     S
O185   Zn189   1.984   .     S
O186   Zn190   1.984   .     S
O187   Zn190   1.981   .     S
O188   Zn189   1.981   .     S
Br191  C221    1.945   .     S
Br192  C276    1.945   1_455 S
N193   H195    1.045   .     S
N193   H194    1.045   .     S
N196   H197    1.045   .     S
N196   H198    1.045   .     S
N199   H200    1.045   .     S
N199   H201    1.045   .     S
N202   H203    1.045   .     S
N202   H204    1.045   .     S
N205   H206    1.040   .     S
N205   H207    1.042   .     S
N208   H210    1.042   .     S
N208   H209    1.040   .     S
N211   H212    1.045   .     S
N211   H213    1.045   .     S
N214   H216    1.045   .     S
N214   H215    1.045   .     S
C217   O237    1.284   .     A
C217   C228    1.405   .     S
C217   O235    1.285   .     A
C218   O238    1.284   .     A
C218   C227    1.405   .     S
C218   O236    1.285   .     A
C219   O239    1.281   .     A
C219   O241    1.288   .     A
C219   C221    1.399   .     S
C220   O242    1.288   .     A
C220   O240    1.281   .     A
C220   C222    1.399   .     S
C222   C275    1.343   .     S
C222   Br300   1.945   .     S
C223   C228    1.399   .     A
C223   N247    1.436   .     S
C224   N250    1.436   .     S
C224   C227    1.399   .     A
C224   C388    1.389   .     S
C225   C227    1.398   .     A
C225   N253    1.437   .     S
C225   C385    1.389   .     S
C226   C228    1.398   .     A
C226   N256    1.437   .     S
C229   N234    1.384   .     A
C229   N259    1.430   .     S
C229   C1203   1.424   1_554 S
C230   N262    1.430   .     S
C230   N233    1.384   .     A
C230   C718    1.424   .     S
C231   N265    1.430   .     S
C231   N233    1.360   .     A
C231   C715    1.424   .     S
C232   N234    1.360   .     A
C232   N268    1.430   .     S
C232   C1202   1.424   1_554 S
N233   Zn243   2.027   .     S
N234   Zn244   2.027   .     S
O235   Zn243   1.985   .     S
O236   Zn244   1.985   .     S
O237   Zn244   1.975   .     S
O238   Zn243   1.975   .     S
O239   Zn243   1.984   .     S
O240   Zn244   1.984   .     S
O241   Zn244   1.981   .     S
O242   Zn243   1.981   .     S
Br245  C275    1.945   .     S
N247   H249    1.045   .     S
N247   H248    1.045   .     S
N250   H251    1.045   .     S
N250   H252    1.045   .     S
N253   H254    1.045   .     S
N253   H255    1.045   .     S
N256   H257    1.045   .     S
N256   H258    1.045   .     S
N259   H260    1.040   .     S
N259   H261    1.042   .     S
N262   H264    1.042   .     S
N262   H263    1.040   .     S
N265   H266    1.045   .     S
N265   H267    1.045   .     S
N268   H270    1.045   .     S
N268   H269    1.045   .     S
C271   O291    1.284   .     A
C271   C282    1.405   .     S
C271   O289    1.285   .     A
C272   O292    1.284   .     A
C272   C281    1.405   .     S
C272   O290    1.285   .     A
C273   O293    1.281   .     A
C273   O295    1.288   .     A
C273   C275    1.399   .     S
C274   O296    1.288   .     A
C274   O294    1.281   .     A
C274   C276    1.399   .     S
C276   C167    1.343   1_655 S
C276   Br192   1.945   1_655 S
C277   C282    1.399   .     A
C277   N301    1.436   .     S
C278   N304    1.436   .     S
C278   C281    1.399   .     A
C278   C442    1.389   .     S
C279   C281    1.398   .     A
C279   N307    1.437   .     S
C279   C439    1.389   .     S
C280   C282    1.398   .     A
C280   N310    1.437   .     S
C283   N288    1.384   .     A
C283   N313    1.430   .     S
C283   C1257   1.424   1_554 S
C284   N316    1.430   .     S
C284   N287    1.384   .     A
C284   C772    1.424   .     S
C285   N319    1.430   .     S
C285   N287    1.360   .     A
C285   C769    1.424   .     S
C286   N288    1.360   .     A
C286   N322    1.430   .     S
C286   C1256   1.424   1_554 S
N287   Zn297   2.027   .     S
N288   Zn298   2.027   .     S
O289   Zn297   1.985   .     S
O290   Zn298   1.985   .     S
O291   Zn298   1.975   .     S
O292   Zn297   1.975   .     S
O293   Zn297   1.984   .     S
O294   Zn298   1.984   .     S
O295   Zn298   1.981   .     S
O296   Zn297   1.981   .     S
Br299  C167    1.945   1_655 S
N301   H303    1.045   .     S
N301   H302    1.045   .     S
N304   H305    1.045   .     S
N304   H306    1.045   .     S
N307   H308    1.045   .     S
N307   H309    1.045   .     S
N310   H311    1.045   .     S
N310   H312    1.045   .     S
N313   H314    1.040   .     S
N313   H315    1.042   .     S
N316   H318    1.042   .     S
N316   H317    1.040   .     S
N319   H320    1.045   .     S
N319   H321    1.045   .     S
N322   H324    1.045   .     S
N322   H323    1.045   .     S
C325   O345    1.284   .     A
C325   C336    1.405   .     S
C325   O343    1.285   .     A
C326   O346    1.284   .     A
C326   C335    1.405   .     S
C326   O344    1.285   .     A
C327   O347    1.281   .     A
C327   O349    1.288   .     A
C327   C329    1.399   .     S
C328   O350    1.288   .     A
C328   O348    1.281   .     A
C328   C330    1.399   .     S
C329   C438    1.343   1_455 S
C329   Br461   1.945   1_455 S
C330   C383    1.343   .     S
C330   Br408   1.945   .     S
C331   C336    1.399   .     A
C331   N355    1.436   .     S
C332   N358    1.436   .     S
C332   C335    1.399   .     A
C332   C10     1.389   1_565 S
C333   C335    1.398   .     A
C333   N361    1.437   .     S
C333   C7      1.389   1_565 S
C334   C336    1.398   .     A
C334   N364    1.437   .     S
C337   N342    1.384   .     A
C337   N367    1.430   .     S
C337   C1311   1.424   1_554 S
C338   N370    1.430   .     S
C338   N341    1.384   .     A
C338   C826    1.424   .     S
C339   N373    1.430   .     S
C339   N341    1.360   .     A
C339   C823    1.424   .     S
C340   N342    1.360   .     A
C340   N376    1.430   .     S
C340   C1310   1.424   1_554 S
N341   Zn351   2.027   .     S
N342   Zn352   2.027   .     S
O343   Zn351   1.985   .     S
O344   Zn352   1.985   .     S
O345   Zn352   1.975   .     S
O346   Zn351   1.975   .     S
O347   Zn351   1.984   .     S
O348   Zn352   1.984   .     S
O349   Zn352   1.981   .     S
O350   Zn351   1.981   .     S
Br353  C383    1.945   .     S
Br354  C438    1.945   1_455 S
N355   H357    1.045   .     S
N355   H356    1.045   .     S
N358   H359    1.045   .     S
N358   H360    1.045   .     S
N361   H362    1.045   .     S
N361   H363    1.045   .     S
N364   H365    1.045   .     S
N364   H366    1.045   .     S
N367   H368    1.040   .     S
N367   H369    1.042   .     S
N370   H372    1.042   .     S
N370   H371    1.040   .     S
N373   H374    1.045   .     S
N373   H375    1.045   .     S
N376   H378    1.045   .     S
N376   H377    1.045   .     S
C379   O399    1.284   .     A
C379   C390    1.405   .     S
C379   O397    1.285   .     A
C380   O400    1.284   .     A
C380   C389    1.405   .     S
C380   O398    1.285   .     A
C381   O401    1.281   .     A
C381   O403    1.288   .     A
C381   C383    1.399   .     S
C382   O404    1.288   .     A
C382   O402    1.281   .     A
C382   C384    1.399   .     S
C384   C437    1.343   .     S
C384   Br462   1.945   .     S
C385   C390    1.399   .     A
C385   N409    1.436   .     S
C386   N412    1.436   .     S
C386   C389    1.399   .     A
C386   C64     1.389   1_565 S
C387   C389    1.398   .     A
C387   N415    1.437   .     S
C387   C61     1.389   1_565 S
C388   C390    1.398   .     A
C388   N418    1.437   .     S
C391   N396    1.384   .     A
C391   N421    1.430   .     S
C391   C1365   1.424   1_554 S
C392   N424    1.430   .     S
C392   N395    1.384   .     A
C392   C880    1.424   .     S
C393   N427    1.430   .     S
C393   N395    1.360   .     A
C393   C877    1.424   .     S
C394   N396    1.360   .     A
C394   N430    1.430   .     S
C394   C1364   1.424   1_554 S
N395   Zn405   2.027   .     S
N396   Zn406   2.027   .     S
O397   Zn405   1.985   .     S
O398   Zn406   1.985   .     S
O399   Zn406   1.975   .     S
O400   Zn405   1.975   .     S
O401   Zn405   1.984   .     S
O402   Zn406   1.984   .     S
O403   Zn406   1.981   .     S
O404   Zn405   1.981   .     S
Br407  C437    1.945   .     S
N409   H411    1.045   .     S
N409   H410    1.045   .     S
N412   H413    1.045   .     S
N412   H414    1.045   .     S
N415   H416    1.045   .     S
N415   H417    1.045   .     S
N418   H419    1.045   .     S
N418   H420    1.045   .     S
N421   H422    1.040   .     S
N421   H423    1.042   .     S
N424   H426    1.042   .     S
N424   H425    1.040   .     S
N427   H428    1.045   .     S
N427   H429    1.045   .     S
N430   H432    1.045   .     S
N430   H431    1.045   .     S
C433   O453    1.284   .     A
C433   C444    1.405   .     S
C433   O451    1.285   .     A
C434   O454    1.284   .     A
C434   C443    1.405   .     S
C434   O452    1.285   .     A
C435   O455    1.281   .     A
C435   O457    1.288   .     A
C435   C437    1.399   .     S
C436   O458    1.288   .     A
C436   O456    1.281   .     A
C436   C438    1.399   .     S
C438   C329    1.343   1_655 S
C438   Br354   1.945   1_655 S
C439   C444    1.399   .     A
C439   N463    1.436   .     S
C440   N466    1.436   .     S
C440   C443    1.399   .     A
C440   C118    1.389   1_565 S
C441   C443    1.398   .     A
C441   N469    1.437   .     S
C441   C115    1.389   1_565 S
C442   C444    1.398   .     A
C442   N472    1.437   .     S
C445   N450    1.384   .     A
C445   N475    1.430   .     S
C445   C1419   1.424   1_554 S
C446   N478    1.430   .     S
C446   N449    1.384   .     A
C446   C934    1.424   .     S
C447   N481    1.430   .     S
C447   N449    1.360   .     A
C447   C931    1.424   .     S
C448   N450    1.360   .     A
C448   N484    1.430   .     S
C448   C1418   1.424   1_554 S
N449   Zn459   2.027   .     S
N450   Zn460   2.027   .     S
O451   Zn459   1.985   .     S
O452   Zn460   1.985   .     S
O453   Zn460   1.975   .     S
O454   Zn459   1.975   .     S
O455   Zn459   1.984   .     S
O456   Zn460   1.984   .     S
O457   Zn460   1.981   .     S
O458   Zn459   1.981   .     S
Br461  C329    1.945   1_655 S
N463   H465    1.045   .     S
N463   H464    1.045   .     S
N466   H467    1.045   .     S
N466   H468    1.045   .     S
N469   H470    1.045   .     S
N469   H471    1.045   .     S
N472   H473    1.045   .     S
N472   H474    1.045   .     S
N475   H476    1.040   .     S
N475   H477    1.042   .     S
N478   H480    1.042   .     S
N478   H479    1.040   .     S
N481   H482    1.045   .     S
N481   H483    1.045   .     S
N484   H486    1.045   .     S
N484   H485    1.045   .     S
C487   O507    1.284   .     A
C487   C498    1.405   .     S
C487   O505    1.285   .     A
C488   O508    1.284   .     A
C488   C497    1.405   .     S
C488   O506    1.285   .     A
C489   O509    1.281   .     A
C489   O511    1.288   .     A
C489   C491    1.399   .     S
C490   O512    1.288   .     A
C490   O510    1.281   .     A
C490   C492    1.399   .     S
C491   C600    1.343   1_455 S
C491   Br623   1.945   1_455 S
C492   C545    1.343   .     S
C492   Br570   1.945   .     S
C493   C498    1.399   .     A
C493   N517    1.436   .     S
C493   C819    1.389   1_545 S
C494   N520    1.436   .     S
C494   C497    1.399   .     A
C494   C658    1.389   .     S
C495   C497    1.398   .     A
C495   N523    1.437   .     S
C495   C655    1.389   .     S
C496   C498    1.398   .     A
C496   N526    1.437   .     S
C496   C818    1.389   1_545 S
C499   N504    1.384   .     A
C499   N529    1.430   .     S
C500   N532    1.430   .     S
C500   N503    1.384   .     A
C500   C988    1.424   .     S
C501   N535    1.430   .     S
C501   N503    1.360   .     A
C501   C985    1.424   .     S
C502   N504    1.360   .     A
C502   N538    1.430   .     S
N503   Zn513   2.027   .     S
N504   Zn514   2.027   .     S
O505   Zn513   1.985   .     S
O506   Zn514   1.985   .     S
O507   Zn514   1.975   .     S
O508   Zn513   1.975   .     S
O509   Zn513   1.984   .     S
O510   Zn514   1.984   .     S
O511   Zn514   1.981   .     S
O512   Zn513   1.981   .     S
Br515  C545    1.945   .     S
Br516  C600    1.945   1_455 S
N517   H519    1.045   .     S
N517   H518    1.045   .     S
N520   H521    1.045   .     S
N520   H522    1.045   .     S
N523   H524    1.045   .     S
N523   H525    1.045   .     S
N526   H527    1.045   .     S
N526   H528    1.045   .     S
N529   H530    1.040   .     S
N529   H531    1.042   .     S
N532   H534    1.042   .     S
N532   H533    1.040   .     S
N535   H536    1.045   .     S
N535   H537    1.045   .     S
N538   H540    1.045   .     S
N538   H539    1.045   .     S
C541   O561    1.284   .     A
C541   C552    1.405   .     S
C541   O559    1.285   .     A
C542   O562    1.284   .     A
C542   C551    1.405   .     S
C542   O560    1.285   .     A
C543   O563    1.281   .     A
C543   O565    1.288   .     A
C543   C545    1.399   .     S
C544   O566    1.288   .     A
C544   O564    1.281   .     A
C544   C546    1.399   .     S
C546   C599    1.343   .     S
C546   Br624   1.945   .     S
C547   C552    1.399   .     A
C547   N571    1.436   .     S
C547   C873    1.389   1_545 S
C548   N574    1.436   .     S
C548   C551    1.399   .     A
C548   C712    1.389   .     S
C549   C551    1.398   .     A
C549   N577    1.437   .     S
C549   C709    1.389   .     S
C550   C552    1.398   .     A
C550   N580    1.437   .     S
C550   C872    1.389   1_545 S
C553   N558    1.384   .     A
C553   N583    1.430   .     S
C554   N586    1.430   .     S
C554   N557    1.384   .     A
C554   C1042   1.424   .     S
C555   N589    1.430   .     S
C555   N557    1.360   .     A
C555   C1039   1.424   .     S
C556   N558    1.360   .     A
C556   N592    1.430   .     S
N557   Zn567   2.027   .     S
N558   Zn568   2.027   .     S
O559   Zn567   1.985   .     S
O560   Zn568   1.985   .     S
O561   Zn568   1.975   .     S
O562   Zn567   1.975   .     S
O563   Zn567   1.984   .     S
O564   Zn568   1.984   .     S
O565   Zn568   1.981   .     S
O566   Zn567   1.981   .     S
Br569  C599    1.945   .     S
N571   H573    1.045   .     S
N571   H572    1.045   .     S
N574   H575    1.045   .     S
N574   H576    1.045   .     S
N577   H578    1.045   .     S
N577   H579    1.045   .     S
N580   H581    1.045   .     S
N580   H582    1.045   .     S
N583   H584    1.040   .     S
N583   H585    1.042   .     S
N586   H588    1.042   .     S
N586   H587    1.040   .     S
N589   H590    1.045   .     S
N589   H591    1.045   .     S
N592   H594    1.045   .     S
N592   H593    1.045   .     S
C595   O615    1.284   .     A
C595   C606    1.405   .     S
C595   O613    1.285   .     A
C596   O616    1.284   .     A
C596   C605    1.405   .     S
C596   O614    1.285   .     A
C597   O617    1.281   .     A
C597   O619    1.288   .     A
C597   C599    1.399   .     S
C598   O620    1.288   .     A
C598   O618    1.281   .     A
C598   C600    1.399   .     S
C600   C491    1.343   1_655 S
C600   Br516   1.945   1_655 S
C601   C606    1.399   .     A
C601   N625    1.436   .     S
C601   C927    1.389   1_545 S
C602   N628    1.436   .     S
C602   C605    1.399   .     A
C602   C766    1.389   .     S
C603   C605    1.398   .     A
C603   N631    1.437   .     S
C603   C763    1.389   .     S
C604   C606    1.398   .     A
C604   N634    1.437   .     S
C604   C926    1.389   1_545 S
C607   N612    1.384   .     A
C607   N637    1.430   .     S
C608   N640    1.430   .     S
C608   N611    1.384   .     A
C608   C1096   1.424   .     S
C609   N643    1.430   .     S
C609   N611    1.360   .     A
C609   C1093   1.424   .     S
C610   N612    1.360   .     A
C610   N646    1.430   .     S
N611   Zn621   2.027   .     S
N612   Zn622   2.027   .     S
O613   Zn621   1.985   .     S
O614   Zn622   1.985   .     S
O615   Zn622   1.975   .     S
O616   Zn621   1.975   .     S
O617   Zn621   1.984   .     S
O618   Zn622   1.984   .     S
O619   Zn622   1.981   .     S
O620   Zn621   1.981   .     S
Br623  C491    1.945   1_655 S
N625   H627    1.045   .     S
N625   H626    1.045   .     S
N628   H629    1.045   .     S
N628   H630    1.045   .     S
N631   H632    1.045   .     S
N631   H633    1.045   .     S
N634   H635    1.045   .     S
N634   H636    1.045   .     S
N637   H638    1.040   .     S
N637   H639    1.042   .     S
N640   H642    1.042   .     S
N640   H641    1.040   .     S
N643   H644    1.045   .     S
N643   H645    1.045   .     S
N646   H648    1.045   .     S
N646   H647    1.045   .     S
C649   O669    1.284   .     A
C649   C660    1.405   .     S
C649   O667    1.285   .     A
C650   O670    1.284   .     A
C650   C659    1.405   .     S
C650   O668    1.285   .     A
C651   O671    1.281   .     A
C651   O673    1.288   .     A
C651   C653    1.399   .     S
C652   O674    1.288   .     A
C652   O672    1.281   .     A
C652   C654    1.399   .     S
C653   C762    1.343   1_455 S
C653   Br785   1.945   1_455 S
C654   C707    1.343   .     S
C654   Br732   1.945   .     S
C655   C660    1.399   .     A
C655   N679    1.436   .     S
C656   N682    1.436   .     S
C656   C659    1.399   .     A
C656   C820    1.389   .     S
C657   C659    1.398   .     A
C657   N685    1.437   .     S
C657   C817    1.389   .     S
C658   C660    1.398   .     A
C658   N688    1.437   .     S
C661   N666    1.384   .     A
C661   N691    1.430   .     S
C662   N694    1.430   .     S
C662   N665    1.384   .     A
C662   C1150   1.424   .     S
C663   N697    1.430   .     S
C663   N665    1.360   .     A
C663   C1147   1.424   .     S
C664   N666    1.360   .     A
C664   N700    1.430   .     S
N665   Zn675   2.027   .     S
N666   Zn676   2.027   .     S
O667   Zn675   1.985   .     S
O668   Zn676   1.985   .     S
O669   Zn676   1.975   .     S
O670   Zn675   1.975   .     S
O671   Zn675   1.984   .     S
O672   Zn676   1.984   .     S
O673   Zn676   1.981   .     S
O674   Zn675   1.981   .     S
Br677  C707    1.945   .     S
Br678  C762    1.945   1_455 S
N679   H681    1.045   .     S
N679   H680    1.045   .     S
N682   H683    1.045   .     S
N682   H684    1.045   .     S
N685   H686    1.045   .     S
N685   H687    1.045   .     S
N688   H689    1.045   .     S
N688   H690    1.045   .     S
N691   H692    1.040   .     S
N691   H693    1.042   .     S
N694   H696    1.042   .     S
N694   H695    1.040   .     S
N697   H698    1.045   .     S
N697   H699    1.045   .     S
N700   H702    1.045   .     S
N700   H701    1.045   .     S
C703   O723    1.284   .     A
C703   C714    1.405   .     S
C703   O721    1.285   .     A
C704   O724    1.284   .     A
C704   C713    1.405   .     S
C704   O722    1.285   .     A
C705   O725    1.281   .     A
C705   O727    1.288   .     A
C705   C707    1.399   .     S
C706   O728    1.288   .     A
C706   O726    1.281   .     A
C706   C708    1.399   .     S
C708   C761    1.343   .     S
C708   Br786   1.945   .     S
C709   C714    1.399   .     A
C709   N733    1.436   .     S
C710   N736    1.436   .     S
C710   C713    1.399   .     A
C710   C874    1.389   .     S
C711   C713    1.398   .     A
C711   N739    1.437   .     S
C711   C871    1.389   .     S
C712   C714    1.398   .     A
C712   N742    1.437   .     S
C715   N720    1.384   .     A
C715   N745    1.430   .     S
C716   N748    1.430   .     S
C716   N719    1.384   .     A
C716   C1204   1.424   .     S
C717   N751    1.430   .     S
C717   N719    1.360   .     A
C717   C1201   1.424   .     S
C718   N720    1.360   .     A
C718   N754    1.430   .     S
N719   Zn729   2.027   .     S
N720   Zn730   2.027   .     S
O721   Zn729   1.985   .     S
O722   Zn730   1.985   .     S
O723   Zn730   1.975   .     S
O724   Zn729   1.975   .     S
O725   Zn729   1.984   .     S
O726   Zn730   1.984   .     S
O727   Zn730   1.981   .     S
O728   Zn729   1.981   .     S
Br731  C761    1.945   .     S
N733   H735    1.045   .     S
N733   H734    1.045   .     S
N736   H737    1.045   .     S
N736   H738    1.045   .     S
N739   H740    1.045   .     S
N739   H741    1.045   .     S
N742   H743    1.045   .     S
N742   H744    1.045   .     S
N745   H746    1.040   .     S
N745   H747    1.042   .     S
N748   H750    1.042   .     S
N748   H749    1.040   .     S
N751   H752    1.045   .     S
N751   H753    1.045   .     S
N754   H756    1.045   .     S
N754   H755    1.045   .     S
C757   O777    1.284   .     A
C757   C768    1.405   .     S
C757   O775    1.285   .     A
C758   O778    1.284   .     A
C758   C767    1.405   .     S
C758   O776    1.285   .     A
C759   O779    1.281   .     A
C759   O781    1.288   .     A
C759   C761    1.399   .     S
C760   O782    1.288   .     A
C760   O780    1.281   .     A
C760   C762    1.399   .     S
C762   C653    1.343   1_655 S
C762   Br678   1.945   1_655 S
C763   C768    1.399   .     A
C763   N787    1.436   .     S
C764   N790    1.436   .     S
C764   C767    1.399   .     A
C764   C928    1.389   .     S
C765   C767    1.398   .     A
C765   N793    1.437   .     S
C765   C925    1.389   .     S
C766   C768    1.398   .     A
C766   N796    1.437   .     S
C769   N774    1.384   .     A
C769   N799    1.430   .     S
C770   N802    1.430   .     S
C770   N773    1.384   .     A
C770   C1258   1.424   .     S
C771   N805    1.430   .     S
C771   N773    1.360   .     A
C771   C1255   1.424   .     S
C772   N774    1.360   .     A
C772   N808    1.430   .     S
N773   Zn783   2.027   .     S
N774   Zn784   2.027   .     S
O775   Zn783   1.985   .     S
O776   Zn784   1.985   .     S
O777   Zn784   1.975   .     S
O778   Zn783   1.975   .     S
O779   Zn783   1.984   .     S
O780   Zn784   1.984   .     S
O781   Zn784   1.981   .     S
O782   Zn783   1.981   .     S
Br785  C653    1.945   1_655 S
N787   H789    1.045   .     S
N787   H788    1.045   .     S
N790   H791    1.045   .     S
N790   H792    1.045   .     S
N793   H794    1.045   .     S
N793   H795    1.045   .     S
N796   H797    1.045   .     S
N796   H798    1.045   .     S
N799   H800    1.040   .     S
N799   H801    1.042   .     S
N802   H804    1.042   .     S
N802   H803    1.040   .     S
N805   H806    1.045   .     S
N805   H807    1.045   .     S
N808   H810    1.045   .     S
N808   H809    1.045   .     S
C811   O831    1.284   .     A
C811   C822    1.405   .     S
C811   O829    1.285   .     A
C812   O832    1.284   .     A
C812   C821    1.405   .     S
C812   O830    1.285   .     A
C813   O833    1.281   .     A
C813   O835    1.288   .     A
C813   C815    1.399   .     S
C814   O836    1.288   .     A
C814   O834    1.281   .     A
C814   C816    1.399   .     S
C815   C924    1.343   1_455 S
C815   Br947   1.945   1_455 S
C816   C869    1.343   .     S
C816   Br894   1.945   .     S
C817   C822    1.399   .     A
C817   N841    1.436   .     S
C818   N844    1.436   .     S
C818   C821    1.399   .     A
C818   C496    1.389   1_565 S
C819   C821    1.398   .     A
C819   N847    1.437   .     S
C819   C493    1.389   1_565 S
C820   C822    1.398   .     A
C820   N850    1.437   .     S
C823   N828    1.384   .     A
C823   N853    1.430   .     S
C824   N856    1.430   .     S
C824   N827    1.384   .     A
C824   C1312   1.424   .     S
C825   N859    1.430   .     S
C825   N827    1.360   .     A
C825   C1309   1.424   .     S
C826   N828    1.360   .     A
C826   N862    1.430   .     S
N827   Zn837   2.027   .     S
N828   Zn838   2.027   .     S
O829   Zn837   1.985   .     S
O830   Zn838   1.985   .     S
O831   Zn838   1.975   .     S
O832   Zn837   1.975   .     S
O833   Zn837   1.984   .     S
O834   Zn838   1.984   .     S
O835   Zn838   1.981   .     S
O836   Zn837   1.981   .     S
Br839  C869    1.945   .     S
Br840  C924    1.945   1_455 S
N841   H843    1.045   .     S
N841   H842    1.045   .     S
N844   H845    1.045   .     S
N844   H846    1.045   .     S
N847   H848    1.045   .     S
N847   H849    1.045   .     S
N850   H851    1.045   .     S
N850   H852    1.045   .     S
N853   H854    1.040   .     S
N853   H855    1.042   .     S
N856   H858    1.042   .     S
N856   H857    1.040   .     S
N859   H860    1.045   .     S
N859   H861    1.045   .     S
N862   H864    1.045   .     S
N862   H863    1.045   .     S
C865   O885    1.284   .     A
C865   C876    1.405   .     S
C865   O883    1.285   .     A
C866   O886    1.284   .     A
C866   C875    1.405   .     S
C866   O884    1.285   .     A
C867   O887    1.281   .     A
C867   O889    1.288   .     A
C867   C869    1.399   .     S
C868   O890    1.288   .     A
C868   O888    1.281   .     A
C868   C870    1.399   .     S
C870   C923    1.343   .     S
C870   Br948   1.945   .     S
C871   C876    1.399   .     A
C871   N895    1.436   .     S
C872   N898    1.436   .     S
C872   C875    1.399   .     A
C872   C550    1.389   1_565 S
C873   C875    1.398   .     A
C873   N901    1.437   .     S
C873   C547    1.389   1_565 S
C874   C876    1.398   .     A
C874   N904    1.437   .     S
C877   N882    1.384   .     A
C877   N907    1.430   .     S
C878   N910    1.430   .     S
C878   N881    1.384   .     A
C878   C1366   1.424   .     S
C879   N913    1.430   .     S
C879   N881    1.360   .     A
C879   C1363   1.424   .     S
C880   N882    1.360   .     A
C880   N916    1.430   .     S
N881   Zn891   2.027   .     S
N882   Zn892   2.027   .     S
O883   Zn891   1.985   .     S
O884   Zn892   1.985   .     S
O885   Zn892   1.975   .     S
O886   Zn891   1.975   .     S
O887   Zn891   1.984   .     S
O888   Zn892   1.984   .     S
O889   Zn892   1.981   .     S
O890   Zn891   1.981   .     S
Br893  C923    1.945   .     S
N895   H897    1.045   .     S
N895   H896    1.045   .     S
N898   H899    1.045   .     S
N898   H900    1.045   .     S
N901   H902    1.045   .     S
N901   H903    1.045   .     S
N904   H905    1.045   .     S
N904   H906    1.045   .     S
N907   H908    1.040   .     S
N907   H909    1.042   .     S
N910   H912    1.042   .     S
N910   H911    1.040   .     S
N913   H914    1.045   .     S
N913   H915    1.045   .     S
N916   H918    1.045   .     S
N916   H917    1.045   .     S
C919   O939    1.284   .     A
C919   C930    1.405   .     S
C919   O937    1.285   .     A
C920   O940    1.284   .     A
C920   C929    1.405   .     S
C920   O938    1.285   .     A
C921   O941    1.281   .     A
C921   O943    1.288   .     A
C921   C923    1.399   .     S
C922   O944    1.288   .     A
C922   O942    1.281   .     A
C922   C924    1.399   .     S
C924   C815    1.343   1_655 S
C924   Br840   1.945   1_655 S
C925   C930    1.399   .     A
C925   N949    1.436   .     S
C926   N952    1.436   .     S
C926   C929    1.399   .     A
C926   C604    1.389   1_565 S
C927   C929    1.398   .     A
C927   N955    1.437   .     S
C927   C601    1.389   1_565 S
C928   C930    1.398   .     A
C928   N958    1.437   .     S
C931   N936    1.384   .     A
C931   N961    1.430   .     S
C932   N964    1.430   .     S
C932   N935    1.384   .     A
C932   C1420   1.424   .     S
C933   N967    1.430   .     S
C933   N935    1.360   .     A
C933   C1417   1.424   .     S
C934   N936    1.360   .     A
C934   N970    1.430   .     S
N935   Zn945   2.027   .     S
N936   Zn946   2.027   .     S
O937   Zn945   1.985   .     S
O938   Zn946   1.985   .     S
O939   Zn946   1.975   .     S
O940   Zn945   1.975   .     S
O941   Zn945   1.984   .     S
O942   Zn946   1.984   .     S
O943   Zn946   1.981   .     S
O944   Zn945   1.981   .     S
Br947  C815    1.945   1_655 S
N949   H951    1.045   .     S
N949   H950    1.045   .     S
N952   H953    1.045   .     S
N952   H954    1.045   .     S
N955   H956    1.045   .     S
N955   H957    1.045   .     S
N958   H959    1.045   .     S
N958   H960    1.045   .     S
N961   H962    1.040   .     S
N961   H963    1.042   .     S
N964   H966    1.042   .     S
N964   H965    1.040   .     S
N967   H968    1.045   .     S
N967   H969    1.045   .     S
N970   H972    1.045   .     S
N970   H971    1.045   .     S
C973   O993    1.284   .     A
C973   C984    1.405   .     S
C973   O991    1.285   .     A
C974   O994    1.284   .     A
C974   C983    1.405   .     S
C974   O992    1.285   .     A
C975   O995    1.281   .     A
C975   O997    1.288   .     A
C975   C977    1.399   .     S
C976   O998    1.288   .     A
C976   O996    1.281   .     A
C976   C978    1.399   .     S
C977   C1086   1.343   1_455 S
C977   Br1109  1.945   1_455 S
C978   C1031   1.343   .     S
C978   Br1056  1.945   .     S
C979   C984    1.399   .     A
C979   N1003   1.436   .     S
C979   C1305   1.389   1_545 S
C980   N1006   1.436   .     S
C980   C983    1.399   .     A
C980   C1144   1.389   .     S
C981   C983    1.398   .     A
C981   N1009   1.437   .     S
C981   C1141   1.389   .     S
C982   C984    1.398   .     A
C982   N1012   1.437   .     S
C982   C1304   1.389   1_545 S
C985   N990    1.384   .     A
C985   N1015   1.430   .     S
C986   N1018   1.430   .     S
C986   N989    1.384   .     A
C986   C16     1.424   1_556 S
C987   N1021   1.430   .     S
C987   N989    1.360   .     A
C987   C13     1.424   1_556 S
C988   N990    1.360   .     A
C988   N1024   1.430   .     S
N989   Zn999   2.027   .     S
N990   Zn1000  2.027   .     S
O991   Zn999   1.985   .     S
O992   Zn1000  1.985   .     S
O993   Zn1000  1.975   .     S
O994   Zn999   1.975   .     S
O995   Zn999   1.984   .     S
O996   Zn1000  1.984   .     S
O997   Zn1000  1.981   .     S
O998   Zn999   1.981   .     S
Br1001 C1031   1.945   .     S
Br1002 C1086   1.945   1_455 S
N1003  H1005   1.045   .     S
N1003  H1004   1.045   .     S
N1006  H1007   1.045   .     S
N1006  H1008   1.045   .     S
N1009  H1010   1.045   .     S
N1009  H1011   1.045   .     S
N1012  H1013   1.045   .     S
N1012  H1014   1.045   .     S
N1015  H1016   1.040   .     S
N1015  H1017   1.042   .     S
N1018  H1020   1.042   .     S
N1018  H1019   1.040   .     S
N1021  H1022   1.045   .     S
N1021  H1023   1.045   .     S
N1024  H1026   1.045   .     S
N1024  H1025   1.045   .     S
C1027  O1047   1.284   .     A
C1027  C1038   1.405   .     S
C1027  O1045   1.285   .     A
C1028  O1048   1.284   .     A
C1028  C1037   1.405   .     S
C1028  O1046   1.285   .     A
C1029  O1049   1.281   .     A
C1029  O1051   1.288   .     A
C1029  C1031   1.399   .     S
C1030  O1052   1.288   .     A
C1030  O1050   1.281   .     A
C1030  C1032   1.399   .     S
C1032  C1085   1.343   .     S
C1032  Br1110  1.945   .     S
C1033  C1038   1.399   .     A
C1033  N1057   1.436   .     S
C1033  C1359   1.389   1_545 S
C1034  N1060   1.436   .     S
C1034  C1037   1.399   .     A
C1034  C1198   1.389   .     S
C1035  C1037   1.398   .     A
C1035  N1063   1.437   .     S
C1035  C1195   1.389   .     S
C1036  C1038   1.398   .     A
C1036  N1066   1.437   .     S
C1036  C1358   1.389   1_545 S
C1039  N1044   1.384   .     A
C1039  N1069   1.430   .     S
C1040  N1072   1.430   .     S
C1040  N1043   1.384   .     A
C1040  C70     1.424   1_556 S
C1041  N1075   1.430   .     S
C1041  N1043   1.360   .     A
C1041  C67     1.424   1_556 S
C1042  N1044   1.360   .     A
C1042  N1078   1.430   .     S
N1043  Zn1053  2.027   .     S
N1044  Zn1054  2.027   .     S
O1045  Zn1053  1.985   .     S
O1046  Zn1054  1.985   .     S
O1047  Zn1054  1.975   .     S
O1048  Zn1053  1.975   .     S
O1049  Zn1053  1.984   .     S
O1050  Zn1054  1.984   .     S
O1051  Zn1054  1.981   .     S
O1052  Zn1053  1.981   .     S
Br1055 C1085   1.945   .     S
N1057  H1059   1.045   .     S
N1057  H1058   1.045   .     S
N1060  H1061   1.045   .     S
N1060  H1062   1.045   .     S
N1063  H1064   1.045   .     S
N1063  H1065   1.045   .     S
N1066  H1067   1.045   .     S
N1066  H1068   1.045   .     S
N1069  H1070   1.040   .     S
N1069  H1071   1.042   .     S
N1072  H1074   1.042   .     S
N1072  H1073   1.040   .     S
N1075  H1076   1.045   .     S
N1075  H1077   1.045   .     S
N1078  H1080   1.045   .     S
N1078  H1079   1.045   .     S
C1081  O1101   1.284   .     A
C1081  C1092   1.405   .     S
C1081  O1099   1.285   .     A
C1082  O1102   1.284   .     A
C1082  C1091   1.405   .     S
C1082  O1100   1.285   .     A
C1083  O1103   1.281   .     A
C1083  O1105   1.288   .     A
C1083  C1085   1.399   .     S
C1084  O1106   1.288   .     A
C1084  O1104   1.281   .     A
C1084  C1086   1.399   .     S
C1086  C977    1.343   1_655 S
C1086  Br1002  1.945   1_655 S
C1087  C1092   1.399   .     A
C1087  N1111   1.436   .     S
C1087  C1413   1.389   1_545 S
C1088  N1114   1.436   .     S
C1088  C1091   1.399   .     A
C1088  C1252   1.389   .     S
C1089  C1091   1.398   .     A
C1089  N1117   1.437   .     S
C1089  C1249   1.389   .     S
C1090  C1092   1.398   .     A
C1090  N1120   1.437   .     S
C1090  C1412   1.389   1_545 S
C1093  N1098   1.384   .     A
C1093  N1123   1.430   .     S
C1094  N1126   1.430   .     S
C1094  N1097   1.384   .     A
C1094  C124    1.424   1_556 S
C1095  N1129   1.430   .     S
C1095  N1097   1.360   .     A
C1095  C121    1.424   1_556 S
C1096  N1098   1.360   .     A
C1096  N1132   1.430   .     S
N1097  Zn1107  2.027   .     S
N1098  Zn1108  2.027   .     S
O1099  Zn1107  1.985   .     S
O1100  Zn1108  1.985   .     S
O1101  Zn1108  1.975   .     S
O1102  Zn1107  1.975   .     S
O1103  Zn1107  1.984   .     S
O1104  Zn1108  1.984   .     S
O1105  Zn1108  1.981   .     S
O1106  Zn1107  1.981   .     S
Br1109 C977    1.945   1_655 S
N1111  H1113   1.045   .     S
N1111  H1112   1.045   .     S
N1114  H1115   1.045   .     S
N1114  H1116   1.045   .     S
N1117  H1118   1.045   .     S
N1117  H1119   1.045   .     S
N1120  H1121   1.045   .     S
N1120  H1122   1.045   .     S
N1123  H1124   1.040   .     S
N1123  H1125   1.042   .     S
N1126  H1128   1.042   .     S
N1126  H1127   1.040   .     S
N1129  H1130   1.045   .     S
N1129  H1131   1.045   .     S
N1132  H1134   1.045   .     S
N1132  H1133   1.045   .     S
C1135  O1155   1.284   .     A
C1135  C1146   1.405   .     S
C1135  O1153   1.285   .     A
C1136  O1156   1.284   .     A
C1136  C1145   1.405   .     S
C1136  O1154   1.285   .     A
C1137  O1157   1.281   .     A
C1137  O1159   1.288   .     A
C1137  C1139   1.399   .     S
C1138  O1160   1.288   .     A
C1138  O1158   1.281   .     A
C1138  C1140   1.399   .     S
C1139  C1248   1.343   1_455 S
C1139  Br1271  1.945   1_455 S
C1140  C1193   1.343   .     S
C1140  Br1218  1.945   .     S
C1141  C1146   1.399   .     A
C1141  N1165   1.436   .     S
C1142  N1168   1.436   .     S
C1142  C1145   1.399   .     A
C1142  C1306   1.389   .     S
C1143  C1145   1.398   .     A
C1143  N1171   1.437   .     S
C1143  C1303   1.389   .     S
C1144  C1146   1.398   .     A
C1144  N1174   1.437   .     S
C1147  N1152   1.384   .     A
C1147  N1177   1.430   .     S
C1148  N1180   1.430   .     S
C1148  N1151   1.384   .     A
C1148  C178    1.424   1_556 S
C1149  N1183   1.430   .     S
C1149  N1151   1.360   .     A
C1149  C175    1.424   1_556 S
C1150  N1152   1.360   .     A
C1150  N1186   1.430   .     S
N1151  Zn1161  2.027   .     S
N1152  Zn1162  2.027   .     S
O1153  Zn1161  1.985   .     S
O1154  Zn1162  1.985   .     S
O1155  Zn1162  1.975   .     S
O1156  Zn1161  1.975   .     S
O1157  Zn1161  1.984   .     S
O1158  Zn1162  1.984   .     S
O1159  Zn1162  1.981   .     S
O1160  Zn1161  1.981   .     S
Br1163 C1193   1.945   .     S
Br1164 C1248   1.945   1_455 S
N1165  H1167   1.045   .     S
N1165  H1166   1.045   .     S
N1168  H1169   1.045   .     S
N1168  H1170   1.045   .     S
N1171  H1172   1.045   .     S
N1171  H1173   1.045   .     S
N1174  H1175   1.045   .     S
N1174  H1176   1.045   .     S
N1177  H1178   1.040   .     S
N1177  H1179   1.042   .     S
N1180  H1182   1.042   .     S
N1180  H1181   1.040   .     S
N1183  H1184   1.045   .     S
N1183  H1185   1.045   .     S
N1186  H1188   1.045   .     S
N1186  H1187   1.045   .     S
C1189  O1209   1.284   .     A
C1189  C1200   1.405   .     S
C1189  O1207   1.285   .     A
C1190  O1210   1.284   .     A
C1190  C1199   1.405   .     S
C1190  O1208   1.285   .     A
C1191  O1211   1.281   .     A
C1191  O1213   1.288   .     A
C1191  C1193   1.399   .     S
C1192  O1214   1.288   .     A
C1192  O1212   1.281   .     A
C1192  C1194   1.399   .     S
C1194  C1247   1.343   .     S
C1194  Br1272  1.945   .     S
C1195  C1200   1.399   .     A
C1195  N1219   1.436   .     S
C1196  N1222   1.436   .     S
C1196  C1199   1.399   .     A
C1196  C1360   1.389   .     S
C1197  C1199   1.398   .     A
C1197  N1225   1.437   .     S
C1197  C1357   1.389   .     S
C1198  C1200   1.398   .     A
C1198  N1228   1.437   .     S
C1201  N1206   1.384   .     A
C1201  N1231   1.430   .     S
C1202  N1234   1.430   .     S
C1202  N1205   1.384   .     A
C1202  C232    1.424   1_556 S
C1203  N1237   1.430   .     S
C1203  N1205   1.360   .     A
C1203  C229    1.424   1_556 S
C1204  N1206   1.360   .     A
C1204  N1240   1.430   .     S
N1205  Zn1215  2.027   .     S
N1206  Zn1216  2.027   .     S
O1207  Zn1215  1.985   .     S
O1208  Zn1216  1.985   .     S
O1209  Zn1216  1.975   .     S
O1210  Zn1215  1.975   .     S
O1211  Zn1215  1.984   .     S
O1212  Zn1216  1.984   .     S
O1213  Zn1216  1.981   .     S
O1214  Zn1215  1.981   .     S
Br1217 C1247   1.945   .     S
N1219  H1221   1.045   .     S
N1219  H1220   1.045   .     S
N1222  H1223   1.045   .     S
N1222  H1224   1.045   .     S
N1225  H1226   1.045   .     S
N1225  H1227   1.045   .     S
N1228  H1229   1.045   .     S
N1228  H1230   1.045   .     S
N1231  H1232   1.040   .     S
N1231  H1233   1.042   .     S
N1234  H1236   1.042   .     S
N1234  H1235   1.040   .     S
N1237  H1238   1.045   .     S
N1237  H1239   1.045   .     S
N1240  H1242   1.045   .     S
N1240  H1241   1.045   .     S
C1243  O1263   1.284   .     A
C1243  C1254   1.405   .     S
C1243  O1261   1.285   .     A
C1244  O1264   1.284   .     A
C1244  C1253   1.405   .     S
C1244  O1262   1.285   .     A
C1245  O1265   1.281   .     A
C1245  O1267   1.288   .     A
C1245  C1247   1.399   .     S
C1246  O1268   1.288   .     A
C1246  O1266   1.281   .     A
C1246  C1248   1.399   .     S
C1248  C1139   1.343   1_655 S
C1248  Br1164  1.945   1_655 S
C1249  C1254   1.399   .     A
C1249  N1273   1.436   .     S
C1250  N1276   1.436   .     S
C1250  C1253   1.399   .     A
C1250  C1414   1.389   .     S
C1251  C1253   1.398   .     A
C1251  N1279   1.437   .     S
C1251  C1411   1.389   .     S
C1252  C1254   1.398   .     A
C1252  N1282   1.437   .     S
C1255  N1260   1.384   .     A
C1255  N1285   1.430   .     S
C1256  N1288   1.430   .     S
C1256  N1259   1.384   .     A
C1256  C286    1.424   1_556 S
C1257  N1291   1.430   .     S
C1257  N1259   1.360   .     A
C1257  C283    1.424   1_556 S
C1258  N1260   1.360   .     A
C1258  N1294   1.430   .     S
N1259  Zn1269  2.027   .     S
N1260  Zn1270  2.027   .     S
O1261  Zn1269  1.985   .     S
O1262  Zn1270  1.985   .     S
O1263  Zn1270  1.975   .     S
O1264  Zn1269  1.975   .     S
O1265  Zn1269  1.984   .     S
O1266  Zn1270  1.984   .     S
O1267  Zn1270  1.981   .     S
O1268  Zn1269  1.981   .     S
Br1271 C1139   1.945   1_655 S
N1273  H1275   1.045   .     S
N1273  H1274   1.045   .     S
N1276  H1277   1.045   .     S
N1276  H1278   1.045   .     S
N1279  H1280   1.045   .     S
N1279  H1281   1.045   .     S
N1282  H1283   1.045   .     S
N1282  H1284   1.045   .     S
N1285  H1286   1.040   .     S
N1285  H1287   1.042   .     S
N1288  H1290   1.042   .     S
N1288  H1289   1.040   .     S
N1291  H1292   1.045   .     S
N1291  H1293   1.045   .     S
N1294  H1296   1.045   .     S
N1294  H1295   1.045   .     S
C1297  O1317   1.284   .     A
C1297  C1308   1.405   .     S
C1297  O1315   1.285   .     A
C1298  O1318   1.284   .     A
C1298  C1307   1.405   .     S
C1298  O1316   1.285   .     A
C1299  O1319   1.281   .     A
C1299  O1321   1.288   .     A
C1299  C1301   1.399   .     S
C1300  O1322   1.288   .     A
C1300  O1320   1.281   .     A
C1300  C1302   1.399   .     S
C1301  C1410   1.343   1_455 S
C1301  Br1433  1.945   1_455 S
C1302  C1355   1.343   .     S
C1302  Br1380  1.945   .     S
C1303  C1308   1.399   .     A
C1303  N1327   1.436   .     S
C1304  N1330   1.436   .     S
C1304  C1307   1.399   .     A
C1304  C982    1.389   1_565 S
C1305  C1307   1.398   .     A
C1305  N1333   1.437   .     S
C1305  C979    1.389   1_565 S
C1306  C1308   1.398   .     A
C1306  N1336   1.437   .     S
C1309  N1314   1.384   .     A
C1309  N1339   1.430   .     S
C1310  N1342   1.430   .     S
C1310  N1313   1.384   .     A
C1310  C340    1.424   1_556 S
C1311  N1345   1.430   .     S
C1311  N1313   1.360   .     A
C1311  C337    1.424   1_556 S
C1312  N1314   1.360   .     A
C1312  N1348   1.430   .     S
N1313  Zn1323  2.027   .     S
N1314  Zn1324  2.027   .     S
O1315  Zn1323  1.985   .     S
O1316  Zn1324  1.985   .     S
O1317  Zn1324  1.975   .     S
O1318  Zn1323  1.975   .     S
O1319  Zn1323  1.984   .     S
O1320  Zn1324  1.984   .     S
O1321  Zn1324  1.981   .     S
O1322  Zn1323  1.981   .     S
Br1325 C1355   1.945   .     S
Br1326 C1410   1.945   1_455 S
N1327  H1329   1.045   .     S
N1327  H1328   1.045   .     S
N1330  H1331   1.045   .     S
N1330  H1332   1.045   .     S
N1333  H1334   1.045   .     S
N1333  H1335   1.045   .     S
N1336  H1337   1.045   .     S
N1336  H1338   1.045   .     S
N1339  H1340   1.040   .     S
N1339  H1341   1.042   .     S
N1342  H1344   1.042   .     S
N1342  H1343   1.040   .     S
N1345  H1346   1.045   .     S
N1345  H1347   1.045   .     S
N1348  H1350   1.045   .     S
N1348  H1349   1.045   .     S
C1351  O1371   1.284   .     A
C1351  C1362   1.405   .     S
C1351  O1369   1.285   .     A
C1352  O1372   1.284   .     A
C1352  C1361   1.405   .     S
C1352  O1370   1.285   .     A
C1353  O1373   1.281   .     A
C1353  O1375   1.288   .     A
C1353  C1355   1.399   .     S
C1354  O1376   1.288   .     A
C1354  O1374   1.281   .     A
C1354  C1356   1.399   .     S
C1356  C1409   1.343   .     S
C1356  Br1434  1.945   .     S
C1357  C1362   1.399   .     A
C1357  N1381   1.436   .     S
C1358  N1384   1.436   .     S
C1358  C1361   1.399   .     A
C1358  C1036   1.389   1_565 S
C1359  C1361   1.398   .     A
C1359  N1387   1.437   .     S
C1359  C1033   1.389   1_565 S
C1360  C1362   1.398   .     A
C1360  N1390   1.437   .     S
C1363  N1368   1.384   .     A
C1363  N1393   1.430   .     S
C1364  N1396   1.430   .     S
C1364  N1367   1.384   .     A
C1364  C394    1.424   1_556 S
C1365  N1399   1.430   .     S
C1365  N1367   1.360   .     A
C1365  C391    1.424   1_556 S
C1366  N1368   1.360   .     A
C1366  N1402   1.430   .     S
N1367  Zn1377  2.027   .     S
N1368  Zn1378  2.027   .     S
O1369  Zn1377  1.985   .     S
O1370  Zn1378  1.985   .     S
O1371  Zn1378  1.975   .     S
O1372  Zn1377  1.975   .     S
O1373  Zn1377  1.984   .     S
O1374  Zn1378  1.984   .     S
O1375  Zn1378  1.981   .     S
O1376  Zn1377  1.981   .     S
Br1379 C1409   1.945   .     S
N1381  H1383   1.045   .     S
N1381  H1382   1.045   .     S
N1384  H1385   1.045   .     S
N1384  H1386   1.045   .     S
N1387  H1388   1.045   .     S
N1387  H1389   1.045   .     S
N1390  H1391   1.045   .     S
N1390  H1392   1.045   .     S
N1393  H1394   1.040   .     S
N1393  H1395   1.042   .     S
N1396  H1398   1.042   .     S
N1396  H1397   1.040   .     S
N1399  H1400   1.045   .     S
N1399  H1401   1.045   .     S
N1402  H1404   1.045   .     S
N1402  H1403   1.045   .     S
C1405  O1425   1.284   .     A
C1405  C1416   1.405   .     S
C1405  O1423   1.285   .     A
C1406  O1426   1.284   .     A
C1406  C1415   1.405   .     S
C1406  O1424   1.285   .     A
C1407  O1427   1.281   .     A
C1407  O1429   1.288   .     A
C1407  C1409   1.399   .     S
C1408  O1430   1.288   .     A
C1408  O1428   1.281   .     A
C1408  C1410   1.399   .     S
C1410  C1301   1.343   1_655 S
C1410  Br1326  1.945   1_655 S
C1411  C1416   1.399   .     A
C1411  N1435   1.436   .     S
C1412  N1438   1.436   .     S
C1412  C1415   1.399   .     A
C1412  C1090   1.389   1_565 S
C1413  C1415   1.398   .     A
C1413  N1441   1.437   .     S
C1413  C1087   1.389   1_565 S
C1414  C1416   1.398   .     A
C1414  N1444   1.437   .     S
C1417  N1422   1.384   .     A
C1417  N1447   1.430   .     S
C1418  N1450   1.430   .     S
C1418  N1421   1.384   .     A
C1418  C448    1.424   1_556 S
C1419  N1453   1.430   .     S
C1419  N1421   1.360   .     A
C1419  C445    1.424   1_556 S
C1420  N1422   1.360   .     A
C1420  N1456   1.430   .     S
N1421  Zn1431  2.027   .     S
N1422  Zn1432  2.027   .     S
O1423  Zn1431  1.985   .     S
O1424  Zn1432  1.985   .     S
O1425  Zn1432  1.975   .     S
O1426  Zn1431  1.975   .     S
O1427  Zn1431  1.984   .     S
O1428  Zn1432  1.984   .     S
O1429  Zn1432  1.981   .     S
O1430  Zn1431  1.981   .     S
Br1433 C1301   1.945   1_655 S
N1435  H1437   1.045   .     S
N1435  H1436   1.045   .     S
N1438  H1439   1.045   .     S
N1438  H1440   1.045   .     S
N1441  H1442   1.045   .     S
N1441  H1443   1.045   .     S
N1444  H1445   1.045   .     S
N1444  H1446   1.045   .     S
N1447  H1448   1.040   .     S
N1447  H1449   1.042   .     S
N1450  H1452   1.042   .     S
N1450  H1451   1.040   .     S
N1453  H1454   1.045   .     S
N1453  H1455   1.045   .     S
N1456  H1458   1.045   .     S
N1456  H1457   1.045   .     S
