data_str_m2_o1_o17_pcu_sym.50
_audit_creation_date              2020-01-03
_audit_creation_method            'Materials Studio'
_symmetry_space_group_name_H-M    'P1'
_symmetry_Int_Tables_number       1
_symmetry_cell_setting            triclinic
loop_
_symmetry_equiv_pos_as_xyz
  x,y,z
_cell_length_a                    32.4602
_cell_length_b                    29.0801
_cell_length_c                    30.1555
_cell_angle_alpha                 90.0327
_cell_angle_beta                  94.7683
_cell_angle_gamma                 89.9832
loop_
_atom_site_label
_atom_site_type_symbol
_atom_site_fract_x
_atom_site_fract_y
_atom_site_fract_z
_atom_site_U_iso_or_equiv
_atom_site_adp_type
_atom_site_occupancy
O1     O     0.10655   0.20625   0.24999   0.00000  Uiso   1.00
O2     O     0.22679   0.12709   0.25000   0.00000  Uiso   1.00
O3     O     0.22679   0.20625   0.25000   0.00000  Uiso   1.00
O4     O     0.10655   0.12709   0.24999   0.00000  Uiso   1.00
C5     C     0.08749   0.16667   0.24944   0.00000  Uiso   1.00
C6     C     0.24584   0.16666   0.25056   0.00000  Uiso   1.00
O7     O     0.16666   0.20627   0.18513   0.00000  Uiso   1.00
O8     O     0.16668   0.12707   0.31487   0.00000  Uiso   1.00
O9     O     0.16668   0.20627   0.31487   0.00000  Uiso   1.00
O10    O     0.16666   0.12707   0.18513   0.00000  Uiso   1.00
C11    C     0.16662   0.16668   0.16478   0.00000  Uiso   1.00
C12    C     0.16671   0.16666   0.33522   0.00000  Uiso   1.00
Cu13   Cu    0.16667   0.21355   0.25000   0.00000  Uiso   1.00
Cu14   Cu    0.16667   0.11978   0.25000   0.00000  Uiso   1.00
C15    C     0.20285   0.17936   0.40960   0.00000  Uiso   1.00
C16    C     0.13049   0.15397   0.09040   0.00000  Uiso   1.00
C17    C     0.16661   0.16653   0.38350   0.00000  Uiso   1.00
C18    C     0.16672   0.16680   0.11650   0.00000  Uiso   1.00
C19    C     0.13092   0.15229   0.40329   0.00000  Uiso   1.00
C20    C     0.20241   0.18104   0.09671   0.00000  Uiso   1.00
C21    C     0.13251   0.14891   0.45003   0.00000  Uiso   1.00
C22    C     0.20082   0.18443   0.04997   0.00000  Uiso   1.00
C23    C     0.16679   0.16689   0.47650   0.00000  Uiso   1.00
C24    C     0.16654   0.16644   0.02350   0.00000  Uiso   1.00
C25    C     0.20116   0.18541   0.45609   0.00000  Uiso   1.00
C26    C     0.13218   0.14792   0.04391   0.00000  Uiso   1.00
C27    C     0.10073   0.12702   0.47073   0.00000  Uiso   1.00
C28    C     0.23261   0.20631   0.02927   0.00000  Uiso   1.00
C29    C     0.10095   0.12439   0.01687   0.00000  Uiso   1.00
C30    C     0.23238   0.20895   0.48313   0.00000  Uiso   1.00
H31    H     0.07589   0.10991   0.45103   0.00000  Uiso   1.00
H32    H     0.25744   0.22343   0.04897   0.00000  Uiso   1.00
C33    C     0.02138   0.12490   0.25065   0.00000  Uiso   1.00
C34    C     0.31195   0.20843   0.24935   0.00000  Uiso   1.00
C35    C     0.31213   0.12490   0.25113   0.00000  Uiso   1.00
C36    C     0.02120   0.20843   0.24887   0.00000  Uiso   1.00
H37    H     0.03744   0.09222   0.25125   0.00000  Uiso   1.00
H38    H     0.29590   0.24111   0.24874   0.00000  Uiso   1.00
H39    H     0.29623   0.09222   0.25196   0.00000  Uiso   1.00
H40    H     0.03711   0.24112   0.24804   0.00000  Uiso   1.00
C41    C     0.29055   0.16666   0.25047   0.00000  Uiso   1.00
C42    C     0.04279   0.16667   0.24953   0.00000  Uiso   1.00
C43    C     0.13979   0.02465   0.22100   0.00000  Uiso   1.00
C44    C     0.19355   0.30868   0.27900   0.00000  Uiso   1.00
C45    C     0.19354   0.02472   0.27902   0.00000  Uiso   1.00
C46    C     0.13979   0.30861   0.22098   0.00000  Uiso   1.00
N47    N     0.16667   0.28402   0.25000   0.00000  Uiso   1.00
N48    N     0.16667   0.04931   0.25000   0.00000  Uiso   1.00
C49    C     0.24391   0.17867   0.38873   0.00000  Uiso   1.00
H50    H     0.26824   0.16305   0.41201   0.00000  Uiso   1.00
H51    H     0.24297   0.15662   0.35865   0.00000  Uiso   1.00
H52    H     0.25296   0.21365   0.37888   0.00000  Uiso   1.00
C53    C     0.08942   0.15467   0.11127   0.00000  Uiso   1.00
H54    H     0.06509   0.17028   0.08798   0.00000  Uiso   1.00
H55    H     0.08038   0.11969   0.12112   0.00000  Uiso   1.00
H56    H     0.09036   0.17673   0.14134   0.00000  Uiso   1.00
C57    C     0.09137   0.14033   0.37500   0.00000  Uiso   1.00
H58    H     0.09147   0.15143   0.33999   0.00000  Uiso   1.00
H59    H     0.08630   0.10257   0.37527   0.00000  Uiso   1.00
H60    H     0.06467   0.15813   0.38818   0.00000  Uiso   1.00
C61    C     0.24196   0.19301   0.12500   0.00000  Uiso   1.00
H62    H     0.24187   0.18189   0.16001   0.00000  Uiso   1.00
H63    H     0.26866   0.17520   0.11182   0.00000  Uiso   1.00
H64    H     0.24703   0.23076   0.12473   0.00000  Uiso   1.00
C65    C     0.07073   0.09114   0.03510   0.00000  Uiso   1.00
H66    H     0.05928   0.06557   0.00958   0.00000  Uiso   1.00
H67    H     0.08619   0.07087   0.06288   0.00000  Uiso   1.00
H68    H     0.04324   0.10949   0.04560   0.00000  Uiso   1.00
C69    C     0.26260   0.24219   0.46491   0.00000  Uiso   1.00
H70    H     0.27407   0.26775   0.49043   0.00000  Uiso   1.00
H71    H     0.29009   0.22384   0.45439   0.00000  Uiso   1.00
H72    H     0.24714   0.26247   0.43713   0.00000  Uiso   1.00
C73    C     0.10909   0.04845   0.18787   0.00000  Uiso   1.00
H74    H     0.10923   0.08557   0.18841   0.00000  Uiso   1.00
H75    H     0.11523   0.03895   0.15340   0.00000  Uiso   1.00
H76    H     0.07705   0.03870   0.19411   0.00000  Uiso   1.00
C77    C     0.22425   0.28488   0.31213   0.00000  Uiso   1.00
H78    H     0.22410   0.24776   0.31159   0.00000  Uiso   1.00
H79    H     0.25628   0.29464   0.30588   0.00000  Uiso   1.00
H80    H     0.21811   0.29439   0.34660   0.00000  Uiso   1.00
C81    C     0.22421   0.04857   0.31227   0.00000  Uiso   1.00
H82    H     0.22429   0.08574   0.31195   0.00000  Uiso   1.00
H83    H     0.21796   0.03902   0.34669   0.00000  Uiso   1.00
H84    H     0.25624   0.03866   0.30614   0.00000  Uiso   1.00
C85    C     0.10912   0.28477   0.18772   0.00000  Uiso   1.00
H86    H     0.10905   0.24759   0.18805   0.00000  Uiso   1.00
H87    H     0.07709   0.29467   0.19386   0.00000  Uiso   1.00
H88    H     0.11537   0.29431   0.15331   0.00000  Uiso   1.00
O89    O     0.43988   0.20625   0.24999   0.00000  Uiso   1.00
O90    O     0.56012   0.12709   0.25000   0.00000  Uiso   1.00
O91    O     0.56012   0.20625   0.25000   0.00000  Uiso   1.00
O92    O     0.43988   0.12709   0.24999   0.00000  Uiso   1.00
C93    C     0.42082   0.16667   0.24944   0.00000  Uiso   1.00
C94    C     0.57918   0.16666   0.25056   0.00000  Uiso   1.00
O95    O     0.49999   0.20627   0.18513   0.00000  Uiso   1.00
O96    O     0.50001   0.12707   0.31487   0.00000  Uiso   1.00
O97    O     0.50001   0.20627   0.31487   0.00000  Uiso   1.00
O98    O     0.49999   0.12707   0.18513   0.00000  Uiso   1.00
C99    C     0.49995   0.16668   0.16478   0.00000  Uiso   1.00
C100   C     0.50005   0.16666   0.33522   0.00000  Uiso   1.00
Cu101  Cu    0.50000   0.21355   0.25000   0.00000  Uiso   1.00
Cu102  Cu    0.50000   0.11978   0.25000   0.00000  Uiso   1.00
C103   C     0.53618   0.17936   0.40960   0.00000  Uiso   1.00
C104   C     0.46382   0.15397   0.09040   0.00000  Uiso   1.00
C105   C     0.49995   0.16653   0.38350   0.00000  Uiso   1.00
C106   C     0.50005   0.16680   0.11650   0.00000  Uiso   1.00
C107   C     0.46425   0.15229   0.40329   0.00000  Uiso   1.00
C108   C     0.53575   0.18104   0.09671   0.00000  Uiso   1.00
C109   C     0.46584   0.14891   0.45003   0.00000  Uiso   1.00
C110   C     0.53416   0.18443   0.04997   0.00000  Uiso   1.00
C111   C     0.50012   0.16689   0.47650   0.00000  Uiso   1.00
C112   C     0.49988   0.16644   0.02350   0.00000  Uiso   1.00
C113   C     0.53449   0.18541   0.45609   0.00000  Uiso   1.00
C114   C     0.46551   0.14792   0.04391   0.00000  Uiso   1.00
C115   C     0.43406   0.12702   0.47073   0.00000  Uiso   1.00
C116   C     0.56594   0.20631   0.02927   0.00000  Uiso   1.00
C117   C     0.43429   0.12439   0.01687   0.00000  Uiso   1.00
C118   C     0.56571   0.20895   0.48313   0.00000  Uiso   1.00
H119   H     0.40923   0.10991   0.45103   0.00000  Uiso   1.00
H120   H     0.59078   0.22343   0.04897   0.00000  Uiso   1.00
C121   C     0.35472   0.12490   0.25065   0.00000  Uiso   1.00
C122   C     0.64528   0.20843   0.24935   0.00000  Uiso   1.00
C123   C     0.64546   0.12490   0.25113   0.00000  Uiso   1.00
C124   C     0.35454   0.20843   0.24887   0.00000  Uiso   1.00
H125   H     0.37077   0.09222   0.25125   0.00000  Uiso   1.00
H126   H     0.62923   0.24111   0.24874   0.00000  Uiso   1.00
H127   H     0.62956   0.09222   0.25196   0.00000  Uiso   1.00
H128   H     0.37044   0.24112   0.24804   0.00000  Uiso   1.00
C129   C     0.62388   0.16666   0.25047   0.00000  Uiso   1.00
C130   C     0.37612   0.16667   0.24953   0.00000  Uiso   1.00
C131   C     0.47312   0.02465   0.22100   0.00000  Uiso   1.00
C132   C     0.52688   0.30868   0.27900   0.00000  Uiso   1.00
C133   C     0.52688   0.02472   0.27902   0.00000  Uiso   1.00
C134   C     0.47312   0.30861   0.22098   0.00000  Uiso   1.00
N135   N     0.50000   0.28402   0.25000   0.00000  Uiso   1.00
N136   N     0.50000   0.04931   0.25000   0.00000  Uiso   1.00
C137   C     0.57724   0.17867   0.38873   0.00000  Uiso   1.00
H138   H     0.60158   0.16305   0.41201   0.00000  Uiso   1.00
H139   H     0.57630   0.15662   0.35865   0.00000  Uiso   1.00
H140   H     0.58629   0.21365   0.37888   0.00000  Uiso   1.00
C141   C     0.42276   0.15467   0.11127   0.00000  Uiso   1.00
H142   H     0.39842   0.17028   0.08798   0.00000  Uiso   1.00
H143   H     0.41371   0.11969   0.12112   0.00000  Uiso   1.00
H144   H     0.42370   0.17673   0.14134   0.00000  Uiso   1.00
C145   C     0.42470   0.14033   0.37500   0.00000  Uiso   1.00
H146   H     0.42480   0.15143   0.33999   0.00000  Uiso   1.00
H147   H     0.41963   0.10257   0.37527   0.00000  Uiso   1.00
H148   H     0.39800   0.15813   0.38818   0.00000  Uiso   1.00
C149   C     0.57530   0.19301   0.12500   0.00000  Uiso   1.00
H150   H     0.57520   0.18189   0.16001   0.00000  Uiso   1.00
H151   H     0.60200   0.17520   0.11182   0.00000  Uiso   1.00
H152   H     0.58037   0.23076   0.12473   0.00000  Uiso   1.00
C153   C     0.40407   0.09114   0.03510   0.00000  Uiso   1.00
H154   H     0.39261   0.06557   0.00958   0.00000  Uiso   1.00
H155   H     0.41952   0.07087   0.06288   0.00000  Uiso   1.00
H156   H     0.37657   0.10949   0.04560   0.00000  Uiso   1.00
C157   C     0.59594   0.24219   0.46491   0.00000  Uiso   1.00
H158   H     0.60740   0.26775   0.49043   0.00000  Uiso   1.00
H159   H     0.62342   0.22384   0.45439   0.00000  Uiso   1.00
H160   H     0.58048   0.26247   0.43713   0.00000  Uiso   1.00
C161   C     0.44242   0.04845   0.18787   0.00000  Uiso   1.00
H162   H     0.44256   0.08557   0.18841   0.00000  Uiso   1.00
H163   H     0.44856   0.03895   0.15340   0.00000  Uiso   1.00
H164   H     0.41038   0.03870   0.19411   0.00000  Uiso   1.00
C165   C     0.55758   0.28488   0.31213   0.00000  Uiso   1.00
H166   H     0.55744   0.24776   0.31159   0.00000  Uiso   1.00
H167   H     0.58962   0.29464   0.30588   0.00000  Uiso   1.00
H168   H     0.55144   0.29439   0.34660   0.00000  Uiso   1.00
C169   C     0.55754   0.04857   0.31227   0.00000  Uiso   1.00
H170   H     0.55762   0.08574   0.31195   0.00000  Uiso   1.00
H171   H     0.55130   0.03902   0.34669   0.00000  Uiso   1.00
H172   H     0.58958   0.03866   0.30614   0.00000  Uiso   1.00
C173   C     0.44246   0.28477   0.18772   0.00000  Uiso   1.00
H174   H     0.44238   0.24759   0.18805   0.00000  Uiso   1.00
H175   H     0.41042   0.29467   0.19386   0.00000  Uiso   1.00
H176   H     0.44870   0.29431   0.15331   0.00000  Uiso   1.00
O177   O     0.77321   0.20625   0.24999   0.00000  Uiso   1.00
O178   O     0.89345   0.12709   0.25000   0.00000  Uiso   1.00
O179   O     0.89345   0.20625   0.25000   0.00000  Uiso   1.00
O180   O     0.77321   0.12709   0.24999   0.00000  Uiso   1.00
C181   C     0.75416   0.16667   0.24944   0.00000  Uiso   1.00
C182   C     0.91251   0.16666   0.25056   0.00000  Uiso   1.00
O183   O     0.83332   0.20627   0.18513   0.00000  Uiso   1.00
O184   O     0.83334   0.12707   0.31487   0.00000  Uiso   1.00
O185   O     0.83334   0.20627   0.31487   0.00000  Uiso   1.00
O186   O     0.83332   0.12707   0.18513   0.00000  Uiso   1.00
C187   C     0.83329   0.16668   0.16478   0.00000  Uiso   1.00
C188   C     0.83338   0.16666   0.33522   0.00000  Uiso   1.00
Cu189  Cu    0.83333   0.21355   0.25000   0.00000  Uiso   1.00
Cu190  Cu    0.83333   0.11978   0.25000   0.00000  Uiso   1.00
C191   C     0.86951   0.17936   0.40960   0.00000  Uiso   1.00
C192   C     0.79715   0.15397   0.09040   0.00000  Uiso   1.00
C193   C     0.83328   0.16653   0.38350   0.00000  Uiso   1.00
C194   C     0.83339   0.16680   0.11650   0.00000  Uiso   1.00
C195   C     0.79759   0.15229   0.40329   0.00000  Uiso   1.00
C196   C     0.86908   0.18104   0.09671   0.00000  Uiso   1.00
C197   C     0.79918   0.14891   0.45003   0.00000  Uiso   1.00
C198   C     0.86749   0.18443   0.04997   0.00000  Uiso   1.00
C199   C     0.83346   0.16689   0.47650   0.00000  Uiso   1.00
C200   C     0.83321   0.16644   0.02350   0.00000  Uiso   1.00
C201   C     0.86782   0.18541   0.45609   0.00000  Uiso   1.00
C202   C     0.79885   0.14792   0.04391   0.00000  Uiso   1.00
C203   C     0.76739   0.12702   0.47073   0.00000  Uiso   1.00
C204   C     0.89928   0.20631   0.02927   0.00000  Uiso   1.00
C205   C     0.76762   0.12439   0.01687   0.00000  Uiso   1.00
C206   C     0.89905   0.20895   0.48313   0.00000  Uiso   1.00
H207   H     0.74256   0.10991   0.45103   0.00000  Uiso   1.00
H208   H     0.92411   0.22343   0.04897   0.00000  Uiso   1.00
C209   C     0.68805   0.12490   0.25065   0.00000  Uiso   1.00
C210   C     0.97862   0.20843   0.24935   0.00000  Uiso   1.00
C211   C     0.97880   0.12490   0.25113   0.00000  Uiso   1.00
C212   C     0.68787   0.20843   0.24887   0.00000  Uiso   1.00
H213   H     0.70410   0.09222   0.25125   0.00000  Uiso   1.00
H214   H     0.96256   0.24111   0.24874   0.00000  Uiso   1.00
H215   H     0.96289   0.09222   0.25196   0.00000  Uiso   1.00
H216   H     0.70377   0.24112   0.24804   0.00000  Uiso   1.00
C217   C     0.95721   0.16666   0.25047   0.00000  Uiso   1.00
C218   C     0.70945   0.16667   0.24953   0.00000  Uiso   1.00
C219   C     0.80645   0.02465   0.22100   0.00000  Uiso   1.00
C220   C     0.86021   0.30868   0.27900   0.00000  Uiso   1.00
C221   C     0.86021   0.02472   0.27902   0.00000  Uiso   1.00
C222   C     0.80646   0.30861   0.22098   0.00000  Uiso   1.00
N223   N     0.83333   0.28402   0.25000   0.00000  Uiso   1.00
N224   N     0.83333   0.04931   0.25000   0.00000  Uiso   1.00
C225   C     0.91058   0.17867   0.38873   0.00000  Uiso   1.00
H226   H     0.93491   0.16305   0.41201   0.00000  Uiso   1.00
H227   H     0.90964   0.15662   0.35865   0.00000  Uiso   1.00
H228   H     0.91962   0.21365   0.37888   0.00000  Uiso   1.00
C229   C     0.75609   0.15467   0.11127   0.00000  Uiso   1.00
H230   H     0.73176   0.17028   0.08798   0.00000  Uiso   1.00
H231   H     0.74705   0.11969   0.12112   0.00000  Uiso   1.00
H232   H     0.75703   0.17673   0.14134   0.00000  Uiso   1.00
C233   C     0.75804   0.14033   0.37500   0.00000  Uiso   1.00
H234   H     0.75814   0.15143   0.33999   0.00000  Uiso   1.00
H235   H     0.75297   0.10257   0.37527   0.00000  Uiso   1.00
H236   H     0.73134   0.15813   0.38818   0.00000  Uiso   1.00
C237   C     0.90863   0.19301   0.12500   0.00000  Uiso   1.00
H238   H     0.90853   0.18189   0.16001   0.00000  Uiso   1.00
H239   H     0.93533   0.17520   0.11182   0.00000  Uiso   1.00
H240   H     0.91370   0.23076   0.12473   0.00000  Uiso   1.00
C241   C     0.73740   0.09114   0.03510   0.00000  Uiso   1.00
H242   H     0.72595   0.06557   0.00958   0.00000  Uiso   1.00
H243   H     0.75286   0.07087   0.06288   0.00000  Uiso   1.00
H244   H     0.70991   0.10949   0.04560   0.00000  Uiso   1.00
C245   C     0.92927   0.24219   0.46491   0.00000  Uiso   1.00
H246   H     0.94074   0.26775   0.49043   0.00000  Uiso   1.00
H247   H     0.95676   0.22384   0.45439   0.00000  Uiso   1.00
H248   H     0.91381   0.26247   0.43713   0.00000  Uiso   1.00
C249   C     0.77575   0.04845   0.18787   0.00000  Uiso   1.00
H250   H     0.77590   0.08557   0.18841   0.00000  Uiso   1.00
H251   H     0.78190   0.03895   0.15340   0.00000  Uiso   1.00
H252   H     0.74372   0.03870   0.19411   0.00000  Uiso   1.00
C253   C     0.89091   0.28488   0.31213   0.00000  Uiso   1.00
H254   H     0.89077   0.24776   0.31159   0.00000  Uiso   1.00
H255   H     0.92295   0.29464   0.30588   0.00000  Uiso   1.00
H256   H     0.88477   0.29439   0.34660   0.00000  Uiso   1.00
C257   C     0.89088   0.04857   0.31227   0.00000  Uiso   1.00
H258   H     0.89095   0.08574   0.31195   0.00000  Uiso   1.00
H259   H     0.88463   0.03902   0.34669   0.00000  Uiso   1.00
H260   H     0.92291   0.03866   0.30614   0.00000  Uiso   1.00
C261   C     0.77579   0.28477   0.18772   0.00000  Uiso   1.00
H262   H     0.77571   0.24759   0.18805   0.00000  Uiso   1.00
H263   H     0.74376   0.29467   0.19386   0.00000  Uiso   1.00
H264   H     0.78204   0.29431   0.15331   0.00000  Uiso   1.00
O265   O     0.10655   0.53958   0.24999   0.00000  Uiso   1.00
O266   O     0.22679   0.46042   0.25000   0.00000  Uiso   1.00
O267   O     0.22679   0.53958   0.25000   0.00000  Uiso   1.00
O268   O     0.10655   0.46042   0.24999   0.00000  Uiso   1.00
C269   C     0.08749   0.50001   0.24944   0.00000  Uiso   1.00
C270   C     0.24584   0.49999   0.25056   0.00000  Uiso   1.00
O271   O     0.16666   0.53960   0.18513   0.00000  Uiso   1.00
O272   O     0.16668   0.46040   0.31487   0.00000  Uiso   1.00
O273   O     0.16668   0.53960   0.31487   0.00000  Uiso   1.00
O274   O     0.16666   0.46040   0.18513   0.00000  Uiso   1.00
C275   C     0.16662   0.50001   0.16478   0.00000  Uiso   1.00
C276   C     0.16671   0.49999   0.33522   0.00000  Uiso   1.00
Cu277  Cu    0.16667   0.54689   0.25000   0.00000  Uiso   1.00
Cu278  Cu    0.16667   0.45311   0.25000   0.00000  Uiso   1.00
C279   C     0.20285   0.51270   0.40960   0.00000  Uiso   1.00
C280   C     0.13049   0.48730   0.09040   0.00000  Uiso   1.00
C281   C     0.16661   0.49986   0.38350   0.00000  Uiso   1.00
C282   C     0.16672   0.50014   0.11650   0.00000  Uiso   1.00
C283   C     0.13092   0.48562   0.40329   0.00000  Uiso   1.00
C284   C     0.20241   0.51437   0.09671   0.00000  Uiso   1.00
C285   C     0.13251   0.48224   0.45003   0.00000  Uiso   1.00
C286   C     0.20082   0.51776   0.04997   0.00000  Uiso   1.00
C287   C     0.16679   0.50022   0.47650   0.00000  Uiso   1.00
C288   C     0.16654   0.49978   0.02350   0.00000  Uiso   1.00
C289   C     0.20116   0.51875   0.45609   0.00000  Uiso   1.00
C290   C     0.13218   0.48125   0.04391   0.00000  Uiso   1.00
C291   C     0.10073   0.46035   0.47073   0.00000  Uiso   1.00
C292   C     0.23261   0.53965   0.02927   0.00000  Uiso   1.00
C293   C     0.10095   0.45772   0.01687   0.00000  Uiso   1.00
C294   C     0.23238   0.54228   0.48313   0.00000  Uiso   1.00
H295   H     0.07589   0.44324   0.45103   0.00000  Uiso   1.00
H296   H     0.25744   0.55676   0.04897   0.00000  Uiso   1.00
C297   C     0.02138   0.45824   0.25065   0.00000  Uiso   1.00
C298   C     0.31195   0.54176   0.24935   0.00000  Uiso   1.00
C299   C     0.31213   0.45823   0.25113   0.00000  Uiso   1.00
C300   C     0.02120   0.54177   0.24887   0.00000  Uiso   1.00
H301   H     0.03744   0.42556   0.25125   0.00000  Uiso   1.00
H302   H     0.29590   0.57444   0.24874   0.00000  Uiso   1.00
H303   H     0.29623   0.42555   0.25196   0.00000  Uiso   1.00
H304   H     0.03711   0.57445   0.24804   0.00000  Uiso   1.00
C305   C     0.29055   0.49999   0.25047   0.00000  Uiso   1.00
C306   C     0.04279   0.50000   0.24953   0.00000  Uiso   1.00
C307   C     0.13979   0.35799   0.22100   0.00000  Uiso   1.00
C308   C     0.19355   0.64201   0.27900   0.00000  Uiso   1.00
C309   C     0.19354   0.35806   0.27902   0.00000  Uiso   1.00
C310   C     0.13979   0.64194   0.22098   0.00000  Uiso   1.00
N311   N     0.16667   0.61736   0.25000   0.00000  Uiso   1.00
N312   N     0.16667   0.38264   0.25000   0.00000  Uiso   1.00
C313   C     0.24391   0.51200   0.38873   0.00000  Uiso   1.00
H314   H     0.26824   0.49638   0.41201   0.00000  Uiso   1.00
H315   H     0.24297   0.48995   0.35865   0.00000  Uiso   1.00
H316   H     0.25296   0.54698   0.37888   0.00000  Uiso   1.00
C317   C     0.08942   0.48800   0.11127   0.00000  Uiso   1.00
H318   H     0.06509   0.50361   0.08798   0.00000  Uiso   1.00
H319   H     0.08038   0.45303   0.12112   0.00000  Uiso   1.00
H320   H     0.09036   0.51006   0.14134   0.00000  Uiso   1.00
C321   C     0.09137   0.47366   0.37500   0.00000  Uiso   1.00
H322   H     0.09147   0.48477   0.33999   0.00000  Uiso   1.00
H323   H     0.08630   0.43591   0.37527   0.00000  Uiso   1.00
H324   H     0.06467   0.49146   0.38818   0.00000  Uiso   1.00
C325   C     0.24196   0.52634   0.12500   0.00000  Uiso   1.00
H326   H     0.24187   0.51523   0.16001   0.00000  Uiso   1.00
H327   H     0.26866   0.50854   0.11182   0.00000  Uiso   1.00
H328   H     0.24703   0.56409   0.12473   0.00000  Uiso   1.00
C329   C     0.07073   0.42447   0.03510   0.00000  Uiso   1.00
H330   H     0.05928   0.39890   0.00958   0.00000  Uiso   1.00
H331   H     0.08619   0.40420   0.06288   0.00000  Uiso   1.00
H332   H     0.04324   0.44282   0.04560   0.00000  Uiso   1.00
C333   C     0.26260   0.57553   0.46491   0.00000  Uiso   1.00
H334   H     0.27407   0.60109   0.49043   0.00000  Uiso   1.00
H335   H     0.29009   0.55717   0.45439   0.00000  Uiso   1.00
H336   H     0.24714   0.59581   0.43713   0.00000  Uiso   1.00
C337   C     0.10909   0.38179   0.18787   0.00000  Uiso   1.00
H338   H     0.10923   0.41890   0.18841   0.00000  Uiso   1.00
H339   H     0.11523   0.37228   0.15340   0.00000  Uiso   1.00
H340   H     0.07705   0.37203   0.19411   0.00000  Uiso   1.00
C341   C     0.22425   0.61821   0.31213   0.00000  Uiso   1.00
H342   H     0.22410   0.58110   0.31159   0.00000  Uiso   1.00
H343   H     0.25628   0.62797   0.30588   0.00000  Uiso   1.00
H344   H     0.21811   0.62772   0.34660   0.00000  Uiso   1.00
C345   C     0.22421   0.38190   0.31227   0.00000  Uiso   1.00
H346   H     0.22429   0.41907   0.31195   0.00000  Uiso   1.00
H347   H     0.21796   0.37235   0.34669   0.00000  Uiso   1.00
H348   H     0.25624   0.37200   0.30614   0.00000  Uiso   1.00
C349   C     0.10912   0.61810   0.18772   0.00000  Uiso   1.00
H350   H     0.10905   0.58093   0.18805   0.00000  Uiso   1.00
H351   H     0.07709   0.62800   0.19386   0.00000  Uiso   1.00
H352   H     0.11537   0.62764   0.15331   0.00000  Uiso   1.00
O353   O     0.43988   0.53958   0.24999   0.00000  Uiso   1.00
O354   O     0.56012   0.46042   0.25000   0.00000  Uiso   1.00
O355   O     0.56012   0.53958   0.25000   0.00000  Uiso   1.00
O356   O     0.43988   0.46042   0.24999   0.00000  Uiso   1.00
C357   C     0.42082   0.50001   0.24944   0.00000  Uiso   1.00
C358   C     0.57918   0.49999   0.25056   0.00000  Uiso   1.00
O359   O     0.49999   0.53960   0.18513   0.00000  Uiso   1.00
O360   O     0.50001   0.46040   0.31487   0.00000  Uiso   1.00
O361   O     0.50001   0.53960   0.31487   0.00000  Uiso   1.00
O362   O     0.49999   0.46040   0.18513   0.00000  Uiso   1.00
C363   C     0.49995   0.50001   0.16478   0.00000  Uiso   1.00
C364   C     0.50005   0.49999   0.33522   0.00000  Uiso   1.00
Cu365  Cu    0.50000   0.54689   0.25000   0.00000  Uiso   1.00
Cu366  Cu    0.50000   0.45311   0.25000   0.00000  Uiso   1.00
C367   C     0.53618   0.51270   0.40960   0.00000  Uiso   1.00
C368   C     0.46382   0.48730   0.09040   0.00000  Uiso   1.00
C369   C     0.49995   0.49986   0.38350   0.00000  Uiso   1.00
C370   C     0.50005   0.50014   0.11650   0.00000  Uiso   1.00
C371   C     0.46425   0.48562   0.40329   0.00000  Uiso   1.00
C372   C     0.53575   0.51437   0.09671   0.00000  Uiso   1.00
C373   C     0.46584   0.48224   0.45003   0.00000  Uiso   1.00
C374   C     0.53416   0.51776   0.04997   0.00000  Uiso   1.00
C375   C     0.50012   0.50022   0.47650   0.00000  Uiso   1.00
C376   C     0.49988   0.49978   0.02350   0.00000  Uiso   1.00
C377   C     0.53449   0.51875   0.45609   0.00000  Uiso   1.00
C378   C     0.46551   0.48125   0.04391   0.00000  Uiso   1.00
C379   C     0.43406   0.46035   0.47073   0.00000  Uiso   1.00
C380   C     0.56594   0.53965   0.02927   0.00000  Uiso   1.00
C381   C     0.43429   0.45772   0.01687   0.00000  Uiso   1.00
C382   C     0.56571   0.54228   0.48313   0.00000  Uiso   1.00
H383   H     0.40923   0.44324   0.45103   0.00000  Uiso   1.00
H384   H     0.59078   0.55676   0.04897   0.00000  Uiso   1.00
C385   C     0.35472   0.45824   0.25065   0.00000  Uiso   1.00
C386   C     0.64528   0.54176   0.24935   0.00000  Uiso   1.00
C387   C     0.64546   0.45823   0.25113   0.00000  Uiso   1.00
C388   C     0.35454   0.54177   0.24887   0.00000  Uiso   1.00
H389   H     0.37077   0.42556   0.25125   0.00000  Uiso   1.00
H390   H     0.62923   0.57444   0.24874   0.00000  Uiso   1.00
H391   H     0.62956   0.42555   0.25196   0.00000  Uiso   1.00
H392   H     0.37044   0.57445   0.24804   0.00000  Uiso   1.00
C393   C     0.62388   0.49999   0.25047   0.00000  Uiso   1.00
C394   C     0.37612   0.50000   0.24953   0.00000  Uiso   1.00
C395   C     0.47312   0.35799   0.22100   0.00000  Uiso   1.00
C396   C     0.52688   0.64201   0.27900   0.00000  Uiso   1.00
C397   C     0.52688   0.35806   0.27902   0.00000  Uiso   1.00
C398   C     0.47312   0.64194   0.22098   0.00000  Uiso   1.00
N399   N     0.50000   0.61736   0.25000   0.00000  Uiso   1.00
N400   N     0.50000   0.38264   0.25000   0.00000  Uiso   1.00
C401   C     0.57724   0.51200   0.38873   0.00000  Uiso   1.00
H402   H     0.60158   0.49638   0.41201   0.00000  Uiso   1.00
H403   H     0.57630   0.48995   0.35865   0.00000  Uiso   1.00
H404   H     0.58629   0.54698   0.37888   0.00000  Uiso   1.00
C405   C     0.42276   0.48800   0.11127   0.00000  Uiso   1.00
H406   H     0.39842   0.50361   0.08798   0.00000  Uiso   1.00
H407   H     0.41371   0.45303   0.12112   0.00000  Uiso   1.00
H408   H     0.42370   0.51006   0.14134   0.00000  Uiso   1.00
C409   C     0.42470   0.47366   0.37500   0.00000  Uiso   1.00
H410   H     0.42480   0.48477   0.33999   0.00000  Uiso   1.00
H411   H     0.41963   0.43591   0.37527   0.00000  Uiso   1.00
H412   H     0.39800   0.49146   0.38818   0.00000  Uiso   1.00
C413   C     0.57530   0.52634   0.12500   0.00000  Uiso   1.00
H414   H     0.57520   0.51523   0.16001   0.00000  Uiso   1.00
H415   H     0.60200   0.50854   0.11182   0.00000  Uiso   1.00
H416   H     0.58037   0.56409   0.12473   0.00000  Uiso   1.00
C417   C     0.40407   0.42447   0.03510   0.00000  Uiso   1.00
H418   H     0.39261   0.39890   0.00958   0.00000  Uiso   1.00
H419   H     0.41952   0.40420   0.06288   0.00000  Uiso   1.00
H420   H     0.37657   0.44282   0.04560   0.00000  Uiso   1.00
C421   C     0.59594   0.57553   0.46491   0.00000  Uiso   1.00
H422   H     0.60740   0.60109   0.49043   0.00000  Uiso   1.00
H423   H     0.62342   0.55717   0.45439   0.00000  Uiso   1.00
H424   H     0.58048   0.59581   0.43713   0.00000  Uiso   1.00
C425   C     0.44242   0.38179   0.18787   0.00000  Uiso   1.00
H426   H     0.44256   0.41890   0.18841   0.00000  Uiso   1.00
H427   H     0.44856   0.37228   0.15340   0.00000  Uiso   1.00
H428   H     0.41038   0.37203   0.19411   0.00000  Uiso   1.00
C429   C     0.55758   0.61821   0.31213   0.00000  Uiso   1.00
H430   H     0.55744   0.58110   0.31159   0.00000  Uiso   1.00
H431   H     0.58962   0.62797   0.30588   0.00000  Uiso   1.00
H432   H     0.55144   0.62772   0.34660   0.00000  Uiso   1.00
C433   C     0.55754   0.38190   0.31227   0.00000  Uiso   1.00
H434   H     0.55762   0.41907   0.31195   0.00000  Uiso   1.00
H435   H     0.55130   0.37235   0.34669   0.00000  Uiso   1.00
H436   H     0.58958   0.37200   0.30614   0.00000  Uiso   1.00
C437   C     0.44246   0.61810   0.18772   0.00000  Uiso   1.00
H438   H     0.44238   0.58093   0.18805   0.00000  Uiso   1.00
H439   H     0.41042   0.62800   0.19386   0.00000  Uiso   1.00
H440   H     0.44870   0.62764   0.15331   0.00000  Uiso   1.00
O441   O     0.77321   0.53958   0.24999   0.00000  Uiso   1.00
O442   O     0.89345   0.46042   0.25000   0.00000  Uiso   1.00
O443   O     0.89345   0.53958   0.25000   0.00000  Uiso   1.00
O444   O     0.77321   0.46042   0.24999   0.00000  Uiso   1.00
C445   C     0.75416   0.50001   0.24944   0.00000  Uiso   1.00
C446   C     0.91251   0.49999   0.25056   0.00000  Uiso   1.00
O447   O     0.83332   0.53960   0.18513   0.00000  Uiso   1.00
O448   O     0.83334   0.46040   0.31487   0.00000  Uiso   1.00
O449   O     0.83334   0.53960   0.31487   0.00000  Uiso   1.00
O450   O     0.83332   0.46040   0.18513   0.00000  Uiso   1.00
C451   C     0.83329   0.50001   0.16478   0.00000  Uiso   1.00
C452   C     0.83338   0.49999   0.33522   0.00000  Uiso   1.00
Cu453  Cu    0.83333   0.54689   0.25000   0.00000  Uiso   1.00
Cu454  Cu    0.83333   0.45311   0.25000   0.00000  Uiso   1.00
C455   C     0.86951   0.51270   0.40960   0.00000  Uiso   1.00
C456   C     0.79715   0.48730   0.09040   0.00000  Uiso   1.00
C457   C     0.83328   0.49986   0.38350   0.00000  Uiso   1.00
C458   C     0.83339   0.50014   0.11650   0.00000  Uiso   1.00
C459   C     0.79759   0.48562   0.40329   0.00000  Uiso   1.00
C460   C     0.86908   0.51437   0.09671   0.00000  Uiso   1.00
C461   C     0.79918   0.48224   0.45003   0.00000  Uiso   1.00
C462   C     0.86749   0.51776   0.04997   0.00000  Uiso   1.00
C463   C     0.83346   0.50022   0.47650   0.00000  Uiso   1.00
C464   C     0.83321   0.49978   0.02350   0.00000  Uiso   1.00
C465   C     0.86782   0.51875   0.45609   0.00000  Uiso   1.00
C466   C     0.79885   0.48125   0.04391   0.00000  Uiso   1.00
C467   C     0.76739   0.46035   0.47073   0.00000  Uiso   1.00
C468   C     0.89928   0.53965   0.02927   0.00000  Uiso   1.00
C469   C     0.76762   0.45772   0.01687   0.00000  Uiso   1.00
C470   C     0.89905   0.54228   0.48313   0.00000  Uiso   1.00
H471   H     0.74256   0.44324   0.45103   0.00000  Uiso   1.00
H472   H     0.92411   0.55676   0.04897   0.00000  Uiso   1.00
C473   C     0.68805   0.45824   0.25065   0.00000  Uiso   1.00
C474   C     0.97862   0.54176   0.24935   0.00000  Uiso   1.00
C475   C     0.97880   0.45823   0.25113   0.00000  Uiso   1.00
C476   C     0.68787   0.54177   0.24887   0.00000  Uiso   1.00
H477   H     0.70410   0.42556   0.25125   0.00000  Uiso   1.00
H478   H     0.96256   0.57444   0.24874   0.00000  Uiso   1.00
H479   H     0.96289   0.42555   0.25196   0.00000  Uiso   1.00
H480   H     0.70377   0.57445   0.24804   0.00000  Uiso   1.00
C481   C     0.95721   0.49999   0.25047   0.00000  Uiso   1.00
C482   C     0.70945   0.50000   0.24953   0.00000  Uiso   1.00
C483   C     0.80645   0.35799   0.22100   0.00000  Uiso   1.00
C484   C     0.86021   0.64201   0.27900   0.00000  Uiso   1.00
C485   C     0.86021   0.35806   0.27902   0.00000  Uiso   1.00
C486   C     0.80646   0.64194   0.22098   0.00000  Uiso   1.00
N487   N     0.83333   0.61736   0.25000   0.00000  Uiso   1.00
N488   N     0.83333   0.38264   0.25000   0.00000  Uiso   1.00
C489   C     0.91058   0.51200   0.38873   0.00000  Uiso   1.00
H490   H     0.93491   0.49638   0.41201   0.00000  Uiso   1.00
H491   H     0.90964   0.48995   0.35865   0.00000  Uiso   1.00
H492   H     0.91962   0.54698   0.37888   0.00000  Uiso   1.00
C493   C     0.75609   0.48800   0.11127   0.00000  Uiso   1.00
H494   H     0.73176   0.50361   0.08798   0.00000  Uiso   1.00
H495   H     0.74705   0.45303   0.12112   0.00000  Uiso   1.00
H496   H     0.75703   0.51006   0.14134   0.00000  Uiso   1.00
C497   C     0.75804   0.47366   0.37500   0.00000  Uiso   1.00
H498   H     0.75814   0.48477   0.33999   0.00000  Uiso   1.00
H499   H     0.75297   0.43591   0.37527   0.00000  Uiso   1.00
H500   H     0.73134   0.49146   0.38818   0.00000  Uiso   1.00
C501   C     0.90863   0.52634   0.12500   0.00000  Uiso   1.00
H502   H     0.90853   0.51523   0.16001   0.00000  Uiso   1.00
H503   H     0.93533   0.50854   0.11182   0.00000  Uiso   1.00
H504   H     0.91370   0.56409   0.12473   0.00000  Uiso   1.00
C505   C     0.73740   0.42447   0.03510   0.00000  Uiso   1.00
H506   H     0.72595   0.39890   0.00958   0.00000  Uiso   1.00
H507   H     0.75286   0.40420   0.06288   0.00000  Uiso   1.00
H508   H     0.70991   0.44282   0.04560   0.00000  Uiso   1.00
C509   C     0.92927   0.57553   0.46491   0.00000  Uiso   1.00
H510   H     0.94074   0.60109   0.49043   0.00000  Uiso   1.00
H511   H     0.95676   0.55717   0.45439   0.00000  Uiso   1.00
H512   H     0.91381   0.59581   0.43713   0.00000  Uiso   1.00
C513   C     0.77575   0.38179   0.18787   0.00000  Uiso   1.00
H514   H     0.77590   0.41890   0.18841   0.00000  Uiso   1.00
H515   H     0.78190   0.37228   0.15340   0.00000  Uiso   1.00
H516   H     0.74372   0.37203   0.19411   0.00000  Uiso   1.00
C517   C     0.89091   0.61821   0.31213   0.00000  Uiso   1.00
H518   H     0.89077   0.58110   0.31159   0.00000  Uiso   1.00
H519   H     0.92295   0.62797   0.30588   0.00000  Uiso   1.00
H520   H     0.88477   0.62772   0.34660   0.00000  Uiso   1.00
C521   C     0.89088   0.38190   0.31227   0.00000  Uiso   1.00
H522   H     0.89095   0.41907   0.31195   0.00000  Uiso   1.00
H523   H     0.88463   0.37235   0.34669   0.00000  Uiso   1.00
H524   H     0.92291   0.37200   0.30614   0.00000  Uiso   1.00
C525   C     0.77579   0.61810   0.18772   0.00000  Uiso   1.00
H526   H     0.77571   0.58093   0.18805   0.00000  Uiso   1.00
H527   H     0.74376   0.62800   0.19386   0.00000  Uiso   1.00
H528   H     0.78204   0.62764   0.15331   0.00000  Uiso   1.00
O529   O     0.10655   0.87291   0.24999   0.00000  Uiso   1.00
O530   O     0.22679   0.79375   0.25000   0.00000  Uiso   1.00
O531   O     0.22679   0.87291   0.25000   0.00000  Uiso   1.00
O532   O     0.10655   0.79375   0.24999   0.00000  Uiso   1.00
C533   C     0.08749   0.83334   0.24944   0.00000  Uiso   1.00
C534   C     0.24584   0.83333   0.25056   0.00000  Uiso   1.00
O535   O     0.16666   0.87293   0.18513   0.00000  Uiso   1.00
O536   O     0.16668   0.79373   0.31487   0.00000  Uiso   1.00
O537   O     0.16668   0.87293   0.31487   0.00000  Uiso   1.00
O538   O     0.16666   0.79373   0.18513   0.00000  Uiso   1.00
C539   C     0.16662   0.83334   0.16478   0.00000  Uiso   1.00
C540   C     0.16671   0.83332   0.33522   0.00000  Uiso   1.00
Cu541  Cu    0.16667   0.88022   0.25000   0.00000  Uiso   1.00
Cu542  Cu    0.16667   0.78645   0.25000   0.00000  Uiso   1.00
C543   C     0.20285   0.84603   0.40960   0.00000  Uiso   1.00
C544   C     0.13049   0.82064   0.09040   0.00000  Uiso   1.00
C545   C     0.16661   0.83320   0.38350   0.00000  Uiso   1.00
C546   C     0.16672   0.83347   0.11650   0.00000  Uiso   1.00
C547   C     0.13092   0.81896   0.40329   0.00000  Uiso   1.00
C548   C     0.20241   0.84771   0.09671   0.00000  Uiso   1.00
C549   C     0.13251   0.81557   0.45003   0.00000  Uiso   1.00
C550   C     0.20082   0.85109   0.04997   0.00000  Uiso   1.00
C551   C     0.16679   0.83356   0.47650   0.00000  Uiso   1.00
C552   C     0.16654   0.83311   0.02350   0.00000  Uiso   1.00
C553   C     0.20116   0.85208   0.45609   0.00000  Uiso   1.00
C554   C     0.13218   0.81459   0.04391   0.00000  Uiso   1.00
C555   C     0.10073   0.79369   0.47073   0.00000  Uiso   1.00
C556   C     0.23261   0.87298   0.02927   0.00000  Uiso   1.00
C557   C     0.10095   0.79105   0.01687   0.00000  Uiso   1.00
C558   C     0.23238   0.87561   0.48313   0.00000  Uiso   1.00
H559   H     0.07589   0.77657   0.45103   0.00000  Uiso   1.00
H560   H     0.25744   0.89009   0.04897   0.00000  Uiso   1.00
C561   C     0.02138   0.79157   0.25065   0.00000  Uiso   1.00
C562   C     0.31195   0.87510   0.24935   0.00000  Uiso   1.00
C563   C     0.31213   0.79157   0.25113   0.00000  Uiso   1.00
C564   C     0.02120   0.87510   0.24887   0.00000  Uiso   1.00
H565   H     0.03744   0.75889   0.25125   0.00000  Uiso   1.00
H566   H     0.29590   0.90778   0.24874   0.00000  Uiso   1.00
H567   H     0.29623   0.75888   0.25196   0.00000  Uiso   1.00
H568   H     0.03711   0.90778   0.24804   0.00000  Uiso   1.00
C569   C     0.29055   0.83333   0.25047   0.00000  Uiso   1.00
C570   C     0.04279   0.83334   0.24953   0.00000  Uiso   1.00
C571   C     0.13979   0.69132   0.22100   0.00000  Uiso   1.00
C572   C     0.19355   0.97535   0.27900   0.00000  Uiso   1.00
C573   C     0.19354   0.69139   0.27902   0.00000  Uiso   1.00
C574   C     0.13979   0.97527   0.22098   0.00000  Uiso   1.00
N575   N     0.16667   0.95069   0.25000   0.00000  Uiso   1.00
N576   N     0.16667   0.71598   0.25000   0.00000  Uiso   1.00
C577   C     0.24391   0.84533   0.38873   0.00000  Uiso   1.00
H578   H     0.26824   0.82972   0.41201   0.00000  Uiso   1.00
H579   H     0.24297   0.82328   0.35865   0.00000  Uiso   1.00
H580   H     0.25296   0.88031   0.37888   0.00000  Uiso   1.00
C581   C     0.08942   0.82134   0.11127   0.00000  Uiso   1.00
H582   H     0.06509   0.83695   0.08798   0.00000  Uiso   1.00
H583   H     0.08038   0.78636   0.12112   0.00000  Uiso   1.00
H584   H     0.09036   0.84340   0.14134   0.00000  Uiso   1.00
C585   C     0.09137   0.80699   0.37500   0.00000  Uiso   1.00
H586   H     0.09147   0.81810   0.33999   0.00000  Uiso   1.00
H587   H     0.08630   0.76924   0.37527   0.00000  Uiso   1.00
H588   H     0.06467   0.82480   0.38818   0.00000  Uiso   1.00
C589   C     0.24196   0.85967   0.12500   0.00000  Uiso   1.00
H590   H     0.24187   0.84856   0.16001   0.00000  Uiso   1.00
H591   H     0.26866   0.84187   0.11182   0.00000  Uiso   1.00
H592   H     0.24703   0.89743   0.12473   0.00000  Uiso   1.00
C593   C     0.07073   0.75781   0.03510   0.00000  Uiso   1.00
H594   H     0.05928   0.73224   0.00958   0.00000  Uiso   1.00
H595   H     0.08619   0.73754   0.06288   0.00000  Uiso   1.00
H596   H     0.04324   0.77616   0.04560   0.00000  Uiso   1.00
C597   C     0.26260   0.90886   0.46491   0.00000  Uiso   1.00
H598   H     0.27407   0.93442   0.49043   0.00000  Uiso   1.00
H599   H     0.29009   0.89050   0.45439   0.00000  Uiso   1.00
H600   H     0.24714   0.92914   0.43713   0.00000  Uiso   1.00
C601   C     0.10909   0.71512   0.18787   0.00000  Uiso   1.00
H602   H     0.10923   0.75224   0.18841   0.00000  Uiso   1.00
H603   H     0.11523   0.70561   0.15340   0.00000  Uiso   1.00
H604   H     0.07705   0.70536   0.19411   0.00000  Uiso   1.00
C605   C     0.22425   0.95155   0.31213   0.00000  Uiso   1.00
H606   H     0.22410   0.91443   0.31159   0.00000  Uiso   1.00
H607   H     0.25628   0.96130   0.30588   0.00000  Uiso   1.00
H608   H     0.21811   0.96105   0.34660   0.00000  Uiso   1.00
C609   C     0.22421   0.71523   0.31227   0.00000  Uiso   1.00
H610   H     0.22429   0.75241   0.31195   0.00000  Uiso   1.00
H611   H     0.21796   0.70569   0.34669   0.00000  Uiso   1.00
H612   H     0.25624   0.70533   0.30614   0.00000  Uiso   1.00
C613   C     0.10912   0.95143   0.18772   0.00000  Uiso   1.00
H614   H     0.10905   0.91426   0.18805   0.00000  Uiso   1.00
H615   H     0.07709   0.96134   0.19386   0.00000  Uiso   1.00
H616   H     0.11537   0.96098   0.15331   0.00000  Uiso   1.00
O617   O     0.43988   0.87291   0.24999   0.00000  Uiso   1.00
O618   O     0.56012   0.79375   0.25000   0.00000  Uiso   1.00
O619   O     0.56012   0.87291   0.25000   0.00000  Uiso   1.00
O620   O     0.43988   0.79375   0.24999   0.00000  Uiso   1.00
C621   C     0.42082   0.83334   0.24944   0.00000  Uiso   1.00
C622   C     0.57918   0.83333   0.25056   0.00000  Uiso   1.00
O623   O     0.49999   0.87293   0.18513   0.00000  Uiso   1.00
O624   O     0.50001   0.79373   0.31487   0.00000  Uiso   1.00
O625   O     0.50001   0.87293   0.31487   0.00000  Uiso   1.00
O626   O     0.49999   0.79373   0.18513   0.00000  Uiso   1.00
C627   C     0.49995   0.83334   0.16478   0.00000  Uiso   1.00
C628   C     0.50005   0.83332   0.33522   0.00000  Uiso   1.00
Cu629  Cu    0.50000   0.88022   0.25000   0.00000  Uiso   1.00
Cu630  Cu    0.50000   0.78645   0.25000   0.00000  Uiso   1.00
C631   C     0.53618   0.84603   0.40960   0.00000  Uiso   1.00
C632   C     0.46382   0.82064   0.09040   0.00000  Uiso   1.00
C633   C     0.49995   0.83320   0.38350   0.00000  Uiso   1.00
C634   C     0.50005   0.83347   0.11650   0.00000  Uiso   1.00
C635   C     0.46425   0.81896   0.40329   0.00000  Uiso   1.00
C636   C     0.53575   0.84771   0.09671   0.00000  Uiso   1.00
C637   C     0.46584   0.81557   0.45003   0.00000  Uiso   1.00
C638   C     0.53416   0.85109   0.04997   0.00000  Uiso   1.00
C639   C     0.50012   0.83356   0.47650   0.00000  Uiso   1.00
C640   C     0.49988   0.83311   0.02350   0.00000  Uiso   1.00
C641   C     0.53449   0.85208   0.45609   0.00000  Uiso   1.00
C642   C     0.46551   0.81459   0.04391   0.00000  Uiso   1.00
C643   C     0.43406   0.79369   0.47073   0.00000  Uiso   1.00
C644   C     0.56594   0.87298   0.02927   0.00000  Uiso   1.00
C645   C     0.43429   0.79105   0.01687   0.00000  Uiso   1.00
C646   C     0.56571   0.87561   0.48313   0.00000  Uiso   1.00
H647   H     0.40923   0.77657   0.45103   0.00000  Uiso   1.00
H648   H     0.59078   0.89009   0.04897   0.00000  Uiso   1.00
C649   C     0.35472   0.79157   0.25065   0.00000  Uiso   1.00
C650   C     0.64528   0.87510   0.24935   0.00000  Uiso   1.00
C651   C     0.64546   0.79157   0.25113   0.00000  Uiso   1.00
C652   C     0.35454   0.87510   0.24887   0.00000  Uiso   1.00
H653   H     0.37077   0.75889   0.25125   0.00000  Uiso   1.00
H654   H     0.62923   0.90778   0.24874   0.00000  Uiso   1.00
H655   H     0.62956   0.75888   0.25196   0.00000  Uiso   1.00
H656   H     0.37044   0.90778   0.24804   0.00000  Uiso   1.00
C657   C     0.62388   0.83333   0.25047   0.00000  Uiso   1.00
C658   C     0.37612   0.83334   0.24953   0.00000  Uiso   1.00
C659   C     0.47312   0.69132   0.22100   0.00000  Uiso   1.00
C660   C     0.52688   0.97535   0.27900   0.00000  Uiso   1.00
C661   C     0.52688   0.69139   0.27902   0.00000  Uiso   1.00
C662   C     0.47312   0.97527   0.22098   0.00000  Uiso   1.00
N663   N     0.50000   0.95069   0.25000   0.00000  Uiso   1.00
N664   N     0.50000   0.71598   0.25000   0.00000  Uiso   1.00
C665   C     0.57724   0.84533   0.38873   0.00000  Uiso   1.00
H666   H     0.60158   0.82972   0.41201   0.00000  Uiso   1.00
H667   H     0.57630   0.82328   0.35865   0.00000  Uiso   1.00
H668   H     0.58629   0.88031   0.37888   0.00000  Uiso   1.00
C669   C     0.42276   0.82134   0.11127   0.00000  Uiso   1.00
H670   H     0.39842   0.83695   0.08798   0.00000  Uiso   1.00
H671   H     0.41371   0.78636   0.12112   0.00000  Uiso   1.00
H672   H     0.42370   0.84340   0.14134   0.00000  Uiso   1.00
C673   C     0.42470   0.80699   0.37500   0.00000  Uiso   1.00
H674   H     0.42480   0.81810   0.33999   0.00000  Uiso   1.00
H675   H     0.41963   0.76924   0.37527   0.00000  Uiso   1.00
H676   H     0.39800   0.82480   0.38818   0.00000  Uiso   1.00
C677   C     0.57530   0.85967   0.12500   0.00000  Uiso   1.00
H678   H     0.57520   0.84856   0.16001   0.00000  Uiso   1.00
H679   H     0.60200   0.84187   0.11182   0.00000  Uiso   1.00
H680   H     0.58037   0.89743   0.12473   0.00000  Uiso   1.00
C681   C     0.40407   0.75781   0.03510   0.00000  Uiso   1.00
H682   H     0.39261   0.73224   0.00958   0.00000  Uiso   1.00
H683   H     0.41952   0.73754   0.06288   0.00000  Uiso   1.00
H684   H     0.37657   0.77616   0.04560   0.00000  Uiso   1.00
C685   C     0.59594   0.90886   0.46491   0.00000  Uiso   1.00
H686   H     0.60740   0.93442   0.49043   0.00000  Uiso   1.00
H687   H     0.62342   0.89050   0.45439   0.00000  Uiso   1.00
H688   H     0.58048   0.92914   0.43713   0.00000  Uiso   1.00
C689   C     0.44242   0.71512   0.18787   0.00000  Uiso   1.00
H690   H     0.44256   0.75224   0.18841   0.00000  Uiso   1.00
H691   H     0.44856   0.70561   0.15340   0.00000  Uiso   1.00
H692   H     0.41038   0.70536   0.19411   0.00000  Uiso   1.00
C693   C     0.55758   0.95155   0.31213   0.00000  Uiso   1.00
H694   H     0.55744   0.91443   0.31159   0.00000  Uiso   1.00
H695   H     0.58962   0.96130   0.30588   0.00000  Uiso   1.00
H696   H     0.55144   0.96105   0.34660   0.00000  Uiso   1.00
C697   C     0.55754   0.71523   0.31227   0.00000  Uiso   1.00
H698   H     0.55762   0.75241   0.31195   0.00000  Uiso   1.00
H699   H     0.55130   0.70569   0.34669   0.00000  Uiso   1.00
H700   H     0.58958   0.70533   0.30614   0.00000  Uiso   1.00
C701   C     0.44246   0.95143   0.18772   0.00000  Uiso   1.00
H702   H     0.44238   0.91426   0.18805   0.00000  Uiso   1.00
H703   H     0.41042   0.96134   0.19386   0.00000  Uiso   1.00
H704   H     0.44870   0.96098   0.15331   0.00000  Uiso   1.00
O705   O     0.77321   0.87291   0.24999   0.00000  Uiso   1.00
O706   O     0.89345   0.79375   0.25000   0.00000  Uiso   1.00
O707   O     0.89345   0.87291   0.25000   0.00000  Uiso   1.00
O708   O     0.77321   0.79375   0.24999   0.00000  Uiso   1.00
C709   C     0.75416   0.83334   0.24944   0.00000  Uiso   1.00
C710   C     0.91251   0.83333   0.25056   0.00000  Uiso   1.00
O711   O     0.83332   0.87293   0.18513   0.00000  Uiso   1.00
O712   O     0.83334   0.79373   0.31487   0.00000  Uiso   1.00
O713   O     0.83334   0.87293   0.31487   0.00000  Uiso   1.00
O714   O     0.83332   0.79373   0.18513   0.00000  Uiso   1.00
C715   C     0.83329   0.83334   0.16478   0.00000  Uiso   1.00
C716   C     0.83338   0.83332   0.33522   0.00000  Uiso   1.00
Cu717  Cu    0.83333   0.88022   0.25000   0.00000  Uiso   1.00
Cu718  Cu    0.83333   0.78645   0.25000   0.00000  Uiso   1.00
C719   C     0.86951   0.84603   0.40960   0.00000  Uiso   1.00
C720   C     0.79715   0.82064   0.09040   0.00000  Uiso   1.00
C721   C     0.83328   0.83320   0.38350   0.00000  Uiso   1.00
C722   C     0.83339   0.83347   0.11650   0.00000  Uiso   1.00
C723   C     0.79759   0.81896   0.40329   0.00000  Uiso   1.00
C724   C     0.86908   0.84771   0.09671   0.00000  Uiso   1.00
C725   C     0.79918   0.81557   0.45003   0.00000  Uiso   1.00
C726   C     0.86749   0.85109   0.04997   0.00000  Uiso   1.00
C727   C     0.83346   0.83356   0.47650   0.00000  Uiso   1.00
C728   C     0.83321   0.83311   0.02350   0.00000  Uiso   1.00
C729   C     0.86782   0.85208   0.45609   0.00000  Uiso   1.00
C730   C     0.79885   0.81459   0.04391   0.00000  Uiso   1.00
C731   C     0.76739   0.79369   0.47073   0.00000  Uiso   1.00
C732   C     0.89928   0.87298   0.02927   0.00000  Uiso   1.00
C733   C     0.76762   0.79105   0.01687   0.00000  Uiso   1.00
C734   C     0.89905   0.87561   0.48313   0.00000  Uiso   1.00
H735   H     0.74256   0.77657   0.45103   0.00000  Uiso   1.00
H736   H     0.92411   0.89009   0.04897   0.00000  Uiso   1.00
C737   C     0.68805   0.79157   0.25065   0.00000  Uiso   1.00
C738   C     0.97862   0.87510   0.24935   0.00000  Uiso   1.00
C739   C     0.97880   0.79157   0.25113   0.00000  Uiso   1.00
C740   C     0.68787   0.87510   0.24887   0.00000  Uiso   1.00
H741   H     0.70410   0.75889   0.25125   0.00000  Uiso   1.00
H742   H     0.96256   0.90778   0.24874   0.00000  Uiso   1.00
H743   H     0.96289   0.75888   0.25196   0.00000  Uiso   1.00
H744   H     0.70377   0.90778   0.24804   0.00000  Uiso   1.00
C745   C     0.95721   0.83333   0.25047   0.00000  Uiso   1.00
C746   C     0.70945   0.83334   0.24953   0.00000  Uiso   1.00
C747   C     0.80645   0.69132   0.22100   0.00000  Uiso   1.00
C748   C     0.86021   0.97535   0.27900   0.00000  Uiso   1.00
C749   C     0.86021   0.69139   0.27902   0.00000  Uiso   1.00
C750   C     0.80646   0.97527   0.22098   0.00000  Uiso   1.00
N751   N     0.83333   0.95069   0.25000   0.00000  Uiso   1.00
N752   N     0.83333   0.71598   0.25000   0.00000  Uiso   1.00
C753   C     0.91058   0.84533   0.38873   0.00000  Uiso   1.00
H754   H     0.93491   0.82972   0.41201   0.00000  Uiso   1.00
H755   H     0.90964   0.82328   0.35865   0.00000  Uiso   1.00
H756   H     0.91962   0.88031   0.37888   0.00000  Uiso   1.00
C757   C     0.75609   0.82134   0.11127   0.00000  Uiso   1.00
H758   H     0.73176   0.83695   0.08798   0.00000  Uiso   1.00
H759   H     0.74705   0.78636   0.12112   0.00000  Uiso   1.00
H760   H     0.75703   0.84340   0.14134   0.00000  Uiso   1.00
C761   C     0.75804   0.80699   0.37500   0.00000  Uiso   1.00
H762   H     0.75814   0.81810   0.33999   0.00000  Uiso   1.00
H763   H     0.75297   0.76924   0.37527   0.00000  Uiso   1.00
H764   H     0.73134   0.82480   0.38818   0.00000  Uiso   1.00
C765   C     0.90863   0.85967   0.12500   0.00000  Uiso   1.00
H766   H     0.90853   0.84856   0.16001   0.00000  Uiso   1.00
H767   H     0.93533   0.84187   0.11182   0.00000  Uiso   1.00
H768   H     0.91370   0.89743   0.12473   0.00000  Uiso   1.00
C769   C     0.73740   0.75781   0.03510   0.00000  Uiso   1.00
H770   H     0.72595   0.73224   0.00958   0.00000  Uiso   1.00
H771   H     0.75286   0.73754   0.06288   0.00000  Uiso   1.00
H772   H     0.70991   0.77616   0.04560   0.00000  Uiso   1.00
C773   C     0.92927   0.90886   0.46491   0.00000  Uiso   1.00
H774   H     0.94074   0.93442   0.49043   0.00000  Uiso   1.00
H775   H     0.95676   0.89050   0.45439   0.00000  Uiso   1.00
H776   H     0.91381   0.92914   0.43713   0.00000  Uiso   1.00
C777   C     0.77575   0.71512   0.18787   0.00000  Uiso   1.00
H778   H     0.77590   0.75224   0.18841   0.00000  Uiso   1.00
H779   H     0.78190   0.70561   0.15340   0.00000  Uiso   1.00
H780   H     0.74372   0.70536   0.19411   0.00000  Uiso   1.00
C781   C     0.89091   0.95155   0.31213   0.00000  Uiso   1.00
H782   H     0.89077   0.91443   0.31159   0.00000  Uiso   1.00
H783   H     0.92295   0.96130   0.30588   0.00000  Uiso   1.00
H784   H     0.88477   0.96105   0.34660   0.00000  Uiso   1.00
C785   C     0.89088   0.71523   0.31227   0.00000  Uiso   1.00
H786   H     0.89095   0.75241   0.31195   0.00000  Uiso   1.00
H787   H     0.88463   0.70569   0.34669   0.00000  Uiso   1.00
H788   H     0.92291   0.70533   0.30614   0.00000  Uiso   1.00
C789   C     0.77579   0.95143   0.18772   0.00000  Uiso   1.00
H790   H     0.77571   0.91426   0.18805   0.00000  Uiso   1.00
H791   H     0.74376   0.96134   0.19386   0.00000  Uiso   1.00
H792   H     0.78204   0.96098   0.15331   0.00000  Uiso   1.00
O793   O     0.10655   0.20625   0.74999   0.00000  Uiso   1.00
O794   O     0.22679   0.12709   0.75000   0.00000  Uiso   1.00
O795   O     0.22679   0.20625   0.75000   0.00000  Uiso   1.00
O796   O     0.10655   0.12709   0.74999   0.00000  Uiso   1.00
C797   C     0.08749   0.16667   0.74944   0.00000  Uiso   1.00
C798   C     0.24584   0.16666   0.75056   0.00000  Uiso   1.00
O799   O     0.16666   0.20627   0.68513   0.00000  Uiso   1.00
O800   O     0.16668   0.12707   0.81487   0.00000  Uiso   1.00
O801   O     0.16668   0.20627   0.81487   0.00000  Uiso   1.00
O802   O     0.16666   0.12707   0.68513   0.00000  Uiso   1.00
C803   C     0.16662   0.16668   0.66478   0.00000  Uiso   1.00
C804   C     0.16671   0.16666   0.83522   0.00000  Uiso   1.00
Cu805  Cu    0.16667   0.21355   0.75000   0.00000  Uiso   1.00
Cu806  Cu    0.16667   0.11978   0.75000   0.00000  Uiso   1.00
C807   C     0.20285   0.17936   0.90960   0.00000  Uiso   1.00
C808   C     0.13049   0.15397   0.59040   0.00000  Uiso   1.00
C809   C     0.16661   0.16653   0.88350   0.00000  Uiso   1.00
C810   C     0.16672   0.16680   0.61650   0.00000  Uiso   1.00
C811   C     0.13092   0.15229   0.90329   0.00000  Uiso   1.00
C812   C     0.20241   0.18104   0.59671   0.00000  Uiso   1.00
C813   C     0.13251   0.14891   0.95003   0.00000  Uiso   1.00
C814   C     0.20082   0.18443   0.54997   0.00000  Uiso   1.00
C815   C     0.16679   0.16689   0.97650   0.00000  Uiso   1.00
C816   C     0.16654   0.16644   0.52350   0.00000  Uiso   1.00
C817   C     0.20116   0.18541   0.95609   0.00000  Uiso   1.00
C818   C     0.13218   0.14792   0.54391   0.00000  Uiso   1.00
C819   C     0.10073   0.12702   0.97073   0.00000  Uiso   1.00
C820   C     0.23261   0.20631   0.52927   0.00000  Uiso   1.00
C821   C     0.10095   0.12439   0.51687   0.00000  Uiso   1.00
C822   C     0.23238   0.20895   0.98313   0.00000  Uiso   1.00
H823   H     0.07589   0.10991   0.95103   0.00000  Uiso   1.00
H824   H     0.25744   0.22343   0.54897   0.00000  Uiso   1.00
C825   C     0.02138   0.12490   0.75065   0.00000  Uiso   1.00
C826   C     0.31195   0.20843   0.74935   0.00000  Uiso   1.00
C827   C     0.31213   0.12490   0.75113   0.00000  Uiso   1.00
C828   C     0.02120   0.20843   0.74887   0.00000  Uiso   1.00
H829   H     0.03744   0.09222   0.75125   0.00000  Uiso   1.00
H830   H     0.29590   0.24111   0.74874   0.00000  Uiso   1.00
H831   H     0.29623   0.09222   0.75196   0.00000  Uiso   1.00
H832   H     0.03711   0.24112   0.74804   0.00000  Uiso   1.00
C833   C     0.29055   0.16666   0.75047   0.00000  Uiso   1.00
C834   C     0.04279   0.16667   0.74953   0.00000  Uiso   1.00
C835   C     0.13979   0.02465   0.72100   0.00000  Uiso   1.00
C836   C     0.19355   0.30868   0.77900   0.00000  Uiso   1.00
C837   C     0.19354   0.02472   0.77902   0.00000  Uiso   1.00
C838   C     0.13979   0.30861   0.72098   0.00000  Uiso   1.00
N839   N     0.16667   0.28402   0.75000   0.00000  Uiso   1.00
N840   N     0.16667   0.04931   0.75000   0.00000  Uiso   1.00
C841   C     0.24391   0.17867   0.88873   0.00000  Uiso   1.00
H842   H     0.26824   0.16305   0.91201   0.00000  Uiso   1.00
H843   H     0.24297   0.15662   0.85865   0.00000  Uiso   1.00
H844   H     0.25296   0.21365   0.87888   0.00000  Uiso   1.00
C845   C     0.08942   0.15467   0.61127   0.00000  Uiso   1.00
H846   H     0.06509   0.17028   0.58798   0.00000  Uiso   1.00
H847   H     0.08038   0.11969   0.62112   0.00000  Uiso   1.00
H848   H     0.09036   0.17673   0.64134   0.00000  Uiso   1.00
C849   C     0.09137   0.14033   0.87500   0.00000  Uiso   1.00
H850   H     0.09147   0.15143   0.83999   0.00000  Uiso   1.00
H851   H     0.08630   0.10257   0.87527   0.00000  Uiso   1.00
H852   H     0.06467   0.15813   0.88818   0.00000  Uiso   1.00
C853   C     0.24196   0.19301   0.62500   0.00000  Uiso   1.00
H854   H     0.24187   0.18189   0.66001   0.00000  Uiso   1.00
H855   H     0.26866   0.17520   0.61182   0.00000  Uiso   1.00
H856   H     0.24703   0.23076   0.62473   0.00000  Uiso   1.00
C857   C     0.07073   0.09114   0.53510   0.00000  Uiso   1.00
H858   H     0.05928   0.06557   0.50958   0.00000  Uiso   1.00
H859   H     0.08619   0.07087   0.56288   0.00000  Uiso   1.00
H860   H     0.04324   0.10949   0.54560   0.00000  Uiso   1.00
C861   C     0.26260   0.24219   0.96491   0.00000  Uiso   1.00
H862   H     0.27407   0.26775   0.99043   0.00000  Uiso   1.00
H863   H     0.29009   0.22384   0.95439   0.00000  Uiso   1.00
H864   H     0.24714   0.26247   0.93713   0.00000  Uiso   1.00
C865   C     0.10909   0.04845   0.68787   0.00000  Uiso   1.00
H866   H     0.10923   0.08557   0.68841   0.00000  Uiso   1.00
H867   H     0.11523   0.03895   0.65340   0.00000  Uiso   1.00
H868   H     0.07705   0.03870   0.69411   0.00000  Uiso   1.00
C869   C     0.22425   0.28488   0.81213   0.00000  Uiso   1.00
H870   H     0.22410   0.24776   0.81159   0.00000  Uiso   1.00
H871   H     0.25628   0.29464   0.80588   0.00000  Uiso   1.00
H872   H     0.21811   0.29439   0.84660   0.00000  Uiso   1.00
C873   C     0.22421   0.04857   0.81227   0.00000  Uiso   1.00
H874   H     0.22429   0.08574   0.81195   0.00000  Uiso   1.00
H875   H     0.21796   0.03902   0.84669   0.00000  Uiso   1.00
H876   H     0.25624   0.03866   0.80614   0.00000  Uiso   1.00
C877   C     0.10912   0.28477   0.68772   0.00000  Uiso   1.00
H878   H     0.10905   0.24759   0.68805   0.00000  Uiso   1.00
H879   H     0.07709   0.29467   0.69386   0.00000  Uiso   1.00
H880   H     0.11537   0.29431   0.65331   0.00000  Uiso   1.00
O881   O     0.43988   0.20625   0.74999   0.00000  Uiso   1.00
O882   O     0.56012   0.12709   0.75000   0.00000  Uiso   1.00
O883   O     0.56012   0.20625   0.75000   0.00000  Uiso   1.00
O884   O     0.43988   0.12709   0.74999   0.00000  Uiso   1.00
C885   C     0.42082   0.16667   0.74944   0.00000  Uiso   1.00
C886   C     0.57918   0.16666   0.75056   0.00000  Uiso   1.00
O887   O     0.49999   0.20627   0.68513   0.00000  Uiso   1.00
O888   O     0.50001   0.12707   0.81487   0.00000  Uiso   1.00
O889   O     0.50001   0.20627   0.81487   0.00000  Uiso   1.00
O890   O     0.49999   0.12707   0.68513   0.00000  Uiso   1.00
C891   C     0.49995   0.16668   0.66478   0.00000  Uiso   1.00
C892   C     0.50005   0.16666   0.83522   0.00000  Uiso   1.00
Cu893  Cu    0.50000   0.21355   0.75000   0.00000  Uiso   1.00
Cu894  Cu    0.50000   0.11978   0.75000   0.00000  Uiso   1.00
C895   C     0.53618   0.17936   0.90960   0.00000  Uiso   1.00
C896   C     0.46382   0.15397   0.59040   0.00000  Uiso   1.00
C897   C     0.49995   0.16653   0.88350   0.00000  Uiso   1.00
C898   C     0.50005   0.16680   0.61650   0.00000  Uiso   1.00
C899   C     0.46425   0.15229   0.90329   0.00000  Uiso   1.00
C900   C     0.53575   0.18104   0.59671   0.00000  Uiso   1.00
C901   C     0.46584   0.14891   0.95003   0.00000  Uiso   1.00
C902   C     0.53416   0.18443   0.54997   0.00000  Uiso   1.00
C903   C     0.50012   0.16689   0.97650   0.00000  Uiso   1.00
C904   C     0.49988   0.16644   0.52350   0.00000  Uiso   1.00
C905   C     0.53449   0.18541   0.95609   0.00000  Uiso   1.00
C906   C     0.46551   0.14792   0.54391   0.00000  Uiso   1.00
C907   C     0.43406   0.12702   0.97073   0.00000  Uiso   1.00
C908   C     0.56594   0.20631   0.52927   0.00000  Uiso   1.00
C909   C     0.43429   0.12439   0.51687   0.00000  Uiso   1.00
C910   C     0.56571   0.20895   0.98313   0.00000  Uiso   1.00
H911   H     0.40923   0.10991   0.95103   0.00000  Uiso   1.00
H912   H     0.59078   0.22343   0.54897   0.00000  Uiso   1.00
C913   C     0.35472   0.12490   0.75065   0.00000  Uiso   1.00
C914   C     0.64528   0.20843   0.74935   0.00000  Uiso   1.00
C915   C     0.64546   0.12490   0.75113   0.00000  Uiso   1.00
C916   C     0.35454   0.20843   0.74887   0.00000  Uiso   1.00
H917   H     0.37077   0.09222   0.75125   0.00000  Uiso   1.00
H918   H     0.62923   0.24111   0.74874   0.00000  Uiso   1.00
H919   H     0.62956   0.09222   0.75196   0.00000  Uiso   1.00
H920   H     0.37044   0.24112   0.74804   0.00000  Uiso   1.00
C921   C     0.62388   0.16666   0.75047   0.00000  Uiso   1.00
C922   C     0.37612   0.16667   0.74953   0.00000  Uiso   1.00
C923   C     0.47312   0.02465   0.72100   0.00000  Uiso   1.00
C924   C     0.52688   0.30868   0.77900   0.00000  Uiso   1.00
C925   C     0.52688   0.02472   0.77902   0.00000  Uiso   1.00
C926   C     0.47312   0.30861   0.72098   0.00000  Uiso   1.00
N927   N     0.50000   0.28402   0.75000   0.00000  Uiso   1.00
N928   N     0.50000   0.04931   0.75000   0.00000  Uiso   1.00
C929   C     0.57724   0.17867   0.88873   0.00000  Uiso   1.00
H930   H     0.60158   0.16305   0.91201   0.00000  Uiso   1.00
H931   H     0.57630   0.15662   0.85865   0.00000  Uiso   1.00
H932   H     0.58629   0.21365   0.87888   0.00000  Uiso   1.00
C933   C     0.42276   0.15467   0.61127   0.00000  Uiso   1.00
H934   H     0.39842   0.17028   0.58798   0.00000  Uiso   1.00
H935   H     0.41371   0.11969   0.62112   0.00000  Uiso   1.00
H936   H     0.42370   0.17673   0.64134   0.00000  Uiso   1.00
C937   C     0.42470   0.14033   0.87500   0.00000  Uiso   1.00
H938   H     0.42480   0.15143   0.83999   0.00000  Uiso   1.00
H939   H     0.41963   0.10257   0.87527   0.00000  Uiso   1.00
H940   H     0.39800   0.15813   0.88818   0.00000  Uiso   1.00
C941   C     0.57530   0.19301   0.62500   0.00000  Uiso   1.00
H942   H     0.57520   0.18189   0.66001   0.00000  Uiso   1.00
H943   H     0.60200   0.17520   0.61182   0.00000  Uiso   1.00
H944   H     0.58037   0.23076   0.62473   0.00000  Uiso   1.00
C945   C     0.40407   0.09114   0.53510   0.00000  Uiso   1.00
H946   H     0.39261   0.06557   0.50958   0.00000  Uiso   1.00
H947   H     0.41952   0.07087   0.56288   0.00000  Uiso   1.00
H948   H     0.37657   0.10949   0.54560   0.00000  Uiso   1.00
C949   C     0.59594   0.24219   0.96491   0.00000  Uiso   1.00
H950   H     0.60740   0.26775   0.99043   0.00000  Uiso   1.00
H951   H     0.62342   0.22384   0.95439   0.00000  Uiso   1.00
H952   H     0.58048   0.26247   0.93713   0.00000  Uiso   1.00
C953   C     0.44242   0.04845   0.68787   0.00000  Uiso   1.00
H954   H     0.44256   0.08557   0.68841   0.00000  Uiso   1.00
H955   H     0.44856   0.03895   0.65340   0.00000  Uiso   1.00
H956   H     0.41038   0.03870   0.69411   0.00000  Uiso   1.00
C957   C     0.55758   0.28488   0.81213   0.00000  Uiso   1.00
H958   H     0.55744   0.24776   0.81159   0.00000  Uiso   1.00
H959   H     0.58962   0.29464   0.80588   0.00000  Uiso   1.00
H960   H     0.55144   0.29439   0.84660   0.00000  Uiso   1.00
C961   C     0.55754   0.04857   0.81227   0.00000  Uiso   1.00
H962   H     0.55762   0.08574   0.81195   0.00000  Uiso   1.00
H963   H     0.55130   0.03902   0.84669   0.00000  Uiso   1.00
H964   H     0.58958   0.03866   0.80614   0.00000  Uiso   1.00
C965   C     0.44246   0.28477   0.68772   0.00000  Uiso   1.00
H966   H     0.44238   0.24759   0.68805   0.00000  Uiso   1.00
H967   H     0.41042   0.29467   0.69386   0.00000  Uiso   1.00
H968   H     0.44870   0.29431   0.65331   0.00000  Uiso   1.00
O969   O     0.77321   0.20625   0.74999   0.00000  Uiso   1.00
O970   O     0.89345   0.12709   0.75000   0.00000  Uiso   1.00
O971   O     0.89345   0.20625   0.75000   0.00000  Uiso   1.00
O972   O     0.77321   0.12709   0.74999   0.00000  Uiso   1.00
C973   C     0.75416   0.16667   0.74944   0.00000  Uiso   1.00
C974   C     0.91251   0.16666   0.75056   0.00000  Uiso   1.00
O975   O     0.83332   0.20627   0.68513   0.00000  Uiso   1.00
O976   O     0.83334   0.12707   0.81487   0.00000  Uiso   1.00
O977   O     0.83334   0.20627   0.81487   0.00000  Uiso   1.00
O978   O     0.83332   0.12707   0.68513   0.00000  Uiso   1.00
C979   C     0.83329   0.16668   0.66478   0.00000  Uiso   1.00
C980   C     0.83338   0.16666   0.83522   0.00000  Uiso   1.00
Cu981  Cu    0.83333   0.21355   0.75000   0.00000  Uiso   1.00
Cu982  Cu    0.83333   0.11978   0.75000   0.00000  Uiso   1.00
C983   C     0.86951   0.17936   0.90960   0.00000  Uiso   1.00
C984   C     0.79715   0.15397   0.59040   0.00000  Uiso   1.00
C985   C     0.83328   0.16653   0.88350   0.00000  Uiso   1.00
C986   C     0.83339   0.16680   0.61650   0.00000  Uiso   1.00
C987   C     0.79759   0.15229   0.90329   0.00000  Uiso   1.00
C988   C     0.86908   0.18104   0.59671   0.00000  Uiso   1.00
C989   C     0.79918   0.14891   0.95003   0.00000  Uiso   1.00
C990   C     0.86749   0.18443   0.54997   0.00000  Uiso   1.00
C991   C     0.83346   0.16689   0.97650   0.00000  Uiso   1.00
C992   C     0.83321   0.16644   0.52350   0.00000  Uiso   1.00
C993   C     0.86782   0.18541   0.95609   0.00000  Uiso   1.00
C994   C     0.79885   0.14792   0.54391   0.00000  Uiso   1.00
C995   C     0.76739   0.12702   0.97073   0.00000  Uiso   1.00
C996   C     0.89928   0.20631   0.52927   0.00000  Uiso   1.00
C997   C     0.76762   0.12439   0.51687   0.00000  Uiso   1.00
C998   C     0.89905   0.20895   0.98313   0.00000  Uiso   1.00
H999   H     0.74256   0.10991   0.95103   0.00000  Uiso   1.00
H1000  H     0.92411   0.22343   0.54897   0.00000  Uiso   1.00
C1001  C     0.68805   0.12490   0.75065   0.00000  Uiso   1.00
C1002  C     0.97862   0.20843   0.74935   0.00000  Uiso   1.00
C1003  C     0.97880   0.12490   0.75113   0.00000  Uiso   1.00
C1004  C     0.68787   0.20843   0.74887   0.00000  Uiso   1.00
H1005  H     0.70410   0.09222   0.75125   0.00000  Uiso   1.00
H1006  H     0.96256   0.24111   0.74874   0.00000  Uiso   1.00
H1007  H     0.96289   0.09222   0.75196   0.00000  Uiso   1.00
H1008  H     0.70377   0.24112   0.74804   0.00000  Uiso   1.00
C1009  C     0.95721   0.16666   0.75047   0.00000  Uiso   1.00
C1010  C     0.70945   0.16667   0.74953   0.00000  Uiso   1.00
C1011  C     0.80645   0.02465   0.72100   0.00000  Uiso   1.00
C1012  C     0.86021   0.30868   0.77900   0.00000  Uiso   1.00
C1013  C     0.86021   0.02472   0.77902   0.00000  Uiso   1.00
C1014  C     0.80646   0.30861   0.72098   0.00000  Uiso   1.00
N1015  N     0.83333   0.28402   0.75000   0.00000  Uiso   1.00
N1016  N     0.83333   0.04931   0.75000   0.00000  Uiso   1.00
C1017  C     0.91058   0.17867   0.88873   0.00000  Uiso   1.00
H1018  H     0.93491   0.16305   0.91201   0.00000  Uiso   1.00
H1019  H     0.90964   0.15662   0.85865   0.00000  Uiso   1.00
H1020  H     0.91962   0.21365   0.87888   0.00000  Uiso   1.00
C1021  C     0.75609   0.15467   0.61127   0.00000  Uiso   1.00
H1022  H     0.73176   0.17028   0.58798   0.00000  Uiso   1.00
H1023  H     0.74705   0.11969   0.62112   0.00000  Uiso   1.00
H1024  H     0.75703   0.17673   0.64134   0.00000  Uiso   1.00
C1025  C     0.75804   0.14033   0.87500   0.00000  Uiso   1.00
H1026  H     0.75814   0.15143   0.83999   0.00000  Uiso   1.00
H1027  H     0.75297   0.10257   0.87527   0.00000  Uiso   1.00
H1028  H     0.73134   0.15813   0.88818   0.00000  Uiso   1.00
C1029  C     0.90863   0.19301   0.62500   0.00000  Uiso   1.00
H1030  H     0.90853   0.18189   0.66001   0.00000  Uiso   1.00
H1031  H     0.93533   0.17520   0.61182   0.00000  Uiso   1.00
H1032  H     0.91370   0.23076   0.62473   0.00000  Uiso   1.00
C1033  C     0.73740   0.09114   0.53510   0.00000  Uiso   1.00
H1034  H     0.72595   0.06557   0.50958   0.00000  Uiso   1.00
H1035  H     0.75286   0.07087   0.56288   0.00000  Uiso   1.00
H1036  H     0.70991   0.10949   0.54560   0.00000  Uiso   1.00
C1037  C     0.92927   0.24219   0.96491   0.00000  Uiso   1.00
H1038  H     0.94074   0.26775   0.99043   0.00000  Uiso   1.00
H1039  H     0.95676   0.22384   0.95439   0.00000  Uiso   1.00
H1040  H     0.91381   0.26247   0.93713   0.00000  Uiso   1.00
C1041  C     0.77575   0.04845   0.68787   0.00000  Uiso   1.00
H1042  H     0.77590   0.08557   0.68841   0.00000  Uiso   1.00
H1043  H     0.78190   0.03895   0.65340   0.00000  Uiso   1.00
H1044  H     0.74372   0.03870   0.69411   0.00000  Uiso   1.00
C1045  C     0.89091   0.28488   0.81213   0.00000  Uiso   1.00
H1046  H     0.89077   0.24776   0.81159   0.00000  Uiso   1.00
H1047  H     0.92295   0.29464   0.80588   0.00000  Uiso   1.00
H1048  H     0.88477   0.29439   0.84660   0.00000  Uiso   1.00
C1049  C     0.89088   0.04857   0.81227   0.00000  Uiso   1.00
H1050  H     0.89095   0.08574   0.81195   0.00000  Uiso   1.00
H1051  H     0.88463   0.03902   0.84669   0.00000  Uiso   1.00
H1052  H     0.92291   0.03866   0.80614   0.00000  Uiso   1.00
C1053  C     0.77579   0.28477   0.68772   0.00000  Uiso   1.00
H1054  H     0.77571   0.24759   0.68805   0.00000  Uiso   1.00
H1055  H     0.74376   0.29467   0.69386   0.00000  Uiso   1.00
H1056  H     0.78204   0.29431   0.65331   0.00000  Uiso   1.00
O1057  O     0.10655   0.53958   0.74999   0.00000  Uiso   1.00
O1058  O     0.22679   0.46042   0.75000   0.00000  Uiso   1.00
O1059  O     0.22679   0.53958   0.75000   0.00000  Uiso   1.00
O1060  O     0.10655   0.46042   0.74999   0.00000  Uiso   1.00
C1061  C     0.08749   0.50001   0.74944   0.00000  Uiso   1.00
C1062  C     0.24584   0.49999   0.75056   0.00000  Uiso   1.00
O1063  O     0.16666   0.53960   0.68513   0.00000  Uiso   1.00
O1064  O     0.16668   0.46040   0.81487   0.00000  Uiso   1.00
O1065  O     0.16668   0.53960   0.81487   0.00000  Uiso   1.00
O1066  O     0.16666   0.46040   0.68513   0.00000  Uiso   1.00
C1067  C     0.16662   0.50001   0.66478   0.00000  Uiso   1.00
C1068  C     0.16671   0.49999   0.83522   0.00000  Uiso   1.00
Cu1069 Cu    0.16667   0.54689   0.75000   0.00000  Uiso   1.00
Cu1070 Cu    0.16667   0.45311   0.75000   0.00000  Uiso   1.00
C1071  C     0.20285   0.51270   0.90960   0.00000  Uiso   1.00
C1072  C     0.13049   0.48730   0.59040   0.00000  Uiso   1.00
C1073  C     0.16661   0.49986   0.88350   0.00000  Uiso   1.00
C1074  C     0.16672   0.50014   0.61650   0.00000  Uiso   1.00
C1075  C     0.13092   0.48562   0.90329   0.00000  Uiso   1.00
C1076  C     0.20241   0.51437   0.59671   0.00000  Uiso   1.00
C1077  C     0.13251   0.48224   0.95003   0.00000  Uiso   1.00
C1078  C     0.20082   0.51776   0.54997   0.00000  Uiso   1.00
C1079  C     0.16679   0.50022   0.97650   0.00000  Uiso   1.00
C1080  C     0.16654   0.49978   0.52350   0.00000  Uiso   1.00
C1081  C     0.20116   0.51875   0.95609   0.00000  Uiso   1.00
C1082  C     0.13218   0.48125   0.54391   0.00000  Uiso   1.00
C1083  C     0.10073   0.46035   0.97073   0.00000  Uiso   1.00
C1084  C     0.23261   0.53965   0.52927   0.00000  Uiso   1.00
C1085  C     0.10095   0.45772   0.51687   0.00000  Uiso   1.00
C1086  C     0.23238   0.54228   0.98313   0.00000  Uiso   1.00
H1087  H     0.07589   0.44324   0.95103   0.00000  Uiso   1.00
H1088  H     0.25744   0.55676   0.54897   0.00000  Uiso   1.00
C1089  C     0.02138   0.45824   0.75065   0.00000  Uiso   1.00
C1090  C     0.31195   0.54176   0.74935   0.00000  Uiso   1.00
C1091  C     0.31213   0.45823   0.75113   0.00000  Uiso   1.00
C1092  C     0.02120   0.54177   0.74887   0.00000  Uiso   1.00
H1093  H     0.03744   0.42556   0.75125   0.00000  Uiso   1.00
H1094  H     0.29590   0.57444   0.74874   0.00000  Uiso   1.00
H1095  H     0.29623   0.42555   0.75196   0.00000  Uiso   1.00
H1096  H     0.03711   0.57445   0.74804   0.00000  Uiso   1.00
C1097  C     0.29055   0.49999   0.75047   0.00000  Uiso   1.00
C1098  C     0.04279   0.50000   0.74953   0.00000  Uiso   1.00
C1099  C     0.13979   0.35799   0.72100   0.00000  Uiso   1.00
C1100  C     0.19355   0.64201   0.77900   0.00000  Uiso   1.00
C1101  C     0.19354   0.35806   0.77902   0.00000  Uiso   1.00
C1102  C     0.13979   0.64194   0.72098   0.00000  Uiso   1.00
N1103  N     0.16667   0.61736   0.75000   0.00000  Uiso   1.00
N1104  N     0.16667   0.38264   0.75000   0.00000  Uiso   1.00
C1105  C     0.24391   0.51200   0.88873   0.00000  Uiso   1.00
H1106  H     0.26824   0.49638   0.91201   0.00000  Uiso   1.00
H1107  H     0.24297   0.48995   0.85865   0.00000  Uiso   1.00
H1108  H     0.25296   0.54698   0.87888   0.00000  Uiso   1.00
C1109  C     0.08942   0.48800   0.61127   0.00000  Uiso   1.00
H1110  H     0.06509   0.50361   0.58798   0.00000  Uiso   1.00
H1111  H     0.08038   0.45303   0.62112   0.00000  Uiso   1.00
H1112  H     0.09036   0.51006   0.64134   0.00000  Uiso   1.00
C1113  C     0.09137   0.47366   0.87500   0.00000  Uiso   1.00
H1114  H     0.09147   0.48477   0.83999   0.00000  Uiso   1.00
H1115  H     0.08630   0.43591   0.87527   0.00000  Uiso   1.00
H1116  H     0.06467   0.49146   0.88818   0.00000  Uiso   1.00
C1117  C     0.24196   0.52634   0.62500   0.00000  Uiso   1.00
H1118  H     0.24187   0.51523   0.66001   0.00000  Uiso   1.00
H1119  H     0.26866   0.50854   0.61182   0.00000  Uiso   1.00
H1120  H     0.24703   0.56409   0.62473   0.00000  Uiso   1.00
C1121  C     0.07073   0.42447   0.53510   0.00000  Uiso   1.00
H1122  H     0.05928   0.39890   0.50958   0.00000  Uiso   1.00
H1123  H     0.08619   0.40420   0.56288   0.00000  Uiso   1.00
H1124  H     0.04324   0.44282   0.54560   0.00000  Uiso   1.00
C1125  C     0.26260   0.57553   0.96491   0.00000  Uiso   1.00
H1126  H     0.27407   0.60109   0.99043   0.00000  Uiso   1.00
H1127  H     0.29009   0.55717   0.95439   0.00000  Uiso   1.00
H1128  H     0.24714   0.59581   0.93713   0.00000  Uiso   1.00
C1129  C     0.10909   0.38179   0.68787   0.00000  Uiso   1.00
H1130  H     0.10923   0.41890   0.68841   0.00000  Uiso   1.00
H1131  H     0.11523   0.37228   0.65340   0.00000  Uiso   1.00
H1132  H     0.07705   0.37203   0.69411   0.00000  Uiso   1.00
C1133  C     0.22425   0.61821   0.81213   0.00000  Uiso   1.00
H1134  H     0.22410   0.58110   0.81159   0.00000  Uiso   1.00
H1135  H     0.25628   0.62797   0.80588   0.00000  Uiso   1.00
H1136  H     0.21811   0.62772   0.84660   0.00000  Uiso   1.00
C1137  C     0.22421   0.38190   0.81227   0.00000  Uiso   1.00
H1138  H     0.22429   0.41907   0.81195   0.00000  Uiso   1.00
H1139  H     0.21796   0.37235   0.84669   0.00000  Uiso   1.00
H1140  H     0.25624   0.37200   0.80614   0.00000  Uiso   1.00
C1141  C     0.10912   0.61810   0.68772   0.00000  Uiso   1.00
H1142  H     0.10905   0.58093   0.68805   0.00000  Uiso   1.00
H1143  H     0.07709   0.62800   0.69386   0.00000  Uiso   1.00
H1144  H     0.11537   0.62764   0.65331   0.00000  Uiso   1.00
O1145  O     0.43988   0.53958   0.74999   0.00000  Uiso   1.00
O1146  O     0.56012   0.46042   0.75000   0.00000  Uiso   1.00
O1147  O     0.56012   0.53958   0.75000   0.00000  Uiso   1.00
O1148  O     0.43988   0.46042   0.74999   0.00000  Uiso   1.00
C1149  C     0.42082   0.50001   0.74944   0.00000  Uiso   1.00
C1150  C     0.57918   0.49999   0.75056   0.00000  Uiso   1.00
O1151  O     0.49999   0.53960   0.68513   0.00000  Uiso   1.00
O1152  O     0.50001   0.46040   0.81487   0.00000  Uiso   1.00
O1153  O     0.50001   0.53960   0.81487   0.00000  Uiso   1.00
O1154  O     0.49999   0.46040   0.68513   0.00000  Uiso   1.00
C1155  C     0.49995   0.50001   0.66478   0.00000  Uiso   1.00
C1156  C     0.50005   0.49999   0.83522   0.00000  Uiso   1.00
Cu1157 Cu    0.50000   0.54689   0.75000   0.00000  Uiso   1.00
Cu1158 Cu    0.50000   0.45311   0.75000   0.00000  Uiso   1.00
C1159  C     0.53618   0.51270   0.90960   0.00000  Uiso   1.00
C1160  C     0.46382   0.48730   0.59040   0.00000  Uiso   1.00
C1161  C     0.49995   0.49986   0.88350   0.00000  Uiso   1.00
C1162  C     0.50005   0.50014   0.61650   0.00000  Uiso   1.00
C1163  C     0.46425   0.48562   0.90329   0.00000  Uiso   1.00
C1164  C     0.53575   0.51437   0.59671   0.00000  Uiso   1.00
C1165  C     0.46584   0.48224   0.95003   0.00000  Uiso   1.00
C1166  C     0.53416   0.51776   0.54997   0.00000  Uiso   1.00
C1167  C     0.50012   0.50022   0.97650   0.00000  Uiso   1.00
C1168  C     0.49988   0.49978   0.52350   0.00000  Uiso   1.00
C1169  C     0.53449   0.51875   0.95609   0.00000  Uiso   1.00
C1170  C     0.46551   0.48125   0.54391   0.00000  Uiso   1.00
C1171  C     0.43406   0.46035   0.97073   0.00000  Uiso   1.00
C1172  C     0.56594   0.53965   0.52927   0.00000  Uiso   1.00
C1173  C     0.43429   0.45772   0.51687   0.00000  Uiso   1.00
C1174  C     0.56571   0.54228   0.98313   0.00000  Uiso   1.00
H1175  H     0.40923   0.44324   0.95103   0.00000  Uiso   1.00
H1176  H     0.59078   0.55676   0.54897   0.00000  Uiso   1.00
C1177  C     0.35472   0.45824   0.75065   0.00000  Uiso   1.00
C1178  C     0.64528   0.54176   0.74935   0.00000  Uiso   1.00
C1179  C     0.64546   0.45823   0.75113   0.00000  Uiso   1.00
C1180  C     0.35454   0.54177   0.74887   0.00000  Uiso   1.00
H1181  H     0.37077   0.42556   0.75125   0.00000  Uiso   1.00
H1182  H     0.62923   0.57444   0.74874   0.00000  Uiso   1.00
H1183  H     0.62956   0.42555   0.75196   0.00000  Uiso   1.00
H1184  H     0.37044   0.57445   0.74804   0.00000  Uiso   1.00
C1185  C     0.62388   0.49999   0.75047   0.00000  Uiso   1.00
C1186  C     0.37612   0.50000   0.74953   0.00000  Uiso   1.00
C1187  C     0.47312   0.35799   0.72100   0.00000  Uiso   1.00
C1188  C     0.52688   0.64201   0.77900   0.00000  Uiso   1.00
C1189  C     0.52688   0.35806   0.77902   0.00000  Uiso   1.00
C1190  C     0.47312   0.64194   0.72098   0.00000  Uiso   1.00
N1191  N     0.50000   0.61736   0.75000   0.00000  Uiso   1.00
N1192  N     0.50000   0.38264   0.75000   0.00000  Uiso   1.00
C1193  C     0.57724   0.51200   0.88873   0.00000  Uiso   1.00
H1194  H     0.60158   0.49638   0.91201   0.00000  Uiso   1.00
H1195  H     0.57630   0.48995   0.85865   0.00000  Uiso   1.00
H1196  H     0.58629   0.54698   0.87888   0.00000  Uiso   1.00
C1197  C     0.42276   0.48800   0.61127   0.00000  Uiso   1.00
H1198  H     0.39842   0.50361   0.58798   0.00000  Uiso   1.00
H1199  H     0.41371   0.45303   0.62112   0.00000  Uiso   1.00
H1200  H     0.42370   0.51006   0.64134   0.00000  Uiso   1.00
C1201  C     0.42470   0.47366   0.87500   0.00000  Uiso   1.00
H1202  H     0.42480   0.48477   0.83999   0.00000  Uiso   1.00
H1203  H     0.41963   0.43591   0.87527   0.00000  Uiso   1.00
H1204  H     0.39800   0.49146   0.88818   0.00000  Uiso   1.00
C1205  C     0.57530   0.52634   0.62500   0.00000  Uiso   1.00
H1206  H     0.57520   0.51523   0.66001   0.00000  Uiso   1.00
H1207  H     0.60200   0.50854   0.61182   0.00000  Uiso   1.00
H1208  H     0.58037   0.56409   0.62473   0.00000  Uiso   1.00
C1209  C     0.40407   0.42447   0.53510   0.00000  Uiso   1.00
H1210  H     0.39261   0.39890   0.50958   0.00000  Uiso   1.00
H1211  H     0.41952   0.40420   0.56288   0.00000  Uiso   1.00
H1212  H     0.37657   0.44282   0.54560   0.00000  Uiso   1.00
C1213  C     0.59594   0.57553   0.96491   0.00000  Uiso   1.00
H1214  H     0.60740   0.60109   0.99043   0.00000  Uiso   1.00
H1215  H     0.62342   0.55717   0.95439   0.00000  Uiso   1.00
H1216  H     0.58048   0.59581   0.93713   0.00000  Uiso   1.00
C1217  C     0.44242   0.38179   0.68787   0.00000  Uiso   1.00
H1218  H     0.44256   0.41890   0.68841   0.00000  Uiso   1.00
H1219  H     0.44856   0.37228   0.65340   0.00000  Uiso   1.00
H1220  H     0.41038   0.37203   0.69411   0.00000  Uiso   1.00
C1221  C     0.55758   0.61821   0.81213   0.00000  Uiso   1.00
H1222  H     0.55744   0.58110   0.81159   0.00000  Uiso   1.00
H1223  H     0.58962   0.62797   0.80588   0.00000  Uiso   1.00
H1224  H     0.55144   0.62772   0.84660   0.00000  Uiso   1.00
C1225  C     0.55754   0.38190   0.81227   0.00000  Uiso   1.00
H1226  H     0.55762   0.41907   0.81195   0.00000  Uiso   1.00
H1227  H     0.55130   0.37235   0.84669   0.00000  Uiso   1.00
H1228  H     0.58958   0.37200   0.80614   0.00000  Uiso   1.00
C1229  C     0.44246   0.61810   0.68772   0.00000  Uiso   1.00
H1230  H     0.44238   0.58093   0.68805   0.00000  Uiso   1.00
H1231  H     0.41042   0.62800   0.69386   0.00000  Uiso   1.00
H1232  H     0.44870   0.62764   0.65331   0.00000  Uiso   1.00
O1233  O     0.77321   0.53958   0.74999   0.00000  Uiso   1.00
O1234  O     0.89345   0.46042   0.75000   0.00000  Uiso   1.00
O1235  O     0.89345   0.53958   0.75000   0.00000  Uiso   1.00
O1236  O     0.77321   0.46042   0.74999   0.00000  Uiso   1.00
C1237  C     0.75416   0.50001   0.74944   0.00000  Uiso   1.00
C1238  C     0.91251   0.49999   0.75056   0.00000  Uiso   1.00
O1239  O     0.83332   0.53960   0.68513   0.00000  Uiso   1.00
O1240  O     0.83334   0.46040   0.81487   0.00000  Uiso   1.00
O1241  O     0.83334   0.53960   0.81487   0.00000  Uiso   1.00
O1242  O     0.83332   0.46040   0.68513   0.00000  Uiso   1.00
C1243  C     0.83329   0.50001   0.66478   0.00000  Uiso   1.00
C1244  C     0.83338   0.49999   0.83522   0.00000  Uiso   1.00
Cu1245 Cu    0.83333   0.54689   0.75000   0.00000  Uiso   1.00
Cu1246 Cu    0.83333   0.45311   0.75000   0.00000  Uiso   1.00
C1247  C     0.86951   0.51270   0.90960   0.00000  Uiso   1.00
C1248  C     0.79715   0.48730   0.59040   0.00000  Uiso   1.00
C1249  C     0.83328   0.49986   0.88350   0.00000  Uiso   1.00
C1250  C     0.83339   0.50014   0.61650   0.00000  Uiso   1.00
C1251  C     0.79759   0.48562   0.90329   0.00000  Uiso   1.00
C1252  C     0.86908   0.51437   0.59671   0.00000  Uiso   1.00
C1253  C     0.79918   0.48224   0.95003   0.00000  Uiso   1.00
C1254  C     0.86749   0.51776   0.54997   0.00000  Uiso   1.00
C1255  C     0.83346   0.50022   0.97650   0.00000  Uiso   1.00
C1256  C     0.83321   0.49978   0.52350   0.00000  Uiso   1.00
C1257  C     0.86782   0.51875   0.95609   0.00000  Uiso   1.00
C1258  C     0.79885   0.48125   0.54391   0.00000  Uiso   1.00
C1259  C     0.76739   0.46035   0.97073   0.00000  Uiso   1.00
C1260  C     0.89928   0.53965   0.52927   0.00000  Uiso   1.00
C1261  C     0.76762   0.45772   0.51687   0.00000  Uiso   1.00
C1262  C     0.89905   0.54228   0.98313   0.00000  Uiso   1.00
H1263  H     0.74256   0.44324   0.95103   0.00000  Uiso   1.00
H1264  H     0.92411   0.55676   0.54897   0.00000  Uiso   1.00
C1265  C     0.68805   0.45824   0.75065   0.00000  Uiso   1.00
C1266  C     0.97862   0.54176   0.74935   0.00000  Uiso   1.00
C1267  C     0.97880   0.45823   0.75113   0.00000  Uiso   1.00
C1268  C     0.68787   0.54177   0.74887   0.00000  Uiso   1.00
H1269  H     0.70410   0.42556   0.75125   0.00000  Uiso   1.00
H1270  H     0.96256   0.57444   0.74874   0.00000  Uiso   1.00
H1271  H     0.96289   0.42555   0.75196   0.00000  Uiso   1.00
H1272  H     0.70377   0.57445   0.74804   0.00000  Uiso   1.00
C1273  C     0.95721   0.49999   0.75047   0.00000  Uiso   1.00
C1274  C     0.70945   0.50000   0.74953   0.00000  Uiso   1.00
C1275  C     0.80645   0.35799   0.72100   0.00000  Uiso   1.00
C1276  C     0.86021   0.64201   0.77900   0.00000  Uiso   1.00
C1277  C     0.86021   0.35806   0.77902   0.00000  Uiso   1.00
C1278  C     0.80646   0.64194   0.72098   0.00000  Uiso   1.00
N1279  N     0.83333   0.61736   0.75000   0.00000  Uiso   1.00
N1280  N     0.83333   0.38264   0.75000   0.00000  Uiso   1.00
C1281  C     0.91058   0.51200   0.88873   0.00000  Uiso   1.00
H1282  H     0.93491   0.49638   0.91201   0.00000  Uiso   1.00
H1283  H     0.90964   0.48995   0.85865   0.00000  Uiso   1.00
H1284  H     0.91962   0.54698   0.87888   0.00000  Uiso   1.00
C1285  C     0.75609   0.48800   0.61127   0.00000  Uiso   1.00
H1286  H     0.73176   0.50361   0.58798   0.00000  Uiso   1.00
H1287  H     0.74705   0.45303   0.62112   0.00000  Uiso   1.00
H1288  H     0.75703   0.51006   0.64134   0.00000  Uiso   1.00
C1289  C     0.75804   0.47366   0.87500   0.00000  Uiso   1.00
H1290  H     0.75814   0.48477   0.83999   0.00000  Uiso   1.00
H1291  H     0.75297   0.43591   0.87527   0.00000  Uiso   1.00
H1292  H     0.73134   0.49146   0.88818   0.00000  Uiso   1.00
C1293  C     0.90863   0.52634   0.62500   0.00000  Uiso   1.00
H1294  H     0.90853   0.51523   0.66001   0.00000  Uiso   1.00
H1295  H     0.93533   0.50854   0.61182   0.00000  Uiso   1.00
H1296  H     0.91370   0.56409   0.62473   0.00000  Uiso   1.00
C1297  C     0.73740   0.42447   0.53510   0.00000  Uiso   1.00
H1298  H     0.72595   0.39890   0.50958   0.00000  Uiso   1.00
H1299  H     0.75286   0.40420   0.56288   0.00000  Uiso   1.00
H1300  H     0.70991   0.44282   0.54560   0.00000  Uiso   1.00
C1301  C     0.92927   0.57553   0.96491   0.00000  Uiso   1.00
H1302  H     0.94074   0.60109   0.99043   0.00000  Uiso   1.00
H1303  H     0.95676   0.55717   0.95439   0.00000  Uiso   1.00
H1304  H     0.91381   0.59581   0.93713   0.00000  Uiso   1.00
C1305  C     0.77575   0.38179   0.68787   0.00000  Uiso   1.00
H1306  H     0.77590   0.41890   0.68841   0.00000  Uiso   1.00
H1307  H     0.78190   0.37228   0.65340   0.00000  Uiso   1.00
H1308  H     0.74372   0.37203   0.69411   0.00000  Uiso   1.00
C1309  C     0.89091   0.61821   0.81213   0.00000  Uiso   1.00
H1310  H     0.89077   0.58110   0.81159   0.00000  Uiso   1.00
H1311  H     0.92295   0.62797   0.80588   0.00000  Uiso   1.00
H1312  H     0.88477   0.62772   0.84660   0.00000  Uiso   1.00
C1313  C     0.89088   0.38190   0.81227   0.00000  Uiso   1.00
H1314  H     0.89095   0.41907   0.81195   0.00000  Uiso   1.00
H1315  H     0.88463   0.37235   0.84669   0.00000  Uiso   1.00
H1316  H     0.92291   0.37200   0.80614   0.00000  Uiso   1.00
C1317  C     0.77579   0.61810   0.68772   0.00000  Uiso   1.00
H1318  H     0.77571   0.58093   0.68805   0.00000  Uiso   1.00
H1319  H     0.74376   0.62800   0.69386   0.00000  Uiso   1.00
H1320  H     0.78204   0.62764   0.65331   0.00000  Uiso   1.00
O1321  O     0.10655   0.87291   0.74999   0.00000  Uiso   1.00
O1322  O     0.22679   0.79375   0.75000   0.00000  Uiso   1.00
O1323  O     0.22679   0.87291   0.75000   0.00000  Uiso   1.00
O1324  O     0.10655   0.79375   0.74999   0.00000  Uiso   1.00
C1325  C     0.08749   0.83334   0.74944   0.00000  Uiso   1.00
C1326  C     0.24584   0.83333   0.75056   0.00000  Uiso   1.00
O1327  O     0.16666   0.87293   0.68513   0.00000  Uiso   1.00
O1328  O     0.16668   0.79373   0.81487   0.00000  Uiso   1.00
O1329  O     0.16668   0.87293   0.81487   0.00000  Uiso   1.00
O1330  O     0.16666   0.79373   0.68513   0.00000  Uiso   1.00
C1331  C     0.16662   0.83334   0.66478   0.00000  Uiso   1.00
C1332  C     0.16671   0.83332   0.83522   0.00000  Uiso   1.00
Cu1333 Cu    0.16667   0.88022   0.75000   0.00000  Uiso   1.00
Cu1334 Cu    0.16667   0.78645   0.75000   0.00000  Uiso   1.00
C1335  C     0.20285   0.84603   0.90960   0.00000  Uiso   1.00
C1336  C     0.13049   0.82064   0.59040   0.00000  Uiso   1.00
C1337  C     0.16661   0.83320   0.88350   0.00000  Uiso   1.00
C1338  C     0.16672   0.83347   0.61650   0.00000  Uiso   1.00
C1339  C     0.13092   0.81896   0.90329   0.00000  Uiso   1.00
C1340  C     0.20241   0.84771   0.59671   0.00000  Uiso   1.00
C1341  C     0.13251   0.81557   0.95003   0.00000  Uiso   1.00
C1342  C     0.20082   0.85109   0.54997   0.00000  Uiso   1.00
C1343  C     0.16679   0.83356   0.97650   0.00000  Uiso   1.00
C1344  C     0.16654   0.83311   0.52350   0.00000  Uiso   1.00
C1345  C     0.20116   0.85208   0.95609   0.00000  Uiso   1.00
C1346  C     0.13218   0.81459   0.54391   0.00000  Uiso   1.00
C1347  C     0.10073   0.79369   0.97073   0.00000  Uiso   1.00
C1348  C     0.23261   0.87298   0.52927   0.00000  Uiso   1.00
C1349  C     0.10095   0.79105   0.51687   0.00000  Uiso   1.00
C1350  C     0.23238   0.87561   0.98313   0.00000  Uiso   1.00
H1351  H     0.07589   0.77657   0.95103   0.00000  Uiso   1.00
H1352  H     0.25744   0.89009   0.54897   0.00000  Uiso   1.00
C1353  C     0.02138   0.79157   0.75065   0.00000  Uiso   1.00
C1354  C     0.31195   0.87510   0.74935   0.00000  Uiso   1.00
C1355  C     0.31213   0.79157   0.75113   0.00000  Uiso   1.00
C1356  C     0.02120   0.87510   0.74887   0.00000  Uiso   1.00
H1357  H     0.03744   0.75889   0.75125   0.00000  Uiso   1.00
H1358  H     0.29590   0.90778   0.74874   0.00000  Uiso   1.00
H1359  H     0.29623   0.75888   0.75196   0.00000  Uiso   1.00
H1360  H     0.03711   0.90778   0.74804   0.00000  Uiso   1.00
C1361  C     0.29055   0.83333   0.75047   0.00000  Uiso   1.00
C1362  C     0.04279   0.83334   0.74953   0.00000  Uiso   1.00
C1363  C     0.13979   0.69132   0.72100   0.00000  Uiso   1.00
C1364  C     0.19355   0.97535   0.77900   0.00000  Uiso   1.00
C1365  C     0.19354   0.69139   0.77902   0.00000  Uiso   1.00
C1366  C     0.13979   0.97527   0.72098   0.00000  Uiso   1.00
N1367  N     0.16667   0.95069   0.75000   0.00000  Uiso   1.00
N1368  N     0.16667   0.71598   0.75000   0.00000  Uiso   1.00
C1369  C     0.24391   0.84533   0.88873   0.00000  Uiso   1.00
H1370  H     0.26824   0.82972   0.91201   0.00000  Uiso   1.00
H1371  H     0.24297   0.82328   0.85865   0.00000  Uiso   1.00
H1372  H     0.25296   0.88031   0.87888   0.00000  Uiso   1.00
C1373  C     0.08942   0.82134   0.61127   0.00000  Uiso   1.00
H1374  H     0.06509   0.83695   0.58798   0.00000  Uiso   1.00
H1375  H     0.08038   0.78636   0.62112   0.00000  Uiso   1.00
H1376  H     0.09036   0.84340   0.64134   0.00000  Uiso   1.00
C1377  C     0.09137   0.80699   0.87500   0.00000  Uiso   1.00
H1378  H     0.09147   0.81810   0.83999   0.00000  Uiso   1.00
H1379  H     0.08630   0.76924   0.87527   0.00000  Uiso   1.00
H1380  H     0.06467   0.82480   0.88818   0.00000  Uiso   1.00
C1381  C     0.24196   0.85967   0.62500   0.00000  Uiso   1.00
H1382  H     0.24187   0.84856   0.66001   0.00000  Uiso   1.00
H1383  H     0.26866   0.84187   0.61182   0.00000  Uiso   1.00
H1384  H     0.24703   0.89743   0.62473   0.00000  Uiso   1.00
C1385  C     0.07073   0.75781   0.53510   0.00000  Uiso   1.00
H1386  H     0.05928   0.73224   0.50958   0.00000  Uiso   1.00
H1387  H     0.08619   0.73754   0.56288   0.00000  Uiso   1.00
H1388  H     0.04324   0.77616   0.54560   0.00000  Uiso   1.00
C1389  C     0.26260   0.90886   0.96491   0.00000  Uiso   1.00
H1390  H     0.27407   0.93442   0.99043   0.00000  Uiso   1.00
H1391  H     0.29009   0.89050   0.95439   0.00000  Uiso   1.00
H1392  H     0.24714   0.92914   0.93713   0.00000  Uiso   1.00
C1393  C     0.10909   0.71512   0.68787   0.00000  Uiso   1.00
H1394  H     0.10923   0.75224   0.68841   0.00000  Uiso   1.00
H1395  H     0.11523   0.70561   0.65340   0.00000  Uiso   1.00
H1396  H     0.07705   0.70536   0.69411   0.00000  Uiso   1.00
C1397  C     0.22425   0.95155   0.81213   0.00000  Uiso   1.00
H1398  H     0.22410   0.91443   0.81159   0.00000  Uiso   1.00
H1399  H     0.25628   0.96130   0.80588   0.00000  Uiso   1.00
H1400  H     0.21811   0.96105   0.84660   0.00000  Uiso   1.00
C1401  C     0.22421   0.71523   0.81227   0.00000  Uiso   1.00
H1402  H     0.22429   0.75241   0.81195   0.00000  Uiso   1.00
H1403  H     0.21796   0.70569   0.84669   0.00000  Uiso   1.00
H1404  H     0.25624   0.70533   0.80614   0.00000  Uiso   1.00
C1405  C     0.10912   0.95143   0.68772   0.00000  Uiso   1.00
H1406  H     0.10905   0.91426   0.68805   0.00000  Uiso   1.00
H1407  H     0.07709   0.96134   0.69386   0.00000  Uiso   1.00
H1408  H     0.11537   0.96098   0.65331   0.00000  Uiso   1.00
O1409  O     0.43988   0.87291   0.74999   0.00000  Uiso   1.00
O1410  O     0.56012   0.79375   0.75000   0.00000  Uiso   1.00
O1411  O     0.56012   0.87291   0.75000   0.00000  Uiso   1.00
O1412  O     0.43988   0.79375   0.74999   0.00000  Uiso   1.00
C1413  C     0.42082   0.83334   0.74944   0.00000  Uiso   1.00
C1414  C     0.57918   0.83333   0.75056   0.00000  Uiso   1.00
O1415  O     0.49999   0.87293   0.68513   0.00000  Uiso   1.00
O1416  O     0.50001   0.79373   0.81487   0.00000  Uiso   1.00
O1417  O     0.50001   0.87293   0.81487   0.00000  Uiso   1.00
O1418  O     0.49999   0.79373   0.68513   0.00000  Uiso   1.00
C1419  C     0.49995   0.83334   0.66478   0.00000  Uiso   1.00
C1420  C     0.50005   0.83332   0.83522   0.00000  Uiso   1.00
Cu1421 Cu    0.50000   0.88022   0.75000   0.00000  Uiso   1.00
Cu1422 Cu    0.50000   0.78645   0.75000   0.00000  Uiso   1.00
C1423  C     0.53618   0.84603   0.90960   0.00000  Uiso   1.00
C1424  C     0.46382   0.82064   0.59040   0.00000  Uiso   1.00
C1425  C     0.49995   0.83320   0.88350   0.00000  Uiso   1.00
C1426  C     0.50005   0.83347   0.61650   0.00000  Uiso   1.00
C1427  C     0.46425   0.81896   0.90329   0.00000  Uiso   1.00
C1428  C     0.53575   0.84771   0.59671   0.00000  Uiso   1.00
C1429  C     0.46584   0.81557   0.95003   0.00000  Uiso   1.00
C1430  C     0.53416   0.85109   0.54997   0.00000  Uiso   1.00
C1431  C     0.50012   0.83356   0.97650   0.00000  Uiso   1.00
C1432  C     0.49988   0.83311   0.52350   0.00000  Uiso   1.00
C1433  C     0.53449   0.85208   0.95609   0.00000  Uiso   1.00
C1434  C     0.46551   0.81459   0.54391   0.00000  Uiso   1.00
C1435  C     0.43406   0.79369   0.97073   0.00000  Uiso   1.00
C1436  C     0.56594   0.87298   0.52927   0.00000  Uiso   1.00
C1437  C     0.43429   0.79105   0.51687   0.00000  Uiso   1.00
C1438  C     0.56571   0.87561   0.98313   0.00000  Uiso   1.00
H1439  H     0.40923   0.77657   0.95103   0.00000  Uiso   1.00
H1440  H     0.59078   0.89009   0.54897   0.00000  Uiso   1.00
C1441  C     0.35472   0.79157   0.75065   0.00000  Uiso   1.00
C1442  C     0.64528   0.87510   0.74935   0.00000  Uiso   1.00
C1443  C     0.64546   0.79157   0.75113   0.00000  Uiso   1.00
C1444  C     0.35454   0.87510   0.74887   0.00000  Uiso   1.00
H1445  H     0.37077   0.75889   0.75125   0.00000  Uiso   1.00
H1446  H     0.62923   0.90778   0.74874   0.00000  Uiso   1.00
H1447  H     0.62956   0.75888   0.75196   0.00000  Uiso   1.00
H1448  H     0.37044   0.90778   0.74804   0.00000  Uiso   1.00
C1449  C     0.62388   0.83333   0.75047   0.00000  Uiso   1.00
C1450  C     0.37612   0.83334   0.74953   0.00000  Uiso   1.00
C1451  C     0.47312   0.69132   0.72100   0.00000  Uiso   1.00
C1452  C     0.52688   0.97535   0.77900   0.00000  Uiso   1.00
C1453  C     0.52688   0.69139   0.77902   0.00000  Uiso   1.00
C1454  C     0.47312   0.97527   0.72098   0.00000  Uiso   1.00
N1455  N     0.50000   0.95069   0.75000   0.00000  Uiso   1.00
N1456  N     0.50000   0.71598   0.75000   0.00000  Uiso   1.00
C1457  C     0.57724   0.84533   0.88873   0.00000  Uiso   1.00
H1458  H     0.60158   0.82972   0.91201   0.00000  Uiso   1.00
H1459  H     0.57630   0.82328   0.85865   0.00000  Uiso   1.00
H1460  H     0.58629   0.88031   0.87888   0.00000  Uiso   1.00
C1461  C     0.42276   0.82134   0.61127   0.00000  Uiso   1.00
H1462  H     0.39842   0.83695   0.58798   0.00000  Uiso   1.00
H1463  H     0.41371   0.78636   0.62112   0.00000  Uiso   1.00
H1464  H     0.42370   0.84340   0.64134   0.00000  Uiso   1.00
C1465  C     0.42470   0.80699   0.87500   0.00000  Uiso   1.00
H1466  H     0.42480   0.81810   0.83999   0.00000  Uiso   1.00
H1467  H     0.41963   0.76924   0.87527   0.00000  Uiso   1.00
H1468  H     0.39800   0.82480   0.88818   0.00000  Uiso   1.00
C1469  C     0.57530   0.85967   0.62500   0.00000  Uiso   1.00
H1470  H     0.57520   0.84856   0.66001   0.00000  Uiso   1.00
H1471  H     0.60200   0.84187   0.61182   0.00000  Uiso   1.00
H1472  H     0.58037   0.89743   0.62473   0.00000  Uiso   1.00
C1473  C     0.40407   0.75781   0.53510   0.00000  Uiso   1.00
H1474  H     0.39261   0.73224   0.50958   0.00000  Uiso   1.00
H1475  H     0.41952   0.73754   0.56288   0.00000  Uiso   1.00
H1476  H     0.37657   0.77616   0.54560   0.00000  Uiso   1.00
C1477  C     0.59594   0.90886   0.96491   0.00000  Uiso   1.00
H1478  H     0.60740   0.93442   0.99043   0.00000  Uiso   1.00
H1479  H     0.62342   0.89050   0.95439   0.00000  Uiso   1.00
H1480  H     0.58048   0.92914   0.93713   0.00000  Uiso   1.00
C1481  C     0.44242   0.71512   0.68787   0.00000  Uiso   1.00
H1482  H     0.44256   0.75224   0.68841   0.00000  Uiso   1.00
H1483  H     0.44856   0.70561   0.65340   0.00000  Uiso   1.00
H1484  H     0.41038   0.70536   0.69411   0.00000  Uiso   1.00
C1485  C     0.55758   0.95155   0.81213   0.00000  Uiso   1.00
H1486  H     0.55744   0.91443   0.81159   0.00000  Uiso   1.00
H1487  H     0.58962   0.96130   0.80588   0.00000  Uiso   1.00
H1488  H     0.55144   0.96105   0.84660   0.00000  Uiso   1.00
C1489  C     0.55754   0.71523   0.81227   0.00000  Uiso   1.00
H1490  H     0.55762   0.75241   0.81195   0.00000  Uiso   1.00
H1491  H     0.55130   0.70569   0.84669   0.00000  Uiso   1.00
H1492  H     0.58958   0.70533   0.80614   0.00000  Uiso   1.00
C1493  C     0.44246   0.95143   0.68772   0.00000  Uiso   1.00
H1494  H     0.44238   0.91426   0.68805   0.00000  Uiso   1.00
H1495  H     0.41042   0.96134   0.69386   0.00000  Uiso   1.00
H1496  H     0.44870   0.96098   0.65331   0.00000  Uiso   1.00
O1497  O     0.77321   0.87291   0.74999   0.00000  Uiso   1.00
O1498  O     0.89345   0.79375   0.75000   0.00000  Uiso   1.00
O1499  O     0.89345   0.87291   0.75000   0.00000  Uiso   1.00
O1500  O     0.77321   0.79375   0.74999   0.00000  Uiso   1.00
C1501  C     0.75416   0.83334   0.74944   0.00000  Uiso   1.00
C1502  C     0.91251   0.83333   0.75056   0.00000  Uiso   1.00
O1503  O     0.83332   0.87293   0.68513   0.00000  Uiso   1.00
O1504  O     0.83334   0.79373   0.81487   0.00000  Uiso   1.00
O1505  O     0.83334   0.87293   0.81487   0.00000  Uiso   1.00
O1506  O     0.83332   0.79373   0.68513   0.00000  Uiso   1.00
C1507  C     0.83329   0.83334   0.66478   0.00000  Uiso   1.00
C1508  C     0.83338   0.83332   0.83522   0.00000  Uiso   1.00
Cu1509 Cu    0.83333   0.88022   0.75000   0.00000  Uiso   1.00
Cu1510 Cu    0.83333   0.78645   0.75000   0.00000  Uiso   1.00
C1511  C     0.86951   0.84603   0.90960   0.00000  Uiso   1.00
C1512  C     0.79715   0.82064   0.59040   0.00000  Uiso   1.00
C1513  C     0.83328   0.83320   0.88350   0.00000  Uiso   1.00
C1514  C     0.83339   0.83347   0.61650   0.00000  Uiso   1.00
C1515  C     0.79759   0.81896   0.90329   0.00000  Uiso   1.00
C1516  C     0.86908   0.84771   0.59671   0.00000  Uiso   1.00
C1517  C     0.79918   0.81557   0.95003   0.00000  Uiso   1.00
C1518  C     0.86749   0.85109   0.54997   0.00000  Uiso   1.00
C1519  C     0.83346   0.83356   0.97650   0.00000  Uiso   1.00
C1520  C     0.83321   0.83311   0.52350   0.00000  Uiso   1.00
C1521  C     0.86782   0.85208   0.95609   0.00000  Uiso   1.00
C1522  C     0.79885   0.81459   0.54391   0.00000  Uiso   1.00
C1523  C     0.76739   0.79369   0.97073   0.00000  Uiso   1.00
C1524  C     0.89928   0.87298   0.52927   0.00000  Uiso   1.00
C1525  C     0.76762   0.79105   0.51687   0.00000  Uiso   1.00
C1526  C     0.89905   0.87561   0.98313   0.00000  Uiso   1.00
H1527  H     0.74256   0.77657   0.95103   0.00000  Uiso   1.00
H1528  H     0.92411   0.89009   0.54897   0.00000  Uiso   1.00
C1529  C     0.68805   0.79157   0.75065   0.00000  Uiso   1.00
C1530  C     0.97862   0.87510   0.74935   0.00000  Uiso   1.00
C1531  C     0.97880   0.79157   0.75113   0.00000  Uiso   1.00
C1532  C     0.68787   0.87510   0.74887   0.00000  Uiso   1.00
H1533  H     0.70410   0.75889   0.75125   0.00000  Uiso   1.00
H1534  H     0.96256   0.90778   0.74874   0.00000  Uiso   1.00
H1535  H     0.96289   0.75888   0.75196   0.00000  Uiso   1.00
H1536  H     0.70377   0.90778   0.74804   0.00000  Uiso   1.00
C1537  C     0.95721   0.83333   0.75047   0.00000  Uiso   1.00
C1538  C     0.70945   0.83334   0.74953   0.00000  Uiso   1.00
C1539  C     0.80645   0.69132   0.72100   0.00000  Uiso   1.00
C1540  C     0.86021   0.97535   0.77900   0.00000  Uiso   1.00
C1541  C     0.86021   0.69139   0.77902   0.00000  Uiso   1.00
C1542  C     0.80646   0.97527   0.72098   0.00000  Uiso   1.00
N1543  N     0.83333   0.95069   0.75000   0.00000  Uiso   1.00
N1544  N     0.83333   0.71598   0.75000   0.00000  Uiso   1.00
C1545  C     0.91058   0.84533   0.88873   0.00000  Uiso   1.00
H1546  H     0.93491   0.82972   0.91201   0.00000  Uiso   1.00
H1547  H     0.90964   0.82328   0.85865   0.00000  Uiso   1.00
H1548  H     0.91962   0.88031   0.87888   0.00000  Uiso   1.00
C1549  C     0.75609   0.82134   0.61127   0.00000  Uiso   1.00
H1550  H     0.73176   0.83695   0.58798   0.00000  Uiso   1.00
H1551  H     0.74705   0.78636   0.62112   0.00000  Uiso   1.00
H1552  H     0.75703   0.84340   0.64134   0.00000  Uiso   1.00
C1553  C     0.75804   0.80699   0.87500   0.00000  Uiso   1.00
H1554  H     0.75814   0.81810   0.83999   0.00000  Uiso   1.00
H1555  H     0.75297   0.76924   0.87527   0.00000  Uiso   1.00
H1556  H     0.73134   0.82480   0.88818   0.00000  Uiso   1.00
C1557  C     0.90863   0.85967   0.62500   0.00000  Uiso   1.00
H1558  H     0.90853   0.84856   0.66001   0.00000  Uiso   1.00
H1559  H     0.93533   0.84187   0.61182   0.00000  Uiso   1.00
H1560  H     0.91370   0.89743   0.62473   0.00000  Uiso   1.00
C1561  C     0.73740   0.75781   0.53510   0.00000  Uiso   1.00
H1562  H     0.72595   0.73224   0.50958   0.00000  Uiso   1.00
H1563  H     0.75286   0.73754   0.56288   0.00000  Uiso   1.00
H1564  H     0.70991   0.77616   0.54560   0.00000  Uiso   1.00
C1565  C     0.92927   0.90886   0.96491   0.00000  Uiso   1.00
H1566  H     0.94074   0.93442   0.99043   0.00000  Uiso   1.00
H1567  H     0.95676   0.89050   0.95439   0.00000  Uiso   1.00
H1568  H     0.91381   0.92914   0.93713   0.00000  Uiso   1.00
C1569  C     0.77575   0.71512   0.68787   0.00000  Uiso   1.00
H1570  H     0.77590   0.75224   0.68841   0.00000  Uiso   1.00
H1571  H     0.78190   0.70561   0.65340   0.00000  Uiso   1.00
H1572  H     0.74372   0.70536   0.69411   0.00000  Uiso   1.00
C1573  C     0.89091   0.95155   0.81213   0.00000  Uiso   1.00
H1574  H     0.89077   0.91443   0.81159   0.00000  Uiso   1.00
H1575  H     0.92295   0.96130   0.80588   0.00000  Uiso   1.00
H1576  H     0.88477   0.96105   0.84660   0.00000  Uiso   1.00
C1577  C     0.89088   0.71523   0.81227   0.00000  Uiso   1.00
H1578  H     0.89095   0.75241   0.81195   0.00000  Uiso   1.00
H1579  H     0.88463   0.70569   0.84669   0.00000  Uiso   1.00
H1580  H     0.92291   0.70533   0.80614   0.00000  Uiso   1.00
C1581  C     0.77579   0.95143   0.68772   0.00000  Uiso   1.00
H1582  H     0.77571   0.91426   0.68805   0.00000  Uiso   1.00
H1583  H     0.74376   0.96134   0.69386   0.00000  Uiso   1.00
H1584  H     0.78204   0.96098   0.65331   0.00000  Uiso   1.00
loop_
_geom_bond_atom_site_label_1
_geom_bond_atom_site_label_2
_geom_bond_distance
_geom_bond_site_symmetry_2
_ccdc_geom_bond_type
O1     C5      1.306   .     A
O1     Cu13    1.963   .     S
O2     C6      1.306   .     A
O2     Cu14    1.963   .     S
O3     C6      1.306   .     A
O3     Cu13    1.963   .     S
O4     C5      1.306   .     A
O4     Cu14    1.963   .     S
C5     C42     1.451   .     S
C6     C41     1.451   .     S
O7     C11     1.304   .     A
O7     Cu13    1.967   .     S
O8     C12     1.304   .     A
O8     Cu14    1.967   .     S
O9     Cu13    1.968   .     S
O9     C12     1.305   .     A
O10    Cu14    1.968   .     S
O10    C11     1.305   .     A
C11    C18     1.456   .     S
C12    C17     1.456   .     S
Cu13   Cu14    2.727   .     S
Cu13   N47     2.049   .     S
Cu14   N48     2.049   .     S
C15    C17     1.410   .     A
C15    C49     1.521   .     S
C15    C25     1.418   .     A
C16    C53     1.521   .     S
C16    C26     1.418   .     A
C16    C18     1.410   .     A
C17    C19     1.409   .     A
C18    C20     1.409   .     A
C19    C57     1.522   .     S
C19    C21     1.410   .     A
C20    C61     1.522   .     S
C20    C22     1.410   .     A
C21    C27     1.403   .     A
C21    C23     1.415   .     A
C22    C28     1.403   .     A
C22    C24     1.415   .     A
C23    C25     1.424   .     A
C23    C816    1.418   .     S
C24    C26     1.424   .     A
C24    C815    1.418   1_554 S
C25    C30     1.422   .     A
C26    C29     1.422   .     A
C27    H31     1.082   .     S
C27    C821    1.393   .     S
C28    H32     1.082   .     S
C28    C822    1.393   1_554 S
C29    C65     1.513   .     S
C29    C819    1.393   1_554 S
C30    C69     1.513   .     S
C30    C820    1.393   .     S
C33    C42     1.401   .     A
C33    H37     1.083   .     S
C33    C211    1.384   1_455 S
C34    C41     1.401   .     A
C34    H38     1.083   .     S
C34    C124    1.384   .     S
C35    C41     1.401   .     A
C35    H39     1.083   .     S
C35    C121    1.384   .     S
C36    C42     1.401   .     A
C36    H40     1.083   .     S
C36    C210    1.384   1_455 S
C43    C73     1.518   .     S
C43    N48     1.383   .     A
C43    C574    1.436   1_545 S
C44    C77     1.518   .     S
C44    N47     1.383   .     A
C44    C309    1.436   .     S
C45    N48     1.383   .     A
C45    C81     1.520   .     S
C45    C572    1.436   1_545 S
C46    C85     1.520   .     S
C46    N47     1.383   .     A
C46    C307    1.436   .     S
C49    H51     1.109   .     S
C49    H50     1.110   .     S
C49    H52     1.106   .     S
C53    H55     1.106   .     S
C53    H54     1.110   .     S
C53    H56     1.109   .     S
C57    H59     1.110   .     S
C57    H60     1.111   .     S
C57    H58     1.104   .     S
C61    H63     1.111   .     S
C61    H62     1.104   .     S
C61    H64     1.110   .     S
C65    H67     1.110   .     S
C65    H68     1.108   .     S
C65    H66     1.111   .     S
C69    H71     1.108   .     S
C69    H72     1.110   .     S
C69    H70     1.111   .     S
C73    H74     1.079   .     S
C73    H75     1.109   .     S
C73    H76     1.109   .     S
C77    H78     1.079   .     S
C77    H79     1.109   .     S
C77    H80     1.109   .     S
C81    H84     1.109   .     S
C81    H82     1.081   .     S
C81    H83     1.109   .     S
C85    H87     1.109   .     S
C85    H86     1.081   .     S
C85    H88     1.109   .     S
O89    C93     1.306   .     A
O89    Cu101   1.963   .     S
O90    C94     1.306   .     A
O90    Cu102   1.963   .     S
O91    C94     1.306   .     A
O91    Cu101   1.963   .     S
O92    C93     1.306   .     A
O92    Cu102   1.963   .     S
C93    C130    1.451   .     S
C94    C129    1.451   .     S
O95    C99     1.304   .     A
O95    Cu101   1.967   .     S
O96    C100    1.304   .     A
O96    Cu102   1.967   .     S
O97    Cu101   1.968   .     S
O97    C100    1.305   .     A
O98    Cu102   1.968   .     S
O98    C99     1.305   .     A
C99    C106    1.456   .     S
C100   C105    1.456   .     S
Cu101  Cu102   2.727   .     S
Cu101  N135    2.049   .     S
Cu102  N136    2.049   .     S
C103   C105    1.410   .     A
C103   C137    1.521   .     S
C103   C113    1.418   .     A
C104   C141    1.521   .     S
C104   C114    1.418   .     A
C104   C106    1.410   .     A
C105   C107    1.409   .     A
C106   C108    1.409   .     A
C107   C145    1.522   .     S
C107   C109    1.410   .     A
C108   C149    1.522   .     S
C108   C110    1.410   .     A
C109   C115    1.403   .     A
C109   C111    1.415   .     A
C110   C116    1.403   .     A
C110   C112    1.415   .     A
C111   C113    1.424   .     A
C111   C904    1.418   .     S
C112   C114    1.424   .     A
C112   C903    1.418   1_554 S
C113   C118    1.422   .     A
C114   C117    1.422   .     A
C115   H119    1.082   .     S
C115   C909    1.393   .     S
C116   H120    1.082   .     S
C116   C910    1.393   1_554 S
C117   C153    1.513   .     S
C117   C907    1.393   1_554 S
C118   C157    1.513   .     S
C118   C908    1.393   .     S
C121   C130    1.401   .     A
C121   H125    1.083   .     S
C122   C129    1.401   .     A
C122   H126    1.083   .     S
C122   C212    1.384   .     S
C123   C129    1.401   .     A
C123   H127    1.083   .     S
C123   C209    1.384   .     S
C124   C130    1.401   .     A
C124   H128    1.083   .     S
C131   C161    1.518   .     S
C131   N136    1.383   .     A
C131   C662    1.436   1_545 S
C132   C165    1.518   .     S
C132   N135    1.383   .     A
C132   C397    1.436   .     S
C133   N136    1.383   .     A
C133   C169    1.520   .     S
C133   C660    1.436   1_545 S
C134   C173    1.520   .     S
C134   N135    1.383   .     A
C134   C395    1.436   .     S
C137   H139    1.109   .     S
C137   H138    1.110   .     S
C137   H140    1.106   .     S
C141   H143    1.106   .     S
C141   H142    1.110   .     S
C141   H144    1.109   .     S
C145   H147    1.110   .     S
C145   H148    1.111   .     S
C145   H146    1.104   .     S
C149   H151    1.111   .     S
C149   H150    1.104   .     S
C149   H152    1.110   .     S
C153   H155    1.110   .     S
C153   H156    1.108   .     S
C153   H154    1.111   .     S
C157   H159    1.108   .     S
C157   H160    1.110   .     S
C157   H158    1.111   .     S
C161   H162    1.079   .     S
C161   H163    1.109   .     S
C161   H164    1.109   .     S
C165   H166    1.079   .     S
C165   H167    1.109   .     S
C165   H168    1.109   .     S
C169   H172    1.109   .     S
C169   H170    1.081   .     S
C169   H171    1.109   .     S
C173   H175    1.109   .     S
C173   H174    1.081   .     S
C173   H176    1.109   .     S
O177   C181    1.306   .     A
O177   Cu189   1.963   .     S
O178   C182    1.306   .     A
O178   Cu190   1.963   .     S
O179   C182    1.306   .     A
O179   Cu189   1.963   .     S
O180   C181    1.306   .     A
O180   Cu190   1.963   .     S
C181   C218    1.451   .     S
C182   C217    1.451   .     S
O183   C187    1.304   .     A
O183   Cu189   1.967   .     S
O184   C188    1.304   .     A
O184   Cu190   1.967   .     S
O185   Cu189   1.968   .     S
O185   C188    1.305   .     A
O186   Cu190   1.968   .     S
O186   C187    1.305   .     A
C187   C194    1.456   .     S
C188   C193    1.456   .     S
Cu189  Cu190   2.727   .     S
Cu189  N223    2.049   .     S
Cu190  N224    2.049   .     S
C191   C193    1.410   .     A
C191   C225    1.521   .     S
C191   C201    1.418   .     A
C192   C229    1.521   .     S
C192   C202    1.418   .     A
C192   C194    1.410   .     A
C193   C195    1.409   .     A
C194   C196    1.409   .     A
C195   C233    1.522   .     S
C195   C197    1.410   .     A
C196   C237    1.522   .     S
C196   C198    1.410   .     A
C197   C203    1.403   .     A
C197   C199    1.415   .     A
C198   C204    1.403   .     A
C198   C200    1.415   .     A
C199   C201    1.424   .     A
C199   C992    1.418   .     S
C200   C202    1.424   .     A
C200   C991    1.418   1_554 S
C201   C206    1.422   .     A
C202   C205    1.422   .     A
C203   H207    1.082   .     S
C203   C997    1.393   .     S
C204   H208    1.082   .     S
C204   C998    1.393   1_554 S
C205   C241    1.513   .     S
C205   C995    1.393   1_554 S
C206   C245    1.513   .     S
C206   C996    1.393   .     S
C209   C218    1.401   .     A
C209   H213    1.083   .     S
C210   C217    1.401   .     A
C210   H214    1.083   .     S
C210   C36     1.384   1_655 S
C211   C217    1.401   .     A
C211   H215    1.083   .     S
C211   C33     1.384   1_655 S
C212   C218    1.401   .     A
C212   H216    1.083   .     S
C219   C249    1.518   .     S
C219   N224    1.383   .     A
C219   C750    1.436   1_545 S
C220   C253    1.518   .     S
C220   N223    1.383   .     A
C220   C485    1.436   .     S
C221   N224    1.383   .     A
C221   C257    1.520   .     S
C221   C748    1.436   1_545 S
C222   C261    1.520   .     S
C222   N223    1.383   .     A
C222   C483    1.436   .     S
C225   H227    1.109   .     S
C225   H226    1.110   .     S
C225   H228    1.106   .     S
C229   H231    1.106   .     S
C229   H230    1.110   .     S
C229   H232    1.109   .     S
C233   H235    1.110   .     S
C233   H236    1.111   .     S
C233   H234    1.104   .     S
C237   H239    1.111   .     S
C237   H238    1.104   .     S
C237   H240    1.110   .     S
C241   H243    1.110   .     S
C241   H244    1.108   .     S
C241   H242    1.111   .     S
C245   H247    1.108   .     S
C245   H248    1.110   .     S
C245   H246    1.111   .     S
C249   H250    1.079   .     S
C249   H251    1.109   .     S
C249   H252    1.109   .     S
C253   H254    1.079   .     S
C253   H255    1.109   .     S
C253   H256    1.109   .     S
C257   H260    1.109   .     S
C257   H258    1.081   .     S
C257   H259    1.109   .     S
C261   H263    1.109   .     S
C261   H262    1.081   .     S
C261   H264    1.109   .     S
O265   C269    1.306   .     A
O265   Cu277   1.963   .     S
O266   C270    1.306   .     A
O266   Cu278   1.963   .     S
O267   C270    1.306   .     A
O267   Cu277   1.963   .     S
O268   C269    1.306   .     A
O268   Cu278   1.963   .     S
C269   C306    1.451   .     S
C270   C305    1.451   .     S
O271   C275    1.304   .     A
O271   Cu277   1.967   .     S
O272   C276    1.304   .     A
O272   Cu278   1.967   .     S
O273   Cu277   1.968   .     S
O273   C276    1.305   .     A
O274   Cu278   1.968   .     S
O274   C275    1.305   .     A
C275   C282    1.456   .     S
C276   C281    1.456   .     S
Cu277  Cu278   2.727   .     S
Cu277  N311    2.049   .     S
Cu278  N312    2.049   .     S
C279   C281    1.410   .     A
C279   C313    1.521   .     S
C279   C289    1.418   .     A
C280   C317    1.521   .     S
C280   C290    1.418   .     A
C280   C282    1.410   .     A
C281   C283    1.409   .     A
C282   C284    1.409   .     A
C283   C321    1.522   .     S
C283   C285    1.410   .     A
C284   C325    1.522   .     S
C284   C286    1.410   .     A
C285   C291    1.403   .     A
C285   C287    1.415   .     A
C286   C292    1.403   .     A
C286   C288    1.415   .     A
C287   C289    1.424   .     A
C287   C1080   1.418   .     S
C288   C290    1.424   .     A
C288   C1079   1.418   1_554 S
C289   C294    1.422   .     A
C290   C293    1.422   .     A
C291   H295    1.082   .     S
C291   C1085   1.393   .     S
C292   H296    1.082   .     S
C292   C1086   1.393   1_554 S
C293   C329    1.513   .     S
C293   C1083   1.393   1_554 S
C294   C333    1.513   .     S
C294   C1084   1.393   .     S
C297   C306    1.401   .     A
C297   H301    1.083   .     S
C297   C475    1.384   1_455 S
C298   C305    1.401   .     A
C298   H302    1.083   .     S
C298   C388    1.384   .     S
C299   C305    1.401   .     A
C299   H303    1.083   .     S
C299   C385    1.384   .     S
C300   C306    1.401   .     A
C300   H304    1.083   .     S
C300   C474    1.384   1_455 S
C307   C337    1.518   .     S
C307   N312    1.383   .     A
C308   C341    1.518   .     S
C308   N311    1.383   .     A
C308   C573    1.436   .     S
C309   N312    1.383   .     A
C309   C345    1.520   .     S
C310   C349    1.520   .     S
C310   N311    1.383   .     A
C310   C571    1.436   .     S
C313   H315    1.109   .     S
C313   H314    1.110   .     S
C313   H316    1.106   .     S
C317   H319    1.106   .     S
C317   H318    1.110   .     S
C317   H320    1.109   .     S
C321   H323    1.110   .     S
C321   H324    1.111   .     S
C321   H322    1.104   .     S
C325   H327    1.111   .     S
C325   H326    1.104   .     S
C325   H328    1.110   .     S
C329   H331    1.110   .     S
C329   H332    1.108   .     S
C329   H330    1.111   .     S
C333   H335    1.108   .     S
C333   H336    1.110   .     S
C333   H334    1.111   .     S
C337   H338    1.079   .     S
C337   H339    1.109   .     S
C337   H340    1.109   .     S
C341   H342    1.079   .     S
C341   H343    1.109   .     S
C341   H344    1.109   .     S
C345   H348    1.109   .     S
C345   H346    1.081   .     S
C345   H347    1.109   .     S
C349   H351    1.109   .     S
C349   H350    1.081   .     S
C349   H352    1.109   .     S
O353   C357    1.306   .     A
O353   Cu365   1.963   .     S
O354   C358    1.306   .     A
O354   Cu366   1.963   .     S
O355   C358    1.306   .     A
O355   Cu365   1.963   .     S
O356   C357    1.306   .     A
O356   Cu366   1.963   .     S
C357   C394    1.451   .     S
C358   C393    1.451   .     S
O359   C363    1.304   .     A
O359   Cu365   1.967   .     S
O360   C364    1.304   .     A
O360   Cu366   1.967   .     S
O361   Cu365   1.968   .     S
O361   C364    1.305   .     A
O362   Cu366   1.968   .     S
O362   C363    1.305   .     A
C363   C370    1.456   .     S
C364   C369    1.456   .     S
Cu365  Cu366   2.727   .     S
Cu365  N399    2.049   .     S
Cu366  N400    2.049   .     S
C367   C369    1.410   .     A
C367   C401    1.521   .     S
C367   C377    1.418   .     A
C368   C405    1.521   .     S
C368   C378    1.418   .     A
C368   C370    1.410   .     A
C369   C371    1.409   .     A
C370   C372    1.409   .     A
C371   C409    1.522   .     S
C371   C373    1.410   .     A
C372   C413    1.522   .     S
C372   C374    1.410   .     A
C373   C379    1.403   .     A
C373   C375    1.415   .     A
C374   C380    1.403   .     A
C374   C376    1.415   .     A
C375   C377    1.424   .     A
C375   C1168   1.418   .     S
C376   C378    1.424   .     A
C376   C1167   1.418   1_554 S
C377   C382    1.422   .     A
C378   C381    1.422   .     A
C379   H383    1.082   .     S
C379   C1173   1.393   .     S
C380   H384    1.082   .     S
C380   C1174   1.393   1_554 S
C381   C417    1.513   .     S
C381   C1171   1.393   1_554 S
C382   C421    1.513   .     S
C382   C1172   1.393   .     S
C385   C394    1.401   .     A
C385   H389    1.083   .     S
C386   C393    1.401   .     A
C386   H390    1.083   .     S
C386   C476    1.384   .     S
C387   C393    1.401   .     A
C387   H391    1.083   .     S
C387   C473    1.384   .     S
C388   C394    1.401   .     A
C388   H392    1.083   .     S
C395   C425    1.518   .     S
C395   N400    1.383   .     A
C396   C429    1.518   .     S
C396   N399    1.383   .     A
C396   C661    1.436   .     S
C397   N400    1.383   .     A
C397   C433    1.520   .     S
C398   C437    1.520   .     S
C398   N399    1.383   .     A
C398   C659    1.436   .     S
C401   H403    1.109   .     S
C401   H402    1.110   .     S
C401   H404    1.106   .     S
C405   H407    1.106   .     S
C405   H406    1.110   .     S
C405   H408    1.109   .     S
C409   H411    1.110   .     S
C409   H412    1.111   .     S
C409   H410    1.104   .     S
C413   H415    1.111   .     S
C413   H414    1.104   .     S
C413   H416    1.110   .     S
C417   H419    1.110   .     S
C417   H420    1.108   .     S
C417   H418    1.111   .     S
C421   H423    1.108   .     S
C421   H424    1.110   .     S
C421   H422    1.111   .     S
C425   H426    1.079   .     S
C425   H427    1.109   .     S
C425   H428    1.109   .     S
C429   H430    1.079   .     S
C429   H431    1.109   .     S
C429   H432    1.109   .     S
C433   H436    1.109   .     S
C433   H434    1.081   .     S
C433   H435    1.109   .     S
C437   H439    1.109   .     S
C437   H438    1.081   .     S
C437   H440    1.109   .     S
O441   C445    1.306   .     A
O441   Cu453   1.963   .     S
O442   C446    1.306   .     A
O442   Cu454   1.963   .     S
O443   C446    1.306   .     A
O443   Cu453   1.963   .     S
O444   C445    1.306   .     A
O444   Cu454   1.963   .     S
C445   C482    1.451   .     S
C446   C481    1.451   .     S
O447   C451    1.304   .     A
O447   Cu453   1.967   .     S
O448   C452    1.304   .     A
O448   Cu454   1.967   .     S
O449   Cu453   1.968   .     S
O449   C452    1.305   .     A
O450   Cu454   1.968   .     S
O450   C451    1.305   .     A
C451   C458    1.456   .     S
C452   C457    1.456   .     S
Cu453  Cu454   2.727   .     S
Cu453  N487    2.049   .     S
Cu454  N488    2.049   .     S
C455   C457    1.410   .     A
C455   C489    1.521   .     S
C455   C465    1.418   .     A
C456   C493    1.521   .     S
C456   C466    1.418   .     A
C456   C458    1.410   .     A
C457   C459    1.409   .     A
C458   C460    1.409   .     A
C459   C497    1.522   .     S
C459   C461    1.410   .     A
C460   C501    1.522   .     S
C460   C462    1.410   .     A
C461   C467    1.403   .     A
C461   C463    1.415   .     A
C462   C468    1.403   .     A
C462   C464    1.415   .     A
C463   C465    1.424   .     A
C463   C1256   1.418   .     S
C464   C466    1.424   .     A
C464   C1255   1.418   1_554 S
C465   C470    1.422   .     A
C466   C469    1.422   .     A
C467   H471    1.082   .     S
C467   C1261   1.393   .     S
C468   H472    1.082   .     S
C468   C1262   1.393   1_554 S
C469   C505    1.513   .     S
C469   C1259   1.393   1_554 S
C470   C509    1.513   .     S
C470   C1260   1.393   .     S
C473   C482    1.401   .     A
C473   H477    1.083   .     S
C474   C481    1.401   .     A
C474   H478    1.083   .     S
C474   C300    1.384   1_655 S
C475   C481    1.401   .     A
C475   H479    1.083   .     S
C475   C297    1.384   1_655 S
C476   C482    1.401   .     A
C476   H480    1.083   .     S
C483   C513    1.518   .     S
C483   N488    1.383   .     A
C484   C517    1.518   .     S
C484   N487    1.383   .     A
C484   C749    1.436   .     S
C485   N488    1.383   .     A
C485   C521    1.520   .     S
C486   C525    1.520   .     S
C486   N487    1.383   .     A
C486   C747    1.436   .     S
C489   H491    1.109   .     S
C489   H490    1.110   .     S
C489   H492    1.106   .     S
C493   H495    1.106   .     S
C493   H494    1.110   .     S
C493   H496    1.109   .     S
C497   H499    1.110   .     S
C497   H500    1.111   .     S
C497   H498    1.104   .     S
C501   H503    1.111   .     S
C501   H502    1.104   .     S
C501   H504    1.110   .     S
C505   H507    1.110   .     S
C505   H508    1.108   .     S
C505   H506    1.111   .     S
C509   H511    1.108   .     S
C509   H512    1.110   .     S
C509   H510    1.111   .     S
C513   H514    1.079   .     S
C513   H515    1.109   .     S
C513   H516    1.109   .     S
C517   H518    1.079   .     S
C517   H519    1.109   .     S
C517   H520    1.109   .     S
C521   H524    1.109   .     S
C521   H522    1.081   .     S
C521   H523    1.109   .     S
C525   H527    1.109   .     S
C525   H526    1.081   .     S
C525   H528    1.109   .     S
O529   C533    1.306   .     A
O529   Cu541   1.963   .     S
O530   C534    1.306   .     A
O530   Cu542   1.963   .     S
O531   C534    1.306   .     A
O531   Cu541   1.963   .     S
O532   C533    1.306   .     A
O532   Cu542   1.963   .     S
C533   C570    1.451   .     S
C534   C569    1.451   .     S
O535   C539    1.304   .     A
O535   Cu541   1.967   .     S
O536   C540    1.304   .     A
O536   Cu542   1.967   .     S
O537   Cu541   1.968   .     S
O537   C540    1.305   .     A
O538   Cu542   1.968   .     S
O538   C539    1.305   .     A
C539   C546    1.456   .     S
C540   C545    1.456   .     S
Cu541  Cu542   2.727   .     S
Cu541  N575    2.049   .     S
Cu542  N576    2.049   .     S
C543   C545    1.410   .     A
C543   C577    1.521   .     S
C543   C553    1.418   .     A
C544   C581    1.521   .     S
C544   C554    1.418   .     A
C544   C546    1.410   .     A
C545   C547    1.409   .     A
C546   C548    1.409   .     A
C547   C585    1.522   .     S
C547   C549    1.410   .     A
C548   C589    1.522   .     S
C548   C550    1.410   .     A
C549   C555    1.403   .     A
C549   C551    1.415   .     A
C550   C556    1.403   .     A
C550   C552    1.415   .     A
C551   C553    1.424   .     A
C551   C1344   1.418   .     S
C552   C554    1.424   .     A
C552   C1343   1.418   1_554 S
C553   C558    1.422   .     A
C554   C557    1.422   .     A
C555   H559    1.082   .     S
C555   C1349   1.393   .     S
C556   H560    1.082   .     S
C556   C1350   1.393   1_554 S
C557   C593    1.513   .     S
C557   C1347   1.393   1_554 S
C558   C597    1.513   .     S
C558   C1348   1.393   .     S
C561   C570    1.401   .     A
C561   H565    1.083   .     S
C561   C739    1.384   1_455 S
C562   C569    1.401   .     A
C562   H566    1.083   .     S
C562   C652    1.384   .     S
C563   C569    1.401   .     A
C563   H567    1.083   .     S
C563   C649    1.384   .     S
C564   C570    1.401   .     A
C564   H568    1.083   .     S
C564   C738    1.384   1_455 S
C571   C601    1.518   .     S
C571   N576    1.383   .     A
C572   C605    1.518   .     S
C572   N575    1.383   .     A
C572   C45     1.436   1_565 S
C573   N576    1.383   .     A
C573   C609    1.520   .     S
C574   C613    1.520   .     S
C574   N575    1.383   .     A
C574   C43     1.436   1_565 S
C577   H579    1.109   .     S
C577   H578    1.110   .     S
C577   H580    1.106   .     S
C581   H583    1.106   .     S
C581   H582    1.110   .     S
C581   H584    1.109   .     S
C585   H587    1.110   .     S
C585   H588    1.111   .     S
C585   H586    1.104   .     S
C589   H591    1.111   .     S
C589   H590    1.104   .     S
C589   H592    1.110   .     S
C593   H595    1.110   .     S
C593   H596    1.108   .     S
C593   H594    1.111   .     S
C597   H599    1.108   .     S
C597   H600    1.110   .     S
C597   H598    1.111   .     S
C601   H602    1.079   .     S
C601   H603    1.109   .     S
C601   H604    1.109   .     S
C605   H606    1.079   .     S
C605   H607    1.109   .     S
C605   H608    1.109   .     S
C609   H612    1.109   .     S
C609   H610    1.081   .     S
C609   H611    1.109   .     S
C613   H615    1.109   .     S
C613   H614    1.081   .     S
C613   H616    1.109   .     S
O617   C621    1.306   .     A
O617   Cu629   1.963   .     S
O618   C622    1.306   .     A
O618   Cu630   1.963   .     S
O619   C622    1.306   .     A
O619   Cu629   1.963   .     S
O620   C621    1.306   .     A
O620   Cu630   1.963   .     S
C621   C658    1.451   .     S
C622   C657    1.451   .     S
O623   C627    1.304   .     A
O623   Cu629   1.967   .     S
O624   C628    1.304   .     A
O624   Cu630   1.967   .     S
O625   Cu629   1.968   .     S
O625   C628    1.305   .     A
O626   Cu630   1.968   .     S
O626   C627    1.305   .     A
C627   C634    1.456   .     S
C628   C633    1.456   .     S
Cu629  Cu630   2.727   .     S
Cu629  N663    2.049   .     S
Cu630  N664    2.049   .     S
C631   C633    1.410   .     A
C631   C665    1.521   .     S
C631   C641    1.418   .     A
C632   C669    1.521   .     S
C632   C642    1.418   .     A
C632   C634    1.410   .     A
C633   C635    1.409   .     A
C634   C636    1.409   .     A
C635   C673    1.522   .     S
C635   C637    1.410   .     A
C636   C677    1.522   .     S
C636   C638    1.410   .     A
C637   C643    1.403   .     A
C637   C639    1.415   .     A
C638   C644    1.403   .     A
C638   C640    1.415   .     A
C639   C641    1.424   .     A
C639   C1432   1.418   .     S
C640   C642    1.424   .     A
C640   C1431   1.418   1_554 S
C641   C646    1.422   .     A
C642   C645    1.422   .     A
C643   H647    1.082   .     S
C643   C1437   1.393   .     S
C644   H648    1.082   .     S
C644   C1438   1.393   1_554 S
C645   C681    1.513   .     S
C645   C1435   1.393   1_554 S
C646   C685    1.513   .     S
C646   C1436   1.393   .     S
C649   C658    1.401   .     A
C649   H653    1.083   .     S
C650   C657    1.401   .     A
C650   H654    1.083   .     S
C650   C740    1.384   .     S
C651   C657    1.401   .     A
C651   H655    1.083   .     S
C651   C737    1.384   .     S
C652   C658    1.401   .     A
C652   H656    1.083   .     S
C659   C689    1.518   .     S
C659   N664    1.383   .     A
C660   C693    1.518   .     S
C660   N663    1.383   .     A
C660   C133    1.436   1_565 S
C661   N664    1.383   .     A
C661   C697    1.520   .     S
C662   C701    1.520   .     S
C662   N663    1.383   .     A
C662   C131    1.436   1_565 S
C665   H667    1.109   .     S
C665   H666    1.110   .     S
C665   H668    1.106   .     S
C669   H671    1.106   .     S
C669   H670    1.110   .     S
C669   H672    1.109   .     S
C673   H675    1.110   .     S
C673   H676    1.111   .     S
C673   H674    1.104   .     S
C677   H679    1.111   .     S
C677   H678    1.104   .     S
C677   H680    1.110   .     S
C681   H683    1.110   .     S
C681   H684    1.108   .     S
C681   H682    1.111   .     S
C685   H687    1.108   .     S
C685   H688    1.110   .     S
C685   H686    1.111   .     S
C689   H690    1.079   .     S
C689   H691    1.109   .     S
C689   H692    1.109   .     S
C693   H694    1.079   .     S
C693   H695    1.109   .     S
C693   H696    1.109   .     S
C697   H700    1.109   .     S
C697   H698    1.081   .     S
C697   H699    1.109   .     S
C701   H703    1.109   .     S
C701   H702    1.081   .     S
C701   H704    1.109   .     S
O705   C709    1.306   .     A
O705   Cu717   1.963   .     S
O706   C710    1.306   .     A
O706   Cu718   1.963   .     S
O707   C710    1.306   .     A
O707   Cu717   1.963   .     S
O708   C709    1.306   .     A
O708   Cu718   1.963   .     S
C709   C746    1.451   .     S
C710   C745    1.451   .     S
O711   C715    1.304   .     A
O711   Cu717   1.967   .     S
O712   C716    1.304   .     A
O712   Cu718   1.967   .     S
O713   Cu717   1.968   .     S
O713   C716    1.305   .     A
O714   Cu718   1.968   .     S
O714   C715    1.305   .     A
C715   C722    1.456   .     S
C716   C721    1.456   .     S
Cu717  Cu718   2.727   .     S
Cu717  N751    2.049   .     S
Cu718  N752    2.049   .     S
C719   C721    1.410   .     A
C719   C753    1.521   .     S
C719   C729    1.418   .     A
C720   C757    1.521   .     S
C720   C730    1.418   .     A
C720   C722    1.410   .     A
C721   C723    1.409   .     A
C722   C724    1.409   .     A
C723   C761    1.522   .     S
C723   C725    1.410   .     A
C724   C765    1.522   .     S
C724   C726    1.410   .     A
C725   C731    1.403   .     A
C725   C727    1.415   .     A
C726   C732    1.403   .     A
C726   C728    1.415   .     A
C727   C729    1.424   .     A
C727   C1520   1.418   .     S
C728   C730    1.424   .     A
C728   C1519   1.418   1_554 S
C729   C734    1.422   .     A
C730   C733    1.422   .     A
C731   H735    1.082   .     S
C731   C1525   1.393   .     S
C732   H736    1.082   .     S
C732   C1526   1.393   1_554 S
C733   C769    1.513   .     S
C733   C1523   1.393   1_554 S
C734   C773    1.513   .     S
C734   C1524   1.393   .     S
C737   C746    1.401   .     A
C737   H741    1.083   .     S
C738   C745    1.401   .     A
C738   H742    1.083   .     S
C738   C564    1.384   1_655 S
C739   C745    1.401   .     A
C739   H743    1.083   .     S
C739   C561    1.384   1_655 S
C740   C746    1.401   .     A
C740   H744    1.083   .     S
C747   C777    1.518   .     S
C747   N752    1.383   .     A
C748   C781    1.518   .     S
C748   N751    1.383   .     A
C748   C221    1.436   1_565 S
C749   N752    1.383   .     A
C749   C785    1.520   .     S
C750   C789    1.520   .     S
C750   N751    1.383   .     A
C750   C219    1.436   1_565 S
C753   H755    1.109   .     S
C753   H754    1.110   .     S
C753   H756    1.106   .     S
C757   H759    1.106   .     S
C757   H758    1.110   .     S
C757   H760    1.109   .     S
C761   H763    1.110   .     S
C761   H764    1.111   .     S
C761   H762    1.104   .     S
C765   H767    1.111   .     S
C765   H766    1.104   .     S
C765   H768    1.110   .     S
C769   H771    1.110   .     S
C769   H772    1.108   .     S
C769   H770    1.111   .     S
C773   H775    1.108   .     S
C773   H776    1.110   .     S
C773   H774    1.111   .     S
C777   H778    1.079   .     S
C777   H779    1.109   .     S
C777   H780    1.109   .     S
C781   H782    1.079   .     S
C781   H783    1.109   .     S
C781   H784    1.109   .     S
C785   H788    1.109   .     S
C785   H786    1.081   .     S
C785   H787    1.109   .     S
C789   H791    1.109   .     S
C789   H790    1.081   .     S
C789   H792    1.109   .     S
O793   C797    1.306   .     A
O793   Cu805   1.963   .     S
O794   C798    1.306   .     A
O794   Cu806   1.963   .     S
O795   C798    1.306   .     A
O795   Cu805   1.963   .     S
O796   C797    1.306   .     A
O796   Cu806   1.963   .     S
C797   C834    1.451   .     S
C798   C833    1.451   .     S
O799   C803    1.304   .     A
O799   Cu805   1.967   .     S
O800   C804    1.304   .     A
O800   Cu806   1.967   .     S
O801   Cu805   1.968   .     S
O801   C804    1.305   .     A
O802   Cu806   1.968   .     S
O802   C803    1.305   .     A
C803   C810    1.456   .     S
C804   C809    1.456   .     S
Cu805  Cu806   2.727   .     S
Cu805  N839    2.049   .     S
Cu806  N840    2.049   .     S
C807   C809    1.410   .     A
C807   C841    1.521   .     S
C807   C817    1.418   .     A
C808   C845    1.521   .     S
C808   C818    1.418   .     A
C808   C810    1.410   .     A
C809   C811    1.409   .     A
C810   C812    1.409   .     A
C811   C849    1.522   .     S
C811   C813    1.410   .     A
C812   C853    1.522   .     S
C812   C814    1.410   .     A
C813   C819    1.403   .     A
C813   C815    1.415   .     A
C814   C820    1.403   .     A
C814   C816    1.415   .     A
C815   C817    1.424   .     A
C815   C24     1.418   1_556 S
C816   C818    1.424   .     A
C817   C822    1.422   .     A
C818   C821    1.422   .     A
C819   H823    1.082   .     S
C819   C29     1.393   1_556 S
C820   H824    1.082   .     S
C821   C857    1.513   .     S
C822   C861    1.513   .     S
C822   C28     1.393   1_556 S
C825   C834    1.401   .     A
C825   H829    1.083   .     S
C825   C1003   1.384   1_455 S
C826   C833    1.401   .     A
C826   H830    1.083   .     S
C826   C916    1.384   .     S
C827   C833    1.401   .     A
C827   H831    1.083   .     S
C827   C913    1.384   .     S
C828   C834    1.401   .     A
C828   H832    1.083   .     S
C828   C1002   1.384   1_455 S
C835   C865    1.518   .     S
C835   N840    1.383   .     A
C835   C1366   1.436   1_545 S
C836   C869    1.518   .     S
C836   N839    1.383   .     A
C836   C1101   1.436   .     S
C837   N840    1.383   .     A
C837   C873    1.520   .     S
C837   C1364   1.436   1_545 S
C838   C877    1.520   .     S
C838   N839    1.383   .     A
C838   C1099   1.436   .     S
C841   H843    1.109   .     S
C841   H842    1.110   .     S
C841   H844    1.106   .     S
C845   H847    1.106   .     S
C845   H846    1.110   .     S
C845   H848    1.109   .     S
C849   H851    1.110   .     S
C849   H852    1.111   .     S
C849   H850    1.104   .     S
C853   H855    1.111   .     S
C853   H854    1.104   .     S
C853   H856    1.110   .     S
C857   H859    1.110   .     S
C857   H860    1.108   .     S
C857   H858    1.111   .     S
C861   H863    1.108   .     S
C861   H864    1.110   .     S
C861   H862    1.111   .     S
C865   H866    1.079   .     S
C865   H867    1.109   .     S
C865   H868    1.109   .     S
C869   H870    1.079   .     S
C869   H871    1.109   .     S
C869   H872    1.109   .     S
C873   H876    1.109   .     S
C873   H874    1.081   .     S
C873   H875    1.109   .     S
C877   H879    1.109   .     S
C877   H878    1.081   .     S
C877   H880    1.109   .     S
O881   C885    1.306   .     A
O881   Cu893   1.963   .     S
O882   C886    1.306   .     A
O882   Cu894   1.963   .     S
O883   C886    1.306   .     A
O883   Cu893   1.963   .     S
O884   C885    1.306   .     A
O884   Cu894   1.963   .     S
C885   C922    1.451   .     S
C886   C921    1.451   .     S
O887   C891    1.304   .     A
O887   Cu893   1.967   .     S
O888   C892    1.304   .     A
O888   Cu894   1.967   .     S
O889   Cu893   1.968   .     S
O889   C892    1.305   .     A
O890   Cu894   1.968   .     S
O890   C891    1.305   .     A
C891   C898    1.456   .     S
C892   C897    1.456   .     S
Cu893  Cu894   2.727   .     S
Cu893  N927    2.049   .     S
Cu894  N928    2.049   .     S
C895   C897    1.410   .     A
C895   C929    1.521   .     S
C895   C905    1.418   .     A
C896   C933    1.521   .     S
C896   C906    1.418   .     A
C896   C898    1.410   .     A
C897   C899    1.409   .     A
C898   C900    1.409   .     A
C899   C937    1.522   .     S
C899   C901    1.410   .     A
C900   C941    1.522   .     S
C900   C902    1.410   .     A
C901   C907    1.403   .     A
C901   C903    1.415   .     A
C902   C908    1.403   .     A
C902   C904    1.415   .     A
C903   C905    1.424   .     A
C903   C112    1.418   1_556 S
C904   C906    1.424   .     A
C905   C910    1.422   .     A
C906   C909    1.422   .     A
C907   H911    1.082   .     S
C907   C117    1.393   1_556 S
C908   H912    1.082   .     S
C909   C945    1.513   .     S
C910   C949    1.513   .     S
C910   C116    1.393   1_556 S
C913   C922    1.401   .     A
C913   H917    1.083   .     S
C914   C921    1.401   .     A
C914   H918    1.083   .     S
C914   C1004   1.384   .     S
C915   C921    1.401   .     A
C915   H919    1.083   .     S
C915   C1001   1.384   .     S
C916   C922    1.401   .     A
C916   H920    1.083   .     S
C923   C953    1.518   .     S
C923   N928    1.383   .     A
C923   C1454   1.436   1_545 S
C924   C957    1.518   .     S
C924   N927    1.383   .     A
C924   C1189   1.436   .     S
C925   N928    1.383   .     A
C925   C961    1.520   .     S
C925   C1452   1.436   1_545 S
C926   C965    1.520   .     S
C926   N927    1.383   .     A
C926   C1187   1.436   .     S
C929   H931    1.109   .     S
C929   H930    1.110   .     S
C929   H932    1.106   .     S
C933   H935    1.106   .     S
C933   H934    1.110   .     S
C933   H936    1.109   .     S
C937   H939    1.110   .     S
C937   H940    1.111   .     S
C937   H938    1.104   .     S
C941   H943    1.111   .     S
C941   H942    1.104   .     S
C941   H944    1.110   .     S
C945   H947    1.110   .     S
C945   H948    1.108   .     S
C945   H946    1.111   .     S
C949   H951    1.108   .     S
C949   H952    1.110   .     S
C949   H950    1.111   .     S
C953   H954    1.079   .     S
C953   H955    1.109   .     S
C953   H956    1.109   .     S
C957   H958    1.079   .     S
C957   H959    1.109   .     S
C957   H960    1.109   .     S
C961   H964    1.109   .     S
C961   H962    1.081   .     S
C961   H963    1.109   .     S
C965   H967    1.109   .     S
C965   H966    1.081   .     S
C965   H968    1.109   .     S
O969   C973    1.306   .     A
O969   Cu981   1.963   .     S
O970   C974    1.306   .     A
O970   Cu982   1.963   .     S
O971   C974    1.306   .     A
O971   Cu981   1.963   .     S
O972   C973    1.306   .     A
O972   Cu982   1.963   .     S
C973   C1010   1.451   .     S
C974   C1009   1.451   .     S
O975   C979    1.304   .     A
O975   Cu981   1.967   .     S
O976   C980    1.304   .     A
O976   Cu982   1.967   .     S
O977   Cu981   1.968   .     S
O977   C980    1.305   .     A
O978   Cu982   1.968   .     S
O978   C979    1.305   .     A
C979   C986    1.456   .     S
C980   C985    1.456   .     S
Cu981  Cu982   2.727   .     S
Cu981  N1015   2.049   .     S
Cu982  N1016   2.049   .     S
C983   C985    1.410   .     A
C983   C1017   1.521   .     S
C983   C993    1.418   .     A
C984   C1021   1.521   .     S
C984   C994    1.418   .     A
C984   C986    1.410   .     A
C985   C987    1.409   .     A
C986   C988    1.409   .     A
C987   C1025   1.522   .     S
C987   C989    1.410   .     A
C988   C1029   1.522   .     S
C988   C990    1.410   .     A
C989   C995    1.403   .     A
C989   C991    1.415   .     A
C990   C996    1.403   .     A
C990   C992    1.415   .     A
C991   C993    1.424   .     A
C991   C200    1.418   1_556 S
C992   C994    1.424   .     A
C993   C998    1.422   .     A
C994   C997    1.422   .     A
C995   H999    1.082   .     S
C995   C205    1.393   1_556 S
C996   H1000   1.082   .     S
C997   C1033   1.513   .     S
C998   C1037   1.513   .     S
C998   C204    1.393   1_556 S
C1001  C1010   1.401   .     A
C1001  H1005   1.083   .     S
C1002  C1009   1.401   .     A
C1002  H1006   1.083   .     S
C1002  C828    1.384   1_655 S
C1003  C1009   1.401   .     A
C1003  H1007   1.083   .     S
C1003  C825    1.384   1_655 S
C1004  C1010   1.401   .     A
C1004  H1008   1.083   .     S
C1011  C1041   1.518   .     S
C1011  N1016   1.383   .     A
C1011  C1542   1.436   1_545 S
C1012  C1045   1.518   .     S
C1012  N1015   1.383   .     A
C1012  C1277   1.436   .     S
C1013  N1016   1.383   .     A
C1013  C1049   1.520   .     S
C1013  C1540   1.436   1_545 S
C1014  C1053   1.520   .     S
C1014  N1015   1.383   .     A
C1014  C1275   1.436   .     S
C1017  H1019   1.109   .     S
C1017  H1018   1.110   .     S
C1017  H1020   1.106   .     S
C1021  H1023   1.106   .     S
C1021  H1022   1.110   .     S
C1021  H1024   1.109   .     S
C1025  H1027   1.110   .     S
C1025  H1028   1.111   .     S
C1025  H1026   1.104   .     S
C1029  H1031   1.111   .     S
C1029  H1030   1.104   .     S
C1029  H1032   1.110   .     S
C1033  H1035   1.110   .     S
C1033  H1036   1.108   .     S
C1033  H1034   1.111   .     S
C1037  H1039   1.108   .     S
C1037  H1040   1.110   .     S
C1037  H1038   1.111   .     S
C1041  H1042   1.079   .     S
C1041  H1043   1.109   .     S
C1041  H1044   1.109   .     S
C1045  H1046   1.079   .     S
C1045  H1047   1.109   .     S
C1045  H1048   1.109   .     S
C1049  H1052   1.109   .     S
C1049  H1050   1.081   .     S
C1049  H1051   1.109   .     S
C1053  H1055   1.109   .     S
C1053  H1054   1.081   .     S
C1053  H1056   1.109   .     S
O1057  C1061   1.306   .     A
O1057  Cu1069  1.963   .     S
O1058  C1062   1.306   .     A
O1058  Cu1070  1.963   .     S
O1059  C1062   1.306   .     A
O1059  Cu1069  1.963   .     S
O1060  C1061   1.306   .     A
O1060  Cu1070  1.963   .     S
C1061  C1098   1.451   .     S
C1062  C1097   1.451   .     S
O1063  C1067   1.304   .     A
O1063  Cu1069  1.967   .     S
O1064  C1068   1.304   .     A
O1064  Cu1070  1.967   .     S
O1065  Cu1069  1.968   .     S
O1065  C1068   1.305   .     A
O1066  Cu1070  1.968   .     S
O1066  C1067   1.305   .     A
C1067  C1074   1.456   .     S
C1068  C1073   1.456   .     S
Cu1069 Cu1070  2.727   .     S
Cu1069 N1103   2.049   .     S
Cu1070 N1104   2.049   .     S
C1071  C1073   1.410   .     A
C1071  C1105   1.521   .     S
C1071  C1081   1.418   .     A
C1072  C1109   1.521   .     S
C1072  C1082   1.418   .     A
C1072  C1074   1.410   .     A
C1073  C1075   1.409   .     A
C1074  C1076   1.409   .     A
C1075  C1113   1.522   .     S
C1075  C1077   1.410   .     A
C1076  C1117   1.522   .     S
C1076  C1078   1.410   .     A
C1077  C1083   1.403   .     A
C1077  C1079   1.415   .     A
C1078  C1084   1.403   .     A
C1078  C1080   1.415   .     A
C1079  C1081   1.424   .     A
C1079  C288    1.418   1_556 S
C1080  C1082   1.424   .     A
C1081  C1086   1.422   .     A
C1082  C1085   1.422   .     A
C1083  H1087   1.082   .     S
C1083  C293    1.393   1_556 S
C1084  H1088   1.082   .     S
C1085  C1121   1.513   .     S
C1086  C1125   1.513   .     S
C1086  C292    1.393   1_556 S
C1089  C1098   1.401   .     A
C1089  H1093   1.083   .     S
C1089  C1267   1.384   1_455 S
C1090  C1097   1.401   .     A
C1090  H1094   1.083   .     S
C1090  C1180   1.384   .     S
C1091  C1097   1.401   .     A
C1091  H1095   1.083   .     S
C1091  C1177   1.384   .     S
C1092  C1098   1.401   .     A
C1092  H1096   1.083   .     S
C1092  C1266   1.384   1_455 S
C1099  C1129   1.518   .     S
C1099  N1104   1.383   .     A
C1100  C1133   1.518   .     S
C1100  N1103   1.383   .     A
C1100  C1365   1.436   .     S
C1101  N1104   1.383   .     A
C1101  C1137   1.520   .     S
C1102  C1141   1.520   .     S
C1102  N1103   1.383   .     A
C1102  C1363   1.436   .     S
C1105  H1107   1.109   .     S
C1105  H1106   1.110   .     S
C1105  H1108   1.106   .     S
C1109  H1111   1.106   .     S
C1109  H1110   1.110   .     S
C1109  H1112   1.109   .     S
C1113  H1115   1.110   .     S
C1113  H1116   1.111   .     S
C1113  H1114   1.104   .     S
C1117  H1119   1.111   .     S
C1117  H1118   1.104   .     S
C1117  H1120   1.110   .     S
C1121  H1123   1.110   .     S
C1121  H1124   1.108   .     S
C1121  H1122   1.111   .     S
C1125  H1127   1.108   .     S
C1125  H1128   1.110   .     S
C1125  H1126   1.111   .     S
C1129  H1130   1.079   .     S
C1129  H1131   1.109   .     S
C1129  H1132   1.109   .     S
C1133  H1134   1.079   .     S
C1133  H1135   1.109   .     S
C1133  H1136   1.109   .     S
C1137  H1140   1.109   .     S
C1137  H1138   1.081   .     S
C1137  H1139   1.109   .     S
C1141  H1143   1.109   .     S
C1141  H1142   1.081   .     S
C1141  H1144   1.109   .     S
O1145  C1149   1.306   .     A
O1145  Cu1157  1.963   .     S
O1146  C1150   1.306   .     A
O1146  Cu1158  1.963   .     S
O1147  C1150   1.306   .     A
O1147  Cu1157  1.963   .     S
O1148  C1149   1.306   .     A
O1148  Cu1158  1.963   .     S
C1149  C1186   1.451   .     S
C1150  C1185   1.451   .     S
O1151  C1155   1.304   .     A
O1151  Cu1157  1.967   .     S
O1152  C1156   1.304   .     A
O1152  Cu1158  1.967   .     S
O1153  Cu1157  1.968   .     S
O1153  C1156   1.305   .     A
O1154  Cu1158  1.968   .     S
O1154  C1155   1.305   .     A
C1155  C1162   1.456   .     S
C1156  C1161   1.456   .     S
Cu1157 Cu1158  2.727   .     S
Cu1157 N1191   2.049   .     S
Cu1158 N1192   2.049   .     S
C1159  C1161   1.410   .     A
C1159  C1193   1.521   .     S
C1159  C1169   1.418   .     A
C1160  C1197   1.521   .     S
C1160  C1170   1.418   .     A
C1160  C1162   1.410   .     A
C1161  C1163   1.409   .     A
C1162  C1164   1.409   .     A
C1163  C1201   1.522   .     S
C1163  C1165   1.410   .     A
C1164  C1205   1.522   .     S
C1164  C1166   1.410   .     A
C1165  C1171   1.403   .     A
C1165  C1167   1.415   .     A
C1166  C1172   1.403   .     A
C1166  C1168   1.415   .     A
C1167  C1169   1.424   .     A
C1167  C376    1.418   1_556 S
C1168  C1170   1.424   .     A
C1169  C1174   1.422   .     A
C1170  C1173   1.422   .     A
C1171  H1175   1.082   .     S
C1171  C381    1.393   1_556 S
C1172  H1176   1.082   .     S
C1173  C1209   1.513   .     S
C1174  C1213   1.513   .     S
C1174  C380    1.393   1_556 S
C1177  C1186   1.401   .     A
C1177  H1181   1.083   .     S
C1178  C1185   1.401   .     A
C1178  H1182   1.083   .     S
C1178  C1268   1.384   .     S
C1179  C1185   1.401   .     A
C1179  H1183   1.083   .     S
C1179  C1265   1.384   .     S
C1180  C1186   1.401   .     A
C1180  H1184   1.083   .     S
C1187  C1217   1.518   .     S
C1187  N1192   1.383   .     A
C1188  C1221   1.518   .     S
C1188  N1191   1.383   .     A
C1188  C1453   1.436   .     S
C1189  N1192   1.383   .     A
C1189  C1225   1.520   .     S
C1190  C1229   1.520   .     S
C1190  N1191   1.383   .     A
C1190  C1451   1.436   .     S
C1193  H1195   1.109   .     S
C1193  H1194   1.110   .     S
C1193  H1196   1.106   .     S
C1197  H1199   1.106   .     S
C1197  H1198   1.110   .     S
C1197  H1200   1.109   .     S
C1201  H1203   1.110   .     S
C1201  H1204   1.111   .     S
C1201  H1202   1.104   .     S
C1205  H1207   1.111   .     S
C1205  H1206   1.104   .     S
C1205  H1208   1.110   .     S
C1209  H1211   1.110   .     S
C1209  H1212   1.108   .     S
C1209  H1210   1.111   .     S
C1213  H1215   1.108   .     S
C1213  H1216   1.110   .     S
C1213  H1214   1.111   .     S
C1217  H1218   1.079   .     S
C1217  H1219   1.109   .     S
C1217  H1220   1.109   .     S
C1221  H1222   1.079   .     S
C1221  H1223   1.109   .     S
C1221  H1224   1.109   .     S
C1225  H1228   1.109   .     S
C1225  H1226   1.081   .     S
C1225  H1227   1.109   .     S
C1229  H1231   1.109   .     S
C1229  H1230   1.081   .     S
C1229  H1232   1.109   .     S
O1233  C1237   1.306   .     A
O1233  Cu1245  1.963   .     S
O1234  C1238   1.306   .     A
O1234  Cu1246  1.963   .     S
O1235  C1238   1.306   .     A
O1235  Cu1245  1.963   .     S
O1236  C1237   1.306   .     A
O1236  Cu1246  1.963   .     S
C1237  C1274   1.451   .     S
C1238  C1273   1.451   .     S
O1239  C1243   1.304   .     A
O1239  Cu1245  1.967   .     S
O1240  C1244   1.304   .     A
O1240  Cu1246  1.967   .     S
O1241  Cu1245  1.968   .     S
O1241  C1244   1.305   .     A
O1242  Cu1246  1.968   .     S
O1242  C1243   1.305   .     A
C1243  C1250   1.456   .     S
C1244  C1249   1.456   .     S
Cu1245 Cu1246  2.727   .     S
Cu1245 N1279   2.049   .     S
Cu1246 N1280   2.049   .     S
C1247  C1249   1.410   .     A
C1247  C1281   1.521   .     S
C1247  C1257   1.418   .     A
C1248  C1285   1.521   .     S
C1248  C1258   1.418   .     A
C1248  C1250   1.410   .     A
C1249  C1251   1.409   .     A
C1250  C1252   1.409   .     A
C1251  C1289   1.522   .     S
C1251  C1253   1.410   .     A
C1252  C1293   1.522   .     S
C1252  C1254   1.410   .     A
C1253  C1259   1.403   .     A
C1253  C1255   1.415   .     A
C1254  C1260   1.403   .     A
C1254  C1256   1.415   .     A
C1255  C1257   1.424   .     A
C1255  C464    1.418   1_556 S
C1256  C1258   1.424   .     A
C1257  C1262   1.422   .     A
C1258  C1261   1.422   .     A
C1259  H1263   1.082   .     S
C1259  C469    1.393   1_556 S
C1260  H1264   1.082   .     S
C1261  C1297   1.513   .     S
C1262  C1301   1.513   .     S
C1262  C468    1.393   1_556 S
C1265  C1274   1.401   .     A
C1265  H1269   1.083   .     S
C1266  C1273   1.401   .     A
C1266  H1270   1.083   .     S
C1266  C1092   1.384   1_655 S
C1267  C1273   1.401   .     A
C1267  H1271   1.083   .     S
C1267  C1089   1.384   1_655 S
C1268  C1274   1.401   .     A
C1268  H1272   1.083   .     S
C1275  C1305   1.518   .     S
C1275  N1280   1.383   .     A
C1276  C1309   1.518   .     S
C1276  N1279   1.383   .     A
C1276  C1541   1.436   .     S
C1277  N1280   1.383   .     A
C1277  C1313   1.520   .     S
C1278  C1317   1.520   .     S
C1278  N1279   1.383   .     A
C1278  C1539   1.436   .     S
C1281  H1283   1.109   .     S
C1281  H1282   1.110   .     S
C1281  H1284   1.106   .     S
C1285  H1287   1.106   .     S
C1285  H1286   1.110   .     S
C1285  H1288   1.109   .     S
C1289  H1291   1.110   .     S
C1289  H1292   1.111   .     S
C1289  H1290   1.104   .     S
C1293  H1295   1.111   .     S
C1293  H1294   1.104   .     S
C1293  H1296   1.110   .     S
C1297  H1299   1.110   .     S
C1297  H1300   1.108   .     S
C1297  H1298   1.111   .     S
C1301  H1303   1.108   .     S
C1301  H1304   1.110   .     S
C1301  H1302   1.111   .     S
C1305  H1306   1.079   .     S
C1305  H1307   1.109   .     S
C1305  H1308   1.109   .     S
C1309  H1310   1.079   .     S
C1309  H1311   1.109   .     S
C1309  H1312   1.109   .     S
C1313  H1316   1.109   .     S
C1313  H1314   1.081   .     S
C1313  H1315   1.109   .     S
C1317  H1319   1.109   .     S
C1317  H1318   1.081   .     S
C1317  H1320   1.109   .     S
O1321  C1325   1.306   .     A
O1321  Cu1333  1.963   .     S
O1322  C1326   1.306   .     A
O1322  Cu1334  1.963   .     S
O1323  C1326   1.306   .     A
O1323  Cu1333  1.963   .     S
O1324  C1325   1.306   .     A
O1324  Cu1334  1.963   .     S
C1325  C1362   1.451   .     S
C1326  C1361   1.451   .     S
O1327  C1331   1.304   .     A
O1327  Cu1333  1.967   .     S
O1328  C1332   1.304   .     A
O1328  Cu1334  1.967   .     S
O1329  Cu1333  1.968   .     S
O1329  C1332   1.305   .     A
O1330  Cu1334  1.968   .     S
O1330  C1331   1.305   .     A
C1331  C1338   1.456   .     S
C1332  C1337   1.456   .     S
Cu1333 Cu1334  2.727   .     S
Cu1333 N1367   2.049   .     S
Cu1334 N1368   2.049   .     S
C1335  C1337   1.410   .     A
C1335  C1369   1.521   .     S
C1335  C1345   1.418   .     A
C1336  C1373   1.521   .     S
C1336  C1346   1.418   .     A
C1336  C1338   1.410   .     A
C1337  C1339   1.409   .     A
C1338  C1340   1.409   .     A
C1339  C1377   1.522   .     S
C1339  C1341   1.410   .     A
C1340  C1381   1.522   .     S
C1340  C1342   1.410   .     A
C1341  C1347   1.403   .     A
C1341  C1343   1.415   .     A
C1342  C1348   1.403   .     A
C1342  C1344   1.415   .     A
C1343  C1345   1.424   .     A
C1343  C552    1.418   1_556 S
C1344  C1346   1.424   .     A
C1345  C1350   1.422   .     A
C1346  C1349   1.422   .     A
C1347  H1351   1.082   .     S
C1347  C557    1.393   1_556 S
C1348  H1352   1.082   .     S
C1349  C1385   1.513   .     S
C1350  C1389   1.513   .     S
C1350  C556    1.393   1_556 S
C1353  C1362   1.401   .     A
C1353  H1357   1.083   .     S
C1353  C1531   1.384   1_455 S
C1354  C1361   1.401   .     A
C1354  H1358   1.083   .     S
C1354  C1444   1.384   .     S
C1355  C1361   1.401   .     A
C1355  H1359   1.083   .     S
C1355  C1441   1.384   .     S
C1356  C1362   1.401   .     A
C1356  H1360   1.083   .     S
C1356  C1530   1.384   1_455 S
C1363  C1393   1.518   .     S
C1363  N1368   1.383   .     A
C1364  C1397   1.518   .     S
C1364  N1367   1.383   .     A
C1364  C837    1.436   1_565 S
C1365  N1368   1.383   .     A
C1365  C1401   1.520   .     S
C1366  C1405   1.520   .     S
C1366  N1367   1.383   .     A
C1366  C835    1.436   1_565 S
C1369  H1371   1.109   .     S
C1369  H1370   1.110   .     S
C1369  H1372   1.106   .     S
C1373  H1375   1.106   .     S
C1373  H1374   1.110   .     S
C1373  H1376   1.109   .     S
C1377  H1379   1.110   .     S
C1377  H1380   1.111   .     S
C1377  H1378   1.104   .     S
C1381  H1383   1.111   .     S
C1381  H1382   1.104   .     S
C1381  H1384   1.110   .     S
C1385  H1387   1.110   .     S
C1385  H1388   1.108   .     S
C1385  H1386   1.111   .     S
C1389  H1391   1.108   .     S
C1389  H1392   1.110   .     S
C1389  H1390   1.111   .     S
C1393  H1394   1.079   .     S
C1393  H1395   1.109   .     S
C1393  H1396   1.109   .     S
C1397  H1398   1.079   .     S
C1397  H1399   1.109   .     S
C1397  H1400   1.109   .     S
C1401  H1404   1.109   .     S
C1401  H1402   1.081   .     S
C1401  H1403   1.109   .     S
C1405  H1407   1.109   .     S
C1405  H1406   1.081   .     S
C1405  H1408   1.109   .     S
O1409  C1413   1.306   .     A
O1409  Cu1421  1.963   .     S
O1410  C1414   1.306   .     A
O1410  Cu1422  1.963   .     S
O1411  C1414   1.306   .     A
O1411  Cu1421  1.963   .     S
O1412  C1413   1.306   .     A
O1412  Cu1422  1.963   .     S
C1413  C1450   1.451   .     S
C1414  C1449   1.451   .     S
O1415  C1419   1.304   .     A
O1415  Cu1421  1.967   .     S
O1416  C1420   1.304   .     A
O1416  Cu1422  1.967   .     S
O1417  Cu1421  1.968   .     S
O1417  C1420   1.305   .     A
O1418  Cu1422  1.968   .     S
O1418  C1419   1.305   .     A
C1419  C1426   1.456   .     S
C1420  C1425   1.456   .     S
Cu1421 Cu1422  2.727   .     S
Cu1421 N1455   2.049   .     S
Cu1422 N1456   2.049   .     S
C1423  C1425   1.410   .     A
C1423  C1457   1.521   .     S
C1423  C1433   1.418   .     A
C1424  C1461   1.521   .     S
C1424  C1434   1.418   .     A
C1424  C1426   1.410   .     A
C1425  C1427   1.409   .     A
C1426  C1428   1.409   .     A
C1427  C1465   1.522   .     S
C1427  C1429   1.410   .     A
C1428  C1469   1.522   .     S
C1428  C1430   1.410   .     A
C1429  C1435   1.403   .     A
C1429  C1431   1.415   .     A
C1430  C1436   1.403   .     A
C1430  C1432   1.415   .     A
C1431  C1433   1.424   .     A
C1431  C640    1.418   1_556 S
C1432  C1434   1.424   .     A
C1433  C1438   1.422   .     A
C1434  C1437   1.422   .     A
C1435  H1439   1.082   .     S
C1435  C645    1.393   1_556 S
C1436  H1440   1.082   .     S
C1437  C1473   1.513   .     S
C1438  C1477   1.513   .     S
C1438  C644    1.393   1_556 S
C1441  C1450   1.401   .     A
C1441  H1445   1.083   .     S
C1442  C1449   1.401   .     A
C1442  H1446   1.083   .     S
C1442  C1532   1.384   .     S
C1443  C1449   1.401   .     A
C1443  H1447   1.083   .     S
C1443  C1529   1.384   .     S
C1444  C1450   1.401   .     A
C1444  H1448   1.083   .     S
C1451  C1481   1.518   .     S
C1451  N1456   1.383   .     A
C1452  C1485   1.518   .     S
C1452  N1455   1.383   .     A
C1452  C925    1.436   1_565 S
C1453  N1456   1.383   .     A
C1453  C1489   1.520   .     S
C1454  C1493   1.520   .     S
C1454  N1455   1.383   .     A
C1454  C923    1.436   1_565 S
C1457  H1459   1.109   .     S
C1457  H1458   1.110   .     S
C1457  H1460   1.106   .     S
C1461  H1463   1.106   .     S
C1461  H1462   1.110   .     S
C1461  H1464   1.109   .     S
C1465  H1467   1.110   .     S
C1465  H1468   1.111   .     S
C1465  H1466   1.104   .     S
C1469  H1471   1.111   .     S
C1469  H1470   1.104   .     S
C1469  H1472   1.110   .     S
C1473  H1475   1.110   .     S
C1473  H1476   1.108   .     S
C1473  H1474   1.111   .     S
C1477  H1479   1.108   .     S
C1477  H1480   1.110   .     S
C1477  H1478   1.111   .     S
C1481  H1482   1.079   .     S
C1481  H1483   1.109   .     S
C1481  H1484   1.109   .     S
C1485  H1486   1.079   .     S
C1485  H1487   1.109   .     S
C1485  H1488   1.109   .     S
C1489  H1492   1.109   .     S
C1489  H1490   1.081   .     S
C1489  H1491   1.109   .     S
C1493  H1495   1.109   .     S
C1493  H1494   1.081   .     S
C1493  H1496   1.109   .     S
O1497  C1501   1.306   .     A
O1497  Cu1509  1.963   .     S
O1498  C1502   1.306   .     A
O1498  Cu1510  1.963   .     S
O1499  C1502   1.306   .     A
O1499  Cu1509  1.963   .     S
O1500  C1501   1.306   .     A
O1500  Cu1510  1.963   .     S
C1501  C1538   1.451   .     S
C1502  C1537   1.451   .     S
O1503  C1507   1.304   .     A
O1503  Cu1509  1.967   .     S
O1504  C1508   1.304   .     A
O1504  Cu1510  1.967   .     S
O1505  Cu1509  1.968   .     S
O1505  C1508   1.305   .     A
O1506  Cu1510  1.968   .     S
O1506  C1507   1.305   .     A
C1507  C1514   1.456   .     S
C1508  C1513   1.456   .     S
Cu1509 Cu1510  2.727   .     S
Cu1509 N1543   2.049   .     S
Cu1510 N1544   2.049   .     S
C1511  C1513   1.410   .     A
C1511  C1545   1.521   .     S
C1511  C1521   1.418   .     A
C1512  C1549   1.521   .     S
C1512  C1522   1.418   .     A
C1512  C1514   1.410   .     A
C1513  C1515   1.409   .     A
C1514  C1516   1.409   .     A
C1515  C1553   1.522   .     S
C1515  C1517   1.410   .     A
C1516  C1557   1.522   .     S
C1516  C1518   1.410   .     A
C1517  C1523   1.403   .     A
C1517  C1519   1.415   .     A
C1518  C1524   1.403   .     A
C1518  C1520   1.415   .     A
C1519  C1521   1.424   .     A
C1519  C728    1.418   1_556 S
C1520  C1522   1.424   .     A
C1521  C1526   1.422   .     A
C1522  C1525   1.422   .     A
C1523  H1527   1.082   .     S
C1523  C733    1.393   1_556 S
C1524  H1528   1.082   .     S
C1525  C1561   1.513   .     S
C1526  C1565   1.513   .     S
C1526  C732    1.393   1_556 S
C1529  C1538   1.401   .     A
C1529  H1533   1.083   .     S
C1530  C1537   1.401   .     A
C1530  H1534   1.083   .     S
C1530  C1356   1.384   1_655 S
C1531  C1537   1.401   .     A
C1531  H1535   1.083   .     S
C1531  C1353   1.384   1_655 S
C1532  C1538   1.401   .     A
C1532  H1536   1.083   .     S
C1539  C1569   1.518   .     S
C1539  N1544   1.383   .     A
C1540  C1573   1.518   .     S
C1540  N1543   1.383   .     A
C1540  C1013   1.436   1_565 S
C1541  N1544   1.383   .     A
C1541  C1577   1.520   .     S
C1542  C1581   1.520   .     S
C1542  N1543   1.383   .     A
C1542  C1011   1.436   1_565 S
C1545  H1547   1.109   .     S
C1545  H1546   1.110   .     S
C1545  H1548   1.106   .     S
C1549  H1551   1.106   .     S
C1549  H1550   1.110   .     S
C1549  H1552   1.109   .     S
C1553  H1555   1.110   .     S
C1553  H1556   1.111   .     S
C1553  H1554   1.104   .     S
C1557  H1559   1.111   .     S
C1557  H1558   1.104   .     S
C1557  H1560   1.110   .     S
C1561  H1563   1.110   .     S
C1561  H1564   1.108   .     S
C1561  H1562   1.111   .     S
C1565  H1567   1.108   .     S
C1565  H1568   1.110   .     S
C1565  H1566   1.111   .     S
C1569  H1570   1.079   .     S
C1569  H1571   1.109   .     S
C1569  H1572   1.109   .     S
C1573  H1574   1.079   .     S
C1573  H1575   1.109   .     S
C1573  H1576   1.109   .     S
C1577  H1580   1.109   .     S
C1577  H1578   1.081   .     S
C1577  H1579   1.109   .     S
C1581  H1583   1.109   .     S
C1581  H1582   1.081   .     S
C1581  H1584   1.109   .     S
