data_str_m3_o1_o10_pcu_sym.150
_audit_creation_date              2020-01-03
_audit_creation_method            'Materials Studio'
_symmetry_space_group_name_H-M    'P1'
_symmetry_Int_Tables_number       1
_symmetry_cell_setting            triclinic
loop_
_symmetry_equiv_pos_as_xyz
  x,y,z
_cell_length_a                    26.0003
_cell_length_b                    31.9158
_cell_length_c                    29.6944
_cell_angle_alpha                 89.0884
_cell_angle_beta                  98.1959
_cell_angle_gamma                 92.3393
loop_
_atom_site_label
_atom_site_type_symbol
_atom_site_fract_x
_atom_site_fract_y
_atom_site_fract_z
_atom_site_U_iso_or_equiv
_atom_site_adp_type
_atom_site_occupancy
C1     C     0.16604   0.08686   0.16697   0.00000  Uiso   1.00
C2     C     0.16729   0.24648   0.16636   0.00000  Uiso   1.00
C3     C     0.06729   0.16607   0.15496   0.00000  Uiso   1.00
C4     C     0.26605   0.16726   0.17837   0.00000  Uiso   1.00
C5     C     0.01258   0.16028   0.14966   0.00000  Uiso   1.00
C6     C     0.32076   0.17304   0.18368   0.00000  Uiso   1.00
C7     C     0.12019   0.02000   0.14930   0.00000  Uiso   1.00
C8     C     0.21314   0.31333   0.18403   0.00000  Uiso   1.00
C9     C     0.12162   0.31009   0.14758   0.00000  Uiso   1.00
C10    C     0.21171   0.02325   0.18575   0.00000  Uiso   1.00
C11    C     0.16779   0.29069   0.16530   0.00000  Uiso   1.00
C12    C     0.16554   0.04264   0.16803   0.00000  Uiso   1.00
C13    C     0.19697   0.19537   0.02698   0.00000  Uiso   1.00
C14    C     0.13637   0.13796   0.30636   0.00000  Uiso   1.00
C15    C     0.19710   0.19514   0.31222   0.00000  Uiso   1.00
C16    C     0.13623   0.13819   0.02111   0.00000  Uiso   1.00
N17    N     0.16665   0.16666   0.28573   0.00000  Uiso   1.00
N18    N     0.16668   0.16668   0.04760   0.00000  Uiso   1.00
O19    O     0.16666   0.10558   0.20487   0.00000  Uiso   1.00
O20    O     0.16667   0.22775   0.12846   0.00000  Uiso   1.00
O21    O     0.16666   0.10559   0.12843   0.00000  Uiso   1.00
O22    O     0.16667   0.22774   0.20490   0.00000  Uiso   1.00
O23    O     0.09058   0.16666   0.19595   0.00000  Uiso   1.00
O24    O     0.24275   0.16667   0.13739   0.00000  Uiso   1.00
O25    O     0.09058   0.16667   0.11950   0.00000  Uiso   1.00
O26    O     0.24275   0.16666   0.21383   0.00000  Uiso   1.00
Zn27   Zn    0.16667   0.16666   0.21771   0.00000  Uiso   1.00
Zn28   Zn    0.16667   0.16667   0.11563   0.00000  Uiso   1.00
N29    N     0.31993   0.13746   0.11049   0.00000  Uiso   1.00
H30    H     0.30638   0.10850   0.12192   0.00000  Uiso   1.00
H31    H     0.01204   0.13089   0.08756   0.00000  Uiso   1.00
N32    N     0.01340   0.19587   0.22284   0.00000  Uiso   1.00
H33    H     0.02694   0.22483   0.21141   0.00000  Uiso   1.00
H34    H     0.32129   0.20243   0.24577   0.00000  Uiso   1.00
C35    C     0.07075   0.04091   0.13341   0.00000  Uiso   1.00
O36    O     0.05598   0.06799   0.15663   0.00000  Uiso   1.00
O37    O     0.04058   0.02892   0.09251   0.00000  Uiso   1.00
H38    H     0.00759   0.04512   0.08565   0.00000  Uiso   1.00
C39    C     0.26258   0.29242   0.19994   0.00000  Uiso   1.00
O40    O     0.27735   0.26532   0.17673   0.00000  Uiso   1.00
O41    O     0.29276   0.30443   0.24083   0.00000  Uiso   1.00
H42    H     0.32573   0.28823   0.24770   0.00000  Uiso   1.00
N43    N     0.07542   0.28598   0.12981   0.00000  Uiso   1.00
H44    H     0.08309   0.26874   0.10206   0.00000  Uiso   1.00
H45    H     0.06561   0.26519   0.15503   0.00000  Uiso   1.00
N46    N     0.25791   0.04735   0.20352   0.00000  Uiso   1.00
H47    H     0.25024   0.06459   0.23128   0.00000  Uiso   1.00
H48    H     0.26772   0.06815   0.17831   0.00000  Uiso   1.00
C49    C     0.22939   0.22730   0.05421   0.00000  Uiso   1.00
O50    O     0.21234   0.26188   0.05869   0.00000  Uiso   1.00
O51    O     0.28075   0.21906   0.07166   0.00000  Uiso   1.00
H52    H     0.29959   0.24376   0.08870   0.00000  Uiso   1.00
C53    C     0.10397   0.10602   0.27913   0.00000  Uiso   1.00
O54    O     0.12104   0.07143   0.27467   0.00000  Uiso   1.00
O55    O     0.05260   0.11426   0.26163   0.00000  Uiso   1.00
H56    H     0.03379   0.08955   0.24459   0.00000  Uiso   1.00
N57    N     0.22925   0.22454   0.29087   0.00000  Uiso   1.00
H58    H     0.21850   0.25483   0.29731   0.00000  Uiso   1.00
H59    H     0.26787   0.22120   0.30557   0.00000  Uiso   1.00
N60    N     0.10408   0.10880   0.04246   0.00000  Uiso   1.00
H61    H     0.11484   0.07850   0.03603   0.00000  Uiso   1.00
H62    H     0.06546   0.11213   0.02775   0.00000  Uiso   1.00
C63    C     0.49937   0.08686   0.16697   0.00000  Uiso   1.00
C64    C     0.50063   0.24648   0.16636   0.00000  Uiso   1.00
C65    C     0.40062   0.16607   0.15496   0.00000  Uiso   1.00
C66    C     0.59938   0.16726   0.17837   0.00000  Uiso   1.00
C67    C     0.34591   0.16028   0.14966   0.00000  Uiso   1.00
C68    C     0.65409   0.17304   0.18368   0.00000  Uiso   1.00
C69    C     0.45353   0.02000   0.14930   0.00000  Uiso   1.00
C70    C     0.54647   0.31333   0.18403   0.00000  Uiso   1.00
C71    C     0.45495   0.31009   0.14758   0.00000  Uiso   1.00
C72    C     0.54505   0.02325   0.18575   0.00000  Uiso   1.00
C73    C     0.50113   0.29069   0.16530   0.00000  Uiso   1.00
C74    C     0.49887   0.04264   0.16803   0.00000  Uiso   1.00
C75    C     0.53030   0.19537   0.02698   0.00000  Uiso   1.00
C76    C     0.46970   0.13796   0.30636   0.00000  Uiso   1.00
C77    C     0.53043   0.19514   0.31222   0.00000  Uiso   1.00
C78    C     0.46957   0.13819   0.02111   0.00000  Uiso   1.00
N79    N     0.49999   0.16666   0.28573   0.00000  Uiso   1.00
N80    N     0.50001   0.16668   0.04760   0.00000  Uiso   1.00
O81    O     0.50000   0.10558   0.20487   0.00000  Uiso   1.00
O82    O     0.50000   0.22775   0.12846   0.00000  Uiso   1.00
O83    O     0.50000   0.10559   0.12843   0.00000  Uiso   1.00
O84    O     0.50000   0.22774   0.20490   0.00000  Uiso   1.00
O85    O     0.42392   0.16666   0.19595   0.00000  Uiso   1.00
O86    O     0.57608   0.16667   0.13739   0.00000  Uiso   1.00
O87    O     0.42392   0.16667   0.11950   0.00000  Uiso   1.00
O88    O     0.57608   0.16666   0.21383   0.00000  Uiso   1.00
Zn89   Zn    0.50000   0.16666   0.21771   0.00000  Uiso   1.00
Zn90   Zn    0.50000   0.16667   0.11563   0.00000  Uiso   1.00
N91    N     0.65327   0.13746   0.11049   0.00000  Uiso   1.00
H92    H     0.63971   0.10850   0.12192   0.00000  Uiso   1.00
H93    H     0.34538   0.13089   0.08756   0.00000  Uiso   1.00
N94    N     0.34673   0.19587   0.22284   0.00000  Uiso   1.00
H95    H     0.36027   0.22483   0.21141   0.00000  Uiso   1.00
H96    H     0.65462   0.20243   0.24577   0.00000  Uiso   1.00
C97    C     0.40408   0.04091   0.13341   0.00000  Uiso   1.00
O98    O     0.38931   0.06799   0.15663   0.00000  Uiso   1.00
O99    O     0.37391   0.02892   0.09251   0.00000  Uiso   1.00
H100   H     0.34092   0.04512   0.08565   0.00000  Uiso   1.00
C101   C     0.59591   0.29242   0.19994   0.00000  Uiso   1.00
O102   O     0.61068   0.26532   0.17673   0.00000  Uiso   1.00
O103   O     0.62609   0.30443   0.24083   0.00000  Uiso   1.00
H104   H     0.65907   0.28823   0.24770   0.00000  Uiso   1.00
N105   N     0.40876   0.28598   0.12981   0.00000  Uiso   1.00
H106   H     0.41642   0.26874   0.10206   0.00000  Uiso   1.00
H107   H     0.39894   0.26519   0.15503   0.00000  Uiso   1.00
N108   N     0.59124   0.04735   0.20352   0.00000  Uiso   1.00
H109   H     0.58358   0.06459   0.23128   0.00000  Uiso   1.00
H110   H     0.60105   0.06815   0.17831   0.00000  Uiso   1.00
C111   C     0.56272   0.22730   0.05421   0.00000  Uiso   1.00
O112   O     0.54567   0.26188   0.05869   0.00000  Uiso   1.00
O113   O     0.61408   0.21906   0.07166   0.00000  Uiso   1.00
H114   H     0.63292   0.24376   0.08870   0.00000  Uiso   1.00
C115   C     0.43731   0.10602   0.27913   0.00000  Uiso   1.00
O116   O     0.45437   0.07143   0.27467   0.00000  Uiso   1.00
O117   O     0.38594   0.11426   0.26163   0.00000  Uiso   1.00
H118   H     0.36712   0.08955   0.24459   0.00000  Uiso   1.00
N119   N     0.56259   0.22454   0.29087   0.00000  Uiso   1.00
H120   H     0.55183   0.25483   0.29731   0.00000  Uiso   1.00
H121   H     0.60120   0.22120   0.30557   0.00000  Uiso   1.00
N122   N     0.43741   0.10880   0.04246   0.00000  Uiso   1.00
H123   H     0.44817   0.07850   0.03603   0.00000  Uiso   1.00
H124   H     0.39880   0.11213   0.02775   0.00000  Uiso   1.00
C125   C     0.83270   0.08686   0.16697   0.00000  Uiso   1.00
C126   C     0.83396   0.24648   0.16636   0.00000  Uiso   1.00
C127   C     0.73395   0.16607   0.15496   0.00000  Uiso   1.00
C128   C     0.93271   0.16726   0.17837   0.00000  Uiso   1.00
C129   C     0.67924   0.16028   0.14966   0.00000  Uiso   1.00
C130   C     0.98742   0.17304   0.18368   0.00000  Uiso   1.00
C131   C     0.78686   0.02000   0.14930   0.00000  Uiso   1.00
C132   C     0.87980   0.31333   0.18403   0.00000  Uiso   1.00
C133   C     0.78829   0.31009   0.14758   0.00000  Uiso   1.00
C134   C     0.87838   0.02325   0.18575   0.00000  Uiso   1.00
C135   C     0.83446   0.29069   0.16530   0.00000  Uiso   1.00
C136   C     0.83221   0.04264   0.16803   0.00000  Uiso   1.00
C137   C     0.86364   0.19537   0.02698   0.00000  Uiso   1.00
C138   C     0.80303   0.13796   0.30636   0.00000  Uiso   1.00
C139   C     0.86377   0.19514   0.31222   0.00000  Uiso   1.00
C140   C     0.80290   0.13819   0.02111   0.00000  Uiso   1.00
N141   N     0.83332   0.16666   0.28573   0.00000  Uiso   1.00
N142   N     0.83335   0.16668   0.04760   0.00000  Uiso   1.00
O143   O     0.83333   0.10558   0.20487   0.00000  Uiso   1.00
O144   O     0.83334   0.22775   0.12846   0.00000  Uiso   1.00
O145   O     0.83333   0.10559   0.12843   0.00000  Uiso   1.00
O146   O     0.83334   0.22774   0.20490   0.00000  Uiso   1.00
O147   O     0.75725   0.16666   0.19595   0.00000  Uiso   1.00
O148   O     0.90942   0.16667   0.13739   0.00000  Uiso   1.00
O149   O     0.75725   0.16667   0.11950   0.00000  Uiso   1.00
O150   O     0.90942   0.16666   0.21383   0.00000  Uiso   1.00
Zn151  Zn    0.83333   0.16666   0.21771   0.00000  Uiso   1.00
Zn152  Zn    0.83333   0.16667   0.11563   0.00000  Uiso   1.00
N153   N     0.98660   0.13746   0.11049   0.00000  Uiso   1.00
H154   H     0.97305   0.10850   0.12192   0.00000  Uiso   1.00
H155   H     0.67871   0.13089   0.08756   0.00000  Uiso   1.00
N156   N     0.68007   0.19587   0.22284   0.00000  Uiso   1.00
H157   H     0.69360   0.22483   0.21141   0.00000  Uiso   1.00
H158   H     0.98795   0.20243   0.24577   0.00000  Uiso   1.00
C159   C     0.73741   0.04091   0.13341   0.00000  Uiso   1.00
O160   O     0.72264   0.06799   0.15663   0.00000  Uiso   1.00
O161   O     0.70724   0.02892   0.09251   0.00000  Uiso   1.00
H162   H     0.67426   0.04512   0.08565   0.00000  Uiso   1.00
C163   C     0.92925   0.29242   0.19994   0.00000  Uiso   1.00
O164   O     0.94402   0.26532   0.17673   0.00000  Uiso   1.00
O165   O     0.95942   0.30443   0.24083   0.00000  Uiso   1.00
H166   H     0.99240   0.28823   0.24770   0.00000  Uiso   1.00
N167   N     0.74209   0.28598   0.12981   0.00000  Uiso   1.00
H168   H     0.74976   0.26874   0.10206   0.00000  Uiso   1.00
H169   H     0.73228   0.26519   0.15503   0.00000  Uiso   1.00
N170   N     0.92457   0.04735   0.20352   0.00000  Uiso   1.00
H171   H     0.91691   0.06459   0.23128   0.00000  Uiso   1.00
H172   H     0.93439   0.06815   0.17831   0.00000  Uiso   1.00
C173   C     0.89605   0.22730   0.05421   0.00000  Uiso   1.00
O174   O     0.87901   0.26188   0.05869   0.00000  Uiso   1.00
O175   O     0.94742   0.21906   0.07166   0.00000  Uiso   1.00
H176   H     0.96625   0.24376   0.08870   0.00000  Uiso   1.00
C177   C     0.77064   0.10602   0.27913   0.00000  Uiso   1.00
O178   O     0.78770   0.07143   0.27467   0.00000  Uiso   1.00
O179   O     0.71927   0.11426   0.26163   0.00000  Uiso   1.00
H180   H     0.70046   0.08955   0.24459   0.00000  Uiso   1.00
N181   N     0.89592   0.22454   0.29087   0.00000  Uiso   1.00
H182   H     0.88517   0.25483   0.29731   0.00000  Uiso   1.00
H183   H     0.93454   0.22120   0.30557   0.00000  Uiso   1.00
N184   N     0.77074   0.10880   0.04246   0.00000  Uiso   1.00
H185   H     0.78151   0.07850   0.03603   0.00000  Uiso   1.00
H186   H     0.73213   0.11213   0.02775   0.00000  Uiso   1.00
C187   C     0.16604   0.42019   0.16697   0.00000  Uiso   1.00
C188   C     0.16729   0.57981   0.16636   0.00000  Uiso   1.00
C189   C     0.06729   0.49940   0.15496   0.00000  Uiso   1.00
C190   C     0.26605   0.50059   0.17837   0.00000  Uiso   1.00
C191   C     0.01258   0.49362   0.14966   0.00000  Uiso   1.00
C192   C     0.32076   0.50638   0.18368   0.00000  Uiso   1.00
C193   C     0.12019   0.35334   0.14930   0.00000  Uiso   1.00
C194   C     0.21314   0.64667   0.18403   0.00000  Uiso   1.00
C195   C     0.12162   0.64342   0.14758   0.00000  Uiso   1.00
C196   C     0.21171   0.35658   0.18575   0.00000  Uiso   1.00
C197   C     0.16779   0.62403   0.16530   0.00000  Uiso   1.00
C198   C     0.16554   0.37597   0.16803   0.00000  Uiso   1.00
C199   C     0.19697   0.52871   0.02698   0.00000  Uiso   1.00
C200   C     0.13637   0.47129   0.30636   0.00000  Uiso   1.00
C201   C     0.19710   0.52847   0.31222   0.00000  Uiso   1.00
C202   C     0.13623   0.47153   0.02111   0.00000  Uiso   1.00
N203   N     0.16665   0.49999   0.28573   0.00000  Uiso   1.00
N204   N     0.16668   0.50001   0.04760   0.00000  Uiso   1.00
O205   O     0.16666   0.43892   0.20487   0.00000  Uiso   1.00
O206   O     0.16667   0.56108   0.12846   0.00000  Uiso   1.00
O207   O     0.16666   0.43893   0.12843   0.00000  Uiso   1.00
O208   O     0.16667   0.56107   0.20490   0.00000  Uiso   1.00
O209   O     0.09058   0.50000   0.19595   0.00000  Uiso   1.00
O210   O     0.24275   0.50000   0.13739   0.00000  Uiso   1.00
O211   O     0.09058   0.50000   0.11950   0.00000  Uiso   1.00
O212   O     0.24275   0.50000   0.21383   0.00000  Uiso   1.00
Zn213  Zn    0.16667   0.49999   0.21771   0.00000  Uiso   1.00
Zn214  Zn    0.16667   0.50001   0.11563   0.00000  Uiso   1.00
N215   N     0.31993   0.47079   0.11049   0.00000  Uiso   1.00
H216   H     0.30638   0.44183   0.12192   0.00000  Uiso   1.00
H217   H     0.01204   0.46422   0.08756   0.00000  Uiso   1.00
N218   N     0.01340   0.52920   0.22284   0.00000  Uiso   1.00
H219   H     0.02694   0.55816   0.21141   0.00000  Uiso   1.00
H220   H     0.32129   0.53576   0.24577   0.00000  Uiso   1.00
C221   C     0.07075   0.37425   0.13341   0.00000  Uiso   1.00
O222   O     0.05598   0.40132   0.15663   0.00000  Uiso   1.00
O223   O     0.04058   0.36225   0.09251   0.00000  Uiso   1.00
H224   H     0.00759   0.37845   0.08565   0.00000  Uiso   1.00
C225   C     0.26258   0.62576   0.19994   0.00000  Uiso   1.00
O226   O     0.27735   0.59866   0.17673   0.00000  Uiso   1.00
O227   O     0.29276   0.63776   0.24083   0.00000  Uiso   1.00
H228   H     0.32573   0.62156   0.24770   0.00000  Uiso   1.00
N229   N     0.07542   0.61932   0.12981   0.00000  Uiso   1.00
H230   H     0.08309   0.60208   0.10206   0.00000  Uiso   1.00
H231   H     0.06561   0.59852   0.15503   0.00000  Uiso   1.00
N232   N     0.25791   0.38069   0.20352   0.00000  Uiso   1.00
H233   H     0.25024   0.39793   0.23128   0.00000  Uiso   1.00
H234   H     0.26772   0.40149   0.17831   0.00000  Uiso   1.00
C235   C     0.22939   0.56063   0.05421   0.00000  Uiso   1.00
O236   O     0.21234   0.59521   0.05869   0.00000  Uiso   1.00
O237   O     0.28075   0.55239   0.07166   0.00000  Uiso   1.00
H238   H     0.29959   0.57709   0.08870   0.00000  Uiso   1.00
C239   C     0.10397   0.43936   0.27913   0.00000  Uiso   1.00
O240   O     0.12104   0.40477   0.27467   0.00000  Uiso   1.00
O241   O     0.05260   0.44759   0.26163   0.00000  Uiso   1.00
H242   H     0.03379   0.42289   0.24459   0.00000  Uiso   1.00
N243   N     0.22925   0.55787   0.29087   0.00000  Uiso   1.00
H244   H     0.21850   0.58816   0.29731   0.00000  Uiso   1.00
H245   H     0.26787   0.55453   0.30557   0.00000  Uiso   1.00
N246   N     0.10408   0.44213   0.04246   0.00000  Uiso   1.00
H247   H     0.11484   0.41184   0.03603   0.00000  Uiso   1.00
H248   H     0.06546   0.44546   0.02775   0.00000  Uiso   1.00
C249   C     0.49937   0.42019   0.16697   0.00000  Uiso   1.00
C250   C     0.50063   0.57981   0.16636   0.00000  Uiso   1.00
C251   C     0.40062   0.49940   0.15496   0.00000  Uiso   1.00
C252   C     0.59938   0.50059   0.17837   0.00000  Uiso   1.00
C253   C     0.34591   0.49362   0.14966   0.00000  Uiso   1.00
C254   C     0.65409   0.50638   0.18368   0.00000  Uiso   1.00
C255   C     0.45353   0.35334   0.14930   0.00000  Uiso   1.00
C256   C     0.54647   0.64667   0.18403   0.00000  Uiso   1.00
C257   C     0.45495   0.64342   0.14758   0.00000  Uiso   1.00
C258   C     0.54505   0.35658   0.18575   0.00000  Uiso   1.00
C259   C     0.50113   0.62403   0.16530   0.00000  Uiso   1.00
C260   C     0.49887   0.37597   0.16803   0.00000  Uiso   1.00
C261   C     0.53030   0.52871   0.02698   0.00000  Uiso   1.00
C262   C     0.46970   0.47129   0.30636   0.00000  Uiso   1.00
C263   C     0.53043   0.52847   0.31222   0.00000  Uiso   1.00
C264   C     0.46957   0.47153   0.02111   0.00000  Uiso   1.00
N265   N     0.49999   0.49999   0.28573   0.00000  Uiso   1.00
N266   N     0.50001   0.50001   0.04760   0.00000  Uiso   1.00
O267   O     0.50000   0.43892   0.20487   0.00000  Uiso   1.00
O268   O     0.50000   0.56108   0.12846   0.00000  Uiso   1.00
O269   O     0.50000   0.43893   0.12843   0.00000  Uiso   1.00
O270   O     0.50000   0.56107   0.20490   0.00000  Uiso   1.00
O271   O     0.42392   0.50000   0.19595   0.00000  Uiso   1.00
O272   O     0.57608   0.50000   0.13739   0.00000  Uiso   1.00
O273   O     0.42392   0.50000   0.11950   0.00000  Uiso   1.00
O274   O     0.57608   0.50000   0.21383   0.00000  Uiso   1.00
Zn275  Zn    0.50000   0.49999   0.21771   0.00000  Uiso   1.00
Zn276  Zn    0.50000   0.50001   0.11563   0.00000  Uiso   1.00
N277   N     0.65327   0.47079   0.11049   0.00000  Uiso   1.00
H278   H     0.63971   0.44183   0.12192   0.00000  Uiso   1.00
H279   H     0.34538   0.46422   0.08756   0.00000  Uiso   1.00
N280   N     0.34673   0.52920   0.22284   0.00000  Uiso   1.00
H281   H     0.36027   0.55816   0.21141   0.00000  Uiso   1.00
H282   H     0.65462   0.53576   0.24577   0.00000  Uiso   1.00
C283   C     0.40408   0.37425   0.13341   0.00000  Uiso   1.00
O284   O     0.38931   0.40132   0.15663   0.00000  Uiso   1.00
O285   O     0.37391   0.36225   0.09251   0.00000  Uiso   1.00
H286   H     0.34092   0.37845   0.08565   0.00000  Uiso   1.00
C287   C     0.59591   0.62576   0.19994   0.00000  Uiso   1.00
O288   O     0.61068   0.59866   0.17673   0.00000  Uiso   1.00
O289   O     0.62609   0.63776   0.24083   0.00000  Uiso   1.00
H290   H     0.65907   0.62156   0.24770   0.00000  Uiso   1.00
N291   N     0.40876   0.61932   0.12981   0.00000  Uiso   1.00
H292   H     0.41642   0.60208   0.10206   0.00000  Uiso   1.00
H293   H     0.39894   0.59852   0.15503   0.00000  Uiso   1.00
N294   N     0.59124   0.38069   0.20352   0.00000  Uiso   1.00
H295   H     0.58358   0.39793   0.23128   0.00000  Uiso   1.00
H296   H     0.60105   0.40149   0.17831   0.00000  Uiso   1.00
C297   C     0.56272   0.56063   0.05421   0.00000  Uiso   1.00
O298   O     0.54567   0.59521   0.05869   0.00000  Uiso   1.00
O299   O     0.61408   0.55239   0.07166   0.00000  Uiso   1.00
H300   H     0.63292   0.57709   0.08870   0.00000  Uiso   1.00
C301   C     0.43731   0.43936   0.27913   0.00000  Uiso   1.00
O302   O     0.45437   0.40477   0.27467   0.00000  Uiso   1.00
O303   O     0.38594   0.44759   0.26163   0.00000  Uiso   1.00
H304   H     0.36712   0.42289   0.24459   0.00000  Uiso   1.00
N305   N     0.56259   0.55787   0.29087   0.00000  Uiso   1.00
H306   H     0.55183   0.58816   0.29731   0.00000  Uiso   1.00
H307   H     0.60120   0.55453   0.30557   0.00000  Uiso   1.00
N308   N     0.43741   0.44213   0.04246   0.00000  Uiso   1.00
H309   H     0.44817   0.41184   0.03603   0.00000  Uiso   1.00
H310   H     0.39880   0.44546   0.02775   0.00000  Uiso   1.00
C311   C     0.83270   0.42019   0.16697   0.00000  Uiso   1.00
C312   C     0.83396   0.57981   0.16636   0.00000  Uiso   1.00
C313   C     0.73395   0.49940   0.15496   0.00000  Uiso   1.00
C314   C     0.93271   0.50059   0.17837   0.00000  Uiso   1.00
C315   C     0.67924   0.49362   0.14966   0.00000  Uiso   1.00
C316   C     0.98742   0.50638   0.18368   0.00000  Uiso   1.00
C317   C     0.78686   0.35334   0.14930   0.00000  Uiso   1.00
C318   C     0.87980   0.64667   0.18403   0.00000  Uiso   1.00
C319   C     0.78829   0.64342   0.14758   0.00000  Uiso   1.00
C320   C     0.87838   0.35658   0.18575   0.00000  Uiso   1.00
C321   C     0.83446   0.62403   0.16530   0.00000  Uiso   1.00
C322   C     0.83221   0.37597   0.16803   0.00000  Uiso   1.00
C323   C     0.86364   0.52871   0.02698   0.00000  Uiso   1.00
C324   C     0.80303   0.47129   0.30636   0.00000  Uiso   1.00
C325   C     0.86377   0.52847   0.31222   0.00000  Uiso   1.00
C326   C     0.80290   0.47153   0.02111   0.00000  Uiso   1.00
N327   N     0.83332   0.49999   0.28573   0.00000  Uiso   1.00
N328   N     0.83335   0.50001   0.04760   0.00000  Uiso   1.00
O329   O     0.83333   0.43892   0.20487   0.00000  Uiso   1.00
O330   O     0.83334   0.56108   0.12846   0.00000  Uiso   1.00
O331   O     0.83333   0.43893   0.12843   0.00000  Uiso   1.00
O332   O     0.83334   0.56107   0.20490   0.00000  Uiso   1.00
O333   O     0.75725   0.50000   0.19595   0.00000  Uiso   1.00
O334   O     0.90942   0.50000   0.13739   0.00000  Uiso   1.00
O335   O     0.75725   0.50000   0.11950   0.00000  Uiso   1.00
O336   O     0.90942   0.50000   0.21383   0.00000  Uiso   1.00
Zn337  Zn    0.83333   0.49999   0.21771   0.00000  Uiso   1.00
Zn338  Zn    0.83333   0.50001   0.11563   0.00000  Uiso   1.00
N339   N     0.98660   0.47079   0.11049   0.00000  Uiso   1.00
H340   H     0.97305   0.44183   0.12192   0.00000  Uiso   1.00
H341   H     0.67871   0.46422   0.08756   0.00000  Uiso   1.00
N342   N     0.68007   0.52920   0.22284   0.00000  Uiso   1.00
H343   H     0.69360   0.55816   0.21141   0.00000  Uiso   1.00
H344   H     0.98795   0.53576   0.24577   0.00000  Uiso   1.00
C345   C     0.73741   0.37425   0.13341   0.00000  Uiso   1.00
O346   O     0.72264   0.40132   0.15663   0.00000  Uiso   1.00
O347   O     0.70724   0.36225   0.09251   0.00000  Uiso   1.00
H348   H     0.67426   0.37845   0.08565   0.00000  Uiso   1.00
C349   C     0.92925   0.62576   0.19994   0.00000  Uiso   1.00
O350   O     0.94402   0.59866   0.17673   0.00000  Uiso   1.00
O351   O     0.95942   0.63776   0.24083   0.00000  Uiso   1.00
H352   H     0.99240   0.62156   0.24770   0.00000  Uiso   1.00
N353   N     0.74209   0.61932   0.12981   0.00000  Uiso   1.00
H354   H     0.74976   0.60208   0.10206   0.00000  Uiso   1.00
H355   H     0.73228   0.59852   0.15503   0.00000  Uiso   1.00
N356   N     0.92457   0.38069   0.20352   0.00000  Uiso   1.00
H357   H     0.91691   0.39793   0.23128   0.00000  Uiso   1.00
H358   H     0.93439   0.40149   0.17831   0.00000  Uiso   1.00
C359   C     0.89605   0.56063   0.05421   0.00000  Uiso   1.00
O360   O     0.87901   0.59521   0.05869   0.00000  Uiso   1.00
O361   O     0.94742   0.55239   0.07166   0.00000  Uiso   1.00
H362   H     0.96625   0.57709   0.08870   0.00000  Uiso   1.00
C363   C     0.77064   0.43936   0.27913   0.00000  Uiso   1.00
O364   O     0.78770   0.40477   0.27467   0.00000  Uiso   1.00
O365   O     0.71927   0.44759   0.26163   0.00000  Uiso   1.00
H366   H     0.70046   0.42289   0.24459   0.00000  Uiso   1.00
N367   N     0.89592   0.55787   0.29087   0.00000  Uiso   1.00
H368   H     0.88517   0.58816   0.29731   0.00000  Uiso   1.00
H369   H     0.93454   0.55453   0.30557   0.00000  Uiso   1.00
N370   N     0.77074   0.44213   0.04246   0.00000  Uiso   1.00
H371   H     0.78151   0.41184   0.03603   0.00000  Uiso   1.00
H372   H     0.73213   0.44546   0.02775   0.00000  Uiso   1.00
C373   C     0.16604   0.75352   0.16697   0.00000  Uiso   1.00
C374   C     0.16729   0.91314   0.16636   0.00000  Uiso   1.00
C375   C     0.06729   0.83274   0.15496   0.00000  Uiso   1.00
C376   C     0.26605   0.83393   0.17837   0.00000  Uiso   1.00
C377   C     0.01258   0.82695   0.14966   0.00000  Uiso   1.00
C378   C     0.32076   0.83971   0.18368   0.00000  Uiso   1.00
C379   C     0.12019   0.68667   0.14930   0.00000  Uiso   1.00
C380   C     0.21314   0.98000   0.18403   0.00000  Uiso   1.00
C381   C     0.12162   0.97675   0.14758   0.00000  Uiso   1.00
C382   C     0.21171   0.68992   0.18575   0.00000  Uiso   1.00
C383   C     0.16779   0.95736   0.16530   0.00000  Uiso   1.00
C384   C     0.16554   0.70931   0.16803   0.00000  Uiso   1.00
C385   C     0.19697   0.86204   0.02698   0.00000  Uiso   1.00
C386   C     0.13637   0.80462   0.30636   0.00000  Uiso   1.00
C387   C     0.19710   0.86181   0.31222   0.00000  Uiso   1.00
C388   C     0.13623   0.80486   0.02111   0.00000  Uiso   1.00
N389   N     0.16665   0.83332   0.28573   0.00000  Uiso   1.00
N390   N     0.16668   0.83334   0.04760   0.00000  Uiso   1.00
O391   O     0.16666   0.77225   0.20487   0.00000  Uiso   1.00
O392   O     0.16667   0.89442   0.12846   0.00000  Uiso   1.00
O393   O     0.16666   0.77226   0.12843   0.00000  Uiso   1.00
O394   O     0.16667   0.89441   0.20490   0.00000  Uiso   1.00
O395   O     0.09058   0.83333   0.19595   0.00000  Uiso   1.00
O396   O     0.24275   0.83334   0.13739   0.00000  Uiso   1.00
O397   O     0.09058   0.83334   0.11950   0.00000  Uiso   1.00
O398   O     0.24275   0.83333   0.21383   0.00000  Uiso   1.00
Zn399  Zn    0.16667   0.83333   0.21771   0.00000  Uiso   1.00
Zn400  Zn    0.16667   0.83334   0.11563   0.00000  Uiso   1.00
N401   N     0.31993   0.80412   0.11049   0.00000  Uiso   1.00
H402   H     0.30638   0.77516   0.12192   0.00000  Uiso   1.00
H403   H     0.01204   0.79756   0.08756   0.00000  Uiso   1.00
N404   N     0.01340   0.86254   0.22284   0.00000  Uiso   1.00
H405   H     0.02694   0.89150   0.21141   0.00000  Uiso   1.00
H406   H     0.32129   0.86909   0.24577   0.00000  Uiso   1.00
C407   C     0.07075   0.70758   0.13341   0.00000  Uiso   1.00
O408   O     0.05598   0.73466   0.15663   0.00000  Uiso   1.00
O409   O     0.04058   0.69559   0.09251   0.00000  Uiso   1.00
H410   H     0.00759   0.71178   0.08565   0.00000  Uiso   1.00
C411   C     0.26258   0.95909   0.19994   0.00000  Uiso   1.00
O412   O     0.27735   0.93199   0.17673   0.00000  Uiso   1.00
O413   O     0.29276   0.97110   0.24083   0.00000  Uiso   1.00
H414   H     0.32573   0.95489   0.24770   0.00000  Uiso   1.00
N415   N     0.07542   0.95265   0.12981   0.00000  Uiso   1.00
H416   H     0.08309   0.93541   0.10206   0.00000  Uiso   1.00
H417   H     0.06561   0.93185   0.15503   0.00000  Uiso   1.00
N418   N     0.25791   0.71402   0.20352   0.00000  Uiso   1.00
H419   H     0.25024   0.73126   0.23128   0.00000  Uiso   1.00
H420   H     0.26772   0.73482   0.17831   0.00000  Uiso   1.00
C421   C     0.22939   0.89396   0.05421   0.00000  Uiso   1.00
O422   O     0.21234   0.92854   0.05869   0.00000  Uiso   1.00
O423   O     0.28075   0.88573   0.07166   0.00000  Uiso   1.00
H424   H     0.29959   0.91042   0.08870   0.00000  Uiso   1.00
C425   C     0.10397   0.77269   0.27913   0.00000  Uiso   1.00
O426   O     0.12104   0.73810   0.27467   0.00000  Uiso   1.00
O427   O     0.05260   0.78092   0.26163   0.00000  Uiso   1.00
H428   H     0.03379   0.75622   0.24459   0.00000  Uiso   1.00
N429   N     0.22925   0.89120   0.29087   0.00000  Uiso   1.00
H430   H     0.21850   0.92150   0.29731   0.00000  Uiso   1.00
H431   H     0.26787   0.88786   0.30557   0.00000  Uiso   1.00
N432   N     0.10408   0.77546   0.04246   0.00000  Uiso   1.00
H433   H     0.11484   0.74517   0.03603   0.00000  Uiso   1.00
H434   H     0.06546   0.77880   0.02775   0.00000  Uiso   1.00
C435   C     0.49937   0.75352   0.16697   0.00000  Uiso   1.00
C436   C     0.50063   0.91314   0.16636   0.00000  Uiso   1.00
C437   C     0.40062   0.83274   0.15496   0.00000  Uiso   1.00
C438   C     0.59938   0.83393   0.17837   0.00000  Uiso   1.00
C439   C     0.34591   0.82695   0.14966   0.00000  Uiso   1.00
C440   C     0.65409   0.83971   0.18368   0.00000  Uiso   1.00
C441   C     0.45353   0.68667   0.14930   0.00000  Uiso   1.00
C442   C     0.54647   0.98000   0.18403   0.00000  Uiso   1.00
C443   C     0.45495   0.97675   0.14758   0.00000  Uiso   1.00
C444   C     0.54505   0.68992   0.18575   0.00000  Uiso   1.00
C445   C     0.50113   0.95736   0.16530   0.00000  Uiso   1.00
C446   C     0.49887   0.70931   0.16803   0.00000  Uiso   1.00
C447   C     0.53030   0.86204   0.02698   0.00000  Uiso   1.00
C448   C     0.46970   0.80462   0.30636   0.00000  Uiso   1.00
C449   C     0.53043   0.86181   0.31222   0.00000  Uiso   1.00
C450   C     0.46957   0.80486   0.02111   0.00000  Uiso   1.00
N451   N     0.49999   0.83332   0.28573   0.00000  Uiso   1.00
N452   N     0.50001   0.83334   0.04760   0.00000  Uiso   1.00
O453   O     0.50000   0.77225   0.20487   0.00000  Uiso   1.00
O454   O     0.50000   0.89442   0.12846   0.00000  Uiso   1.00
O455   O     0.50000   0.77226   0.12843   0.00000  Uiso   1.00
O456   O     0.50000   0.89441   0.20490   0.00000  Uiso   1.00
O457   O     0.42392   0.83333   0.19595   0.00000  Uiso   1.00
O458   O     0.57608   0.83334   0.13739   0.00000  Uiso   1.00
O459   O     0.42392   0.83334   0.11950   0.00000  Uiso   1.00
O460   O     0.57608   0.83333   0.21383   0.00000  Uiso   1.00
Zn461  Zn    0.50000   0.83333   0.21771   0.00000  Uiso   1.00
Zn462  Zn    0.50000   0.83334   0.11563   0.00000  Uiso   1.00
N463   N     0.65327   0.80412   0.11049   0.00000  Uiso   1.00
H464   H     0.63971   0.77516   0.12192   0.00000  Uiso   1.00
H465   H     0.34538   0.79756   0.08756   0.00000  Uiso   1.00
N466   N     0.34673   0.86254   0.22284   0.00000  Uiso   1.00
H467   H     0.36027   0.89150   0.21141   0.00000  Uiso   1.00
H468   H     0.65462   0.86909   0.24577   0.00000  Uiso   1.00
C469   C     0.40408   0.70758   0.13341   0.00000  Uiso   1.00
O470   O     0.38931   0.73466   0.15663   0.00000  Uiso   1.00
O471   O     0.37391   0.69559   0.09251   0.00000  Uiso   1.00
H472   H     0.34092   0.71178   0.08565   0.00000  Uiso   1.00
C473   C     0.59591   0.95909   0.19994   0.00000  Uiso   1.00
O474   O     0.61068   0.93199   0.17673   0.00000  Uiso   1.00
O475   O     0.62609   0.97110   0.24083   0.00000  Uiso   1.00
H476   H     0.65907   0.95489   0.24770   0.00000  Uiso   1.00
N477   N     0.40876   0.95265   0.12981   0.00000  Uiso   1.00
H478   H     0.41642   0.93541   0.10206   0.00000  Uiso   1.00
H479   H     0.39894   0.93185   0.15503   0.00000  Uiso   1.00
N480   N     0.59124   0.71402   0.20352   0.00000  Uiso   1.00
H481   H     0.58358   0.73126   0.23128   0.00000  Uiso   1.00
H482   H     0.60105   0.73482   0.17831   0.00000  Uiso   1.00
C483   C     0.56272   0.89396   0.05421   0.00000  Uiso   1.00
O484   O     0.54567   0.92854   0.05869   0.00000  Uiso   1.00
O485   O     0.61408   0.88573   0.07166   0.00000  Uiso   1.00
H486   H     0.63292   0.91042   0.08870   0.00000  Uiso   1.00
C487   C     0.43731   0.77269   0.27913   0.00000  Uiso   1.00
O488   O     0.45437   0.73810   0.27467   0.00000  Uiso   1.00
O489   O     0.38594   0.78092   0.26163   0.00000  Uiso   1.00
H490   H     0.36712   0.75622   0.24459   0.00000  Uiso   1.00
N491   N     0.56259   0.89120   0.29087   0.00000  Uiso   1.00
H492   H     0.55183   0.92150   0.29731   0.00000  Uiso   1.00
H493   H     0.60120   0.88786   0.30557   0.00000  Uiso   1.00
N494   N     0.43741   0.77546   0.04246   0.00000  Uiso   1.00
H495   H     0.44817   0.74517   0.03603   0.00000  Uiso   1.00
H496   H     0.39880   0.77880   0.02775   0.00000  Uiso   1.00
C497   C     0.83270   0.75352   0.16697   0.00000  Uiso   1.00
C498   C     0.83396   0.91314   0.16636   0.00000  Uiso   1.00
C499   C     0.73395   0.83274   0.15496   0.00000  Uiso   1.00
C500   C     0.93271   0.83393   0.17837   0.00000  Uiso   1.00
C501   C     0.67924   0.82695   0.14966   0.00000  Uiso   1.00
C502   C     0.98742   0.83971   0.18368   0.00000  Uiso   1.00
C503   C     0.78686   0.68667   0.14930   0.00000  Uiso   1.00
C504   C     0.87980   0.98000   0.18403   0.00000  Uiso   1.00
C505   C     0.78829   0.97675   0.14758   0.00000  Uiso   1.00
C506   C     0.87838   0.68992   0.18575   0.00000  Uiso   1.00
C507   C     0.83446   0.95736   0.16530   0.00000  Uiso   1.00
C508   C     0.83221   0.70931   0.16803   0.00000  Uiso   1.00
C509   C     0.86364   0.86204   0.02698   0.00000  Uiso   1.00
C510   C     0.80303   0.80462   0.30636   0.00000  Uiso   1.00
C511   C     0.86377   0.86181   0.31222   0.00000  Uiso   1.00
C512   C     0.80290   0.80486   0.02111   0.00000  Uiso   1.00
N513   N     0.83332   0.83332   0.28573   0.00000  Uiso   1.00
N514   N     0.83335   0.83334   0.04760   0.00000  Uiso   1.00
O515   O     0.83333   0.77225   0.20487   0.00000  Uiso   1.00
O516   O     0.83334   0.89442   0.12846   0.00000  Uiso   1.00
O517   O     0.83333   0.77226   0.12843   0.00000  Uiso   1.00
O518   O     0.83334   0.89441   0.20490   0.00000  Uiso   1.00
O519   O     0.75725   0.83333   0.19595   0.00000  Uiso   1.00
O520   O     0.90942   0.83334   0.13739   0.00000  Uiso   1.00
O521   O     0.75725   0.83334   0.11950   0.00000  Uiso   1.00
O522   O     0.90942   0.83333   0.21383   0.00000  Uiso   1.00
Zn523  Zn    0.83333   0.83333   0.21771   0.00000  Uiso   1.00
Zn524  Zn    0.83333   0.83334   0.11563   0.00000  Uiso   1.00
N525   N     0.98660   0.80412   0.11049   0.00000  Uiso   1.00
H526   H     0.97305   0.77516   0.12192   0.00000  Uiso   1.00
H527   H     0.67871   0.79756   0.08756   0.00000  Uiso   1.00
N528   N     0.68007   0.86254   0.22284   0.00000  Uiso   1.00
H529   H     0.69360   0.89150   0.21141   0.00000  Uiso   1.00
H530   H     0.98795   0.86909   0.24577   0.00000  Uiso   1.00
C531   C     0.73741   0.70758   0.13341   0.00000  Uiso   1.00
O532   O     0.72264   0.73466   0.15663   0.00000  Uiso   1.00
O533   O     0.70724   0.69559   0.09251   0.00000  Uiso   1.00
H534   H     0.67426   0.71178   0.08565   0.00000  Uiso   1.00
C535   C     0.92925   0.95909   0.19994   0.00000  Uiso   1.00
O536   O     0.94402   0.93199   0.17673   0.00000  Uiso   1.00
O537   O     0.95942   0.97110   0.24083   0.00000  Uiso   1.00
H538   H     0.99240   0.95489   0.24770   0.00000  Uiso   1.00
N539   N     0.74209   0.95265   0.12981   0.00000  Uiso   1.00
H540   H     0.74976   0.93541   0.10206   0.00000  Uiso   1.00
H541   H     0.73228   0.93185   0.15503   0.00000  Uiso   1.00
N542   N     0.92457   0.71402   0.20352   0.00000  Uiso   1.00
H543   H     0.91691   0.73126   0.23128   0.00000  Uiso   1.00
H544   H     0.93439   0.73482   0.17831   0.00000  Uiso   1.00
C545   C     0.89605   0.89396   0.05421   0.00000  Uiso   1.00
O546   O     0.87901   0.92854   0.05869   0.00000  Uiso   1.00
O547   O     0.94742   0.88573   0.07166   0.00000  Uiso   1.00
H548   H     0.96625   0.91042   0.08870   0.00000  Uiso   1.00
C549   C     0.77064   0.77269   0.27913   0.00000  Uiso   1.00
O550   O     0.78770   0.73810   0.27467   0.00000  Uiso   1.00
O551   O     0.71927   0.78092   0.26163   0.00000  Uiso   1.00
H552   H     0.70046   0.75622   0.24459   0.00000  Uiso   1.00
N553   N     0.89592   0.89120   0.29087   0.00000  Uiso   1.00
H554   H     0.88517   0.92150   0.29731   0.00000  Uiso   1.00
H555   H     0.93454   0.88786   0.30557   0.00000  Uiso   1.00
N556   N     0.77074   0.77546   0.04246   0.00000  Uiso   1.00
H557   H     0.78151   0.74517   0.03603   0.00000  Uiso   1.00
H558   H     0.73213   0.77880   0.02775   0.00000  Uiso   1.00
C559   C     0.16604   0.08686   0.50030   0.00000  Uiso   1.00
C560   C     0.16729   0.24648   0.49970   0.00000  Uiso   1.00
C561   C     0.06729   0.16607   0.48830   0.00000  Uiso   1.00
C562   C     0.26605   0.16726   0.51170   0.00000  Uiso   1.00
C563   C     0.01258   0.16028   0.48299   0.00000  Uiso   1.00
C564   C     0.32076   0.17304   0.51701   0.00000  Uiso   1.00
C565   C     0.12019   0.02000   0.48263   0.00000  Uiso   1.00
C566   C     0.21314   0.31333   0.51737   0.00000  Uiso   1.00
C567   C     0.12162   0.31009   0.48091   0.00000  Uiso   1.00
C568   C     0.21171   0.02325   0.51909   0.00000  Uiso   1.00
C569   C     0.16779   0.29069   0.49863   0.00000  Uiso   1.00
C570   C     0.16554   0.04264   0.50137   0.00000  Uiso   1.00
C571   C     0.19697   0.19537   0.36031   0.00000  Uiso   1.00
C572   C     0.13637   0.13796   0.63969   0.00000  Uiso   1.00
C573   C     0.19710   0.19514   0.64556   0.00000  Uiso   1.00
C574   C     0.13623   0.13819   0.35444   0.00000  Uiso   1.00
N575   N     0.16665   0.16666   0.61907   0.00000  Uiso   1.00
N576   N     0.16668   0.16668   0.38093   0.00000  Uiso   1.00
O577   O     0.16666   0.10558   0.53821   0.00000  Uiso   1.00
O578   O     0.16667   0.22775   0.46179   0.00000  Uiso   1.00
O579   O     0.16666   0.10559   0.46176   0.00000  Uiso   1.00
O580   O     0.16667   0.22774   0.53824   0.00000  Uiso   1.00
O581   O     0.09058   0.16666   0.52928   0.00000  Uiso   1.00
O582   O     0.24275   0.16667   0.47072   0.00000  Uiso   1.00
O583   O     0.09058   0.16667   0.45284   0.00000  Uiso   1.00
O584   O     0.24275   0.16666   0.54716   0.00000  Uiso   1.00
Zn585  Zn    0.16667   0.16666   0.55104   0.00000  Uiso   1.00
Zn586  Zn    0.16667   0.16667   0.44896   0.00000  Uiso   1.00
N587   N     0.31993   0.13746   0.44383   0.00000  Uiso   1.00
H588   H     0.30638   0.10850   0.45526   0.00000  Uiso   1.00
H589   H     0.01204   0.13089   0.42090   0.00000  Uiso   1.00
N590   N     0.01340   0.19587   0.55617   0.00000  Uiso   1.00
H591   H     0.02694   0.22483   0.54474   0.00000  Uiso   1.00
H592   H     0.32129   0.20243   0.57910   0.00000  Uiso   1.00
C593   C     0.07075   0.04091   0.46674   0.00000  Uiso   1.00
O594   O     0.05598   0.06799   0.48996   0.00000  Uiso   1.00
O595   O     0.04058   0.02892   0.42584   0.00000  Uiso   1.00
H596   H     0.00759   0.04512   0.41899   0.00000  Uiso   1.00
C597   C     0.26258   0.29242   0.53327   0.00000  Uiso   1.00
O598   O     0.27735   0.26532   0.51007   0.00000  Uiso   1.00
O599   O     0.29276   0.30443   0.57416   0.00000  Uiso   1.00
H600   H     0.32573   0.28823   0.58103   0.00000  Uiso   1.00
N601   N     0.07542   0.28598   0.46315   0.00000  Uiso   1.00
H602   H     0.08309   0.26874   0.43539   0.00000  Uiso   1.00
H603   H     0.06561   0.26519   0.48836   0.00000  Uiso   1.00
N604   N     0.25791   0.04735   0.53685   0.00000  Uiso   1.00
H605   H     0.25024   0.06459   0.56461   0.00000  Uiso   1.00
H606   H     0.26772   0.06815   0.51164   0.00000  Uiso   1.00
C607   C     0.22939   0.22730   0.38754   0.00000  Uiso   1.00
O608   O     0.21234   0.26188   0.39202   0.00000  Uiso   1.00
O609   O     0.28075   0.21906   0.40499   0.00000  Uiso   1.00
H610   H     0.29959   0.24376   0.42204   0.00000  Uiso   1.00
C611   C     0.10397   0.10602   0.61246   0.00000  Uiso   1.00
O612   O     0.12104   0.07143   0.60800   0.00000  Uiso   1.00
O613   O     0.05260   0.11426   0.59497   0.00000  Uiso   1.00
H614   H     0.03379   0.08955   0.57792   0.00000  Uiso   1.00
N615   N     0.22925   0.22454   0.62420   0.00000  Uiso   1.00
H616   H     0.21850   0.25483   0.63064   0.00000  Uiso   1.00
H617   H     0.26787   0.22120   0.63890   0.00000  Uiso   1.00
N618   N     0.10408   0.10880   0.37580   0.00000  Uiso   1.00
H619   H     0.11484   0.07850   0.36936   0.00000  Uiso   1.00
H620   H     0.06546   0.11213   0.36108   0.00000  Uiso   1.00
C621   C     0.49937   0.08686   0.50030   0.00000  Uiso   1.00
C622   C     0.50063   0.24648   0.49970   0.00000  Uiso   1.00
C623   C     0.40062   0.16607   0.48830   0.00000  Uiso   1.00
C624   C     0.59938   0.16726   0.51170   0.00000  Uiso   1.00
C625   C     0.34591   0.16028   0.48299   0.00000  Uiso   1.00
C626   C     0.65409   0.17304   0.51701   0.00000  Uiso   1.00
C627   C     0.45353   0.02000   0.48263   0.00000  Uiso   1.00
C628   C     0.54647   0.31333   0.51737   0.00000  Uiso   1.00
C629   C     0.45495   0.31009   0.48091   0.00000  Uiso   1.00
C630   C     0.54505   0.02325   0.51909   0.00000  Uiso   1.00
C631   C     0.50113   0.29069   0.49863   0.00000  Uiso   1.00
C632   C     0.49887   0.04264   0.50137   0.00000  Uiso   1.00
C633   C     0.53030   0.19537   0.36031   0.00000  Uiso   1.00
C634   C     0.46970   0.13796   0.63969   0.00000  Uiso   1.00
C635   C     0.53043   0.19514   0.64556   0.00000  Uiso   1.00
C636   C     0.46957   0.13819   0.35444   0.00000  Uiso   1.00
N637   N     0.49999   0.16666   0.61907   0.00000  Uiso   1.00
N638   N     0.50001   0.16668   0.38093   0.00000  Uiso   1.00
O639   O     0.50000   0.10558   0.53821   0.00000  Uiso   1.00
O640   O     0.50000   0.22775   0.46179   0.00000  Uiso   1.00
O641   O     0.50000   0.10559   0.46176   0.00000  Uiso   1.00
O642   O     0.50000   0.22774   0.53824   0.00000  Uiso   1.00
O643   O     0.42392   0.16666   0.52928   0.00000  Uiso   1.00
O644   O     0.57608   0.16667   0.47072   0.00000  Uiso   1.00
O645   O     0.42392   0.16667   0.45284   0.00000  Uiso   1.00
O646   O     0.57608   0.16666   0.54716   0.00000  Uiso   1.00
Zn647  Zn    0.50000   0.16666   0.55104   0.00000  Uiso   1.00
Zn648  Zn    0.50000   0.16667   0.44896   0.00000  Uiso   1.00
N649   N     0.65327   0.13746   0.44383   0.00000  Uiso   1.00
H650   H     0.63971   0.10850   0.45526   0.00000  Uiso   1.00
H651   H     0.34538   0.13089   0.42090   0.00000  Uiso   1.00
N652   N     0.34673   0.19587   0.55617   0.00000  Uiso   1.00
H653   H     0.36027   0.22483   0.54474   0.00000  Uiso   1.00
H654   H     0.65462   0.20243   0.57910   0.00000  Uiso   1.00
C655   C     0.40408   0.04091   0.46674   0.00000  Uiso   1.00
O656   O     0.38931   0.06799   0.48996   0.00000  Uiso   1.00
O657   O     0.37391   0.02892   0.42584   0.00000  Uiso   1.00
H658   H     0.34092   0.04512   0.41899   0.00000  Uiso   1.00
C659   C     0.59591   0.29242   0.53327   0.00000  Uiso   1.00
O660   O     0.61068   0.26532   0.51007   0.00000  Uiso   1.00
O661   O     0.62609   0.30443   0.57416   0.00000  Uiso   1.00
H662   H     0.65907   0.28823   0.58103   0.00000  Uiso   1.00
N663   N     0.40876   0.28598   0.46315   0.00000  Uiso   1.00
H664   H     0.41642   0.26874   0.43539   0.00000  Uiso   1.00
H665   H     0.39894   0.26519   0.48836   0.00000  Uiso   1.00
N666   N     0.59124   0.04735   0.53685   0.00000  Uiso   1.00
H667   H     0.58358   0.06459   0.56461   0.00000  Uiso   1.00
H668   H     0.60105   0.06815   0.51164   0.00000  Uiso   1.00
C669   C     0.56272   0.22730   0.38754   0.00000  Uiso   1.00
O670   O     0.54567   0.26188   0.39202   0.00000  Uiso   1.00
O671   O     0.61408   0.21906   0.40499   0.00000  Uiso   1.00
H672   H     0.63292   0.24376   0.42204   0.00000  Uiso   1.00
C673   C     0.43731   0.10602   0.61246   0.00000  Uiso   1.00
O674   O     0.45437   0.07143   0.60800   0.00000  Uiso   1.00
O675   O     0.38594   0.11426   0.59497   0.00000  Uiso   1.00
H676   H     0.36712   0.08955   0.57792   0.00000  Uiso   1.00
N677   N     0.56259   0.22454   0.62420   0.00000  Uiso   1.00
H678   H     0.55183   0.25483   0.63064   0.00000  Uiso   1.00
H679   H     0.60120   0.22120   0.63890   0.00000  Uiso   1.00
N680   N     0.43741   0.10880   0.37580   0.00000  Uiso   1.00
H681   H     0.44817   0.07850   0.36936   0.00000  Uiso   1.00
H682   H     0.39880   0.11213   0.36108   0.00000  Uiso   1.00
C683   C     0.83270   0.08686   0.50030   0.00000  Uiso   1.00
C684   C     0.83396   0.24648   0.49970   0.00000  Uiso   1.00
C685   C     0.73395   0.16607   0.48830   0.00000  Uiso   1.00
C686   C     0.93271   0.16726   0.51170   0.00000  Uiso   1.00
C687   C     0.67924   0.16028   0.48299   0.00000  Uiso   1.00
C688   C     0.98742   0.17304   0.51701   0.00000  Uiso   1.00
C689   C     0.78686   0.02000   0.48263   0.00000  Uiso   1.00
C690   C     0.87980   0.31333   0.51737   0.00000  Uiso   1.00
C691   C     0.78829   0.31009   0.48091   0.00000  Uiso   1.00
C692   C     0.87838   0.02325   0.51909   0.00000  Uiso   1.00
C693   C     0.83446   0.29069   0.49863   0.00000  Uiso   1.00
C694   C     0.83221   0.04264   0.50137   0.00000  Uiso   1.00
C695   C     0.86364   0.19537   0.36031   0.00000  Uiso   1.00
C696   C     0.80303   0.13796   0.63969   0.00000  Uiso   1.00
C697   C     0.86377   0.19514   0.64556   0.00000  Uiso   1.00
C698   C     0.80290   0.13819   0.35444   0.00000  Uiso   1.00
N699   N     0.83332   0.16666   0.61907   0.00000  Uiso   1.00
N700   N     0.83335   0.16668   0.38093   0.00000  Uiso   1.00
O701   O     0.83333   0.10558   0.53821   0.00000  Uiso   1.00
O702   O     0.83334   0.22775   0.46179   0.00000  Uiso   1.00
O703   O     0.83333   0.10559   0.46176   0.00000  Uiso   1.00
O704   O     0.83334   0.22774   0.53824   0.00000  Uiso   1.00
O705   O     0.75725   0.16666   0.52928   0.00000  Uiso   1.00
O706   O     0.90942   0.16667   0.47072   0.00000  Uiso   1.00
O707   O     0.75725   0.16667   0.45284   0.00000  Uiso   1.00
O708   O     0.90942   0.16666   0.54716   0.00000  Uiso   1.00
Zn709  Zn    0.83333   0.16666   0.55104   0.00000  Uiso   1.00
Zn710  Zn    0.83333   0.16667   0.44896   0.00000  Uiso   1.00
N711   N     0.98660   0.13746   0.44383   0.00000  Uiso   1.00
H712   H     0.97305   0.10850   0.45526   0.00000  Uiso   1.00
H713   H     0.67871   0.13089   0.42090   0.00000  Uiso   1.00
N714   N     0.68007   0.19587   0.55617   0.00000  Uiso   1.00
H715   H     0.69360   0.22483   0.54474   0.00000  Uiso   1.00
H716   H     0.98795   0.20243   0.57910   0.00000  Uiso   1.00
C717   C     0.73741   0.04091   0.46674   0.00000  Uiso   1.00
O718   O     0.72264   0.06799   0.48996   0.00000  Uiso   1.00
O719   O     0.70724   0.02892   0.42584   0.00000  Uiso   1.00
H720   H     0.67426   0.04512   0.41899   0.00000  Uiso   1.00
C721   C     0.92925   0.29242   0.53327   0.00000  Uiso   1.00
O722   O     0.94402   0.26532   0.51007   0.00000  Uiso   1.00
O723   O     0.95942   0.30443   0.57416   0.00000  Uiso   1.00
H724   H     0.99240   0.28823   0.58103   0.00000  Uiso   1.00
N725   N     0.74209   0.28598   0.46315   0.00000  Uiso   1.00
H726   H     0.74976   0.26874   0.43539   0.00000  Uiso   1.00
H727   H     0.73228   0.26519   0.48836   0.00000  Uiso   1.00
N728   N     0.92457   0.04735   0.53685   0.00000  Uiso   1.00
H729   H     0.91691   0.06459   0.56461   0.00000  Uiso   1.00
H730   H     0.93439   0.06815   0.51164   0.00000  Uiso   1.00
C731   C     0.89605   0.22730   0.38754   0.00000  Uiso   1.00
O732   O     0.87901   0.26188   0.39202   0.00000  Uiso   1.00
O733   O     0.94742   0.21906   0.40499   0.00000  Uiso   1.00
H734   H     0.96625   0.24376   0.42204   0.00000  Uiso   1.00
C735   C     0.77064   0.10602   0.61246   0.00000  Uiso   1.00
O736   O     0.78770   0.07143   0.60800   0.00000  Uiso   1.00
O737   O     0.71927   0.11426   0.59497   0.00000  Uiso   1.00
H738   H     0.70046   0.08955   0.57792   0.00000  Uiso   1.00
N739   N     0.89592   0.22454   0.62420   0.00000  Uiso   1.00
H740   H     0.88517   0.25483   0.63064   0.00000  Uiso   1.00
H741   H     0.93454   0.22120   0.63890   0.00000  Uiso   1.00
N742   N     0.77074   0.10880   0.37580   0.00000  Uiso   1.00
H743   H     0.78151   0.07850   0.36936   0.00000  Uiso   1.00
H744   H     0.73213   0.11213   0.36108   0.00000  Uiso   1.00
C745   C     0.16604   0.42019   0.50030   0.00000  Uiso   1.00
C746   C     0.16729   0.57981   0.49970   0.00000  Uiso   1.00
C747   C     0.06729   0.49940   0.48830   0.00000  Uiso   1.00
C748   C     0.26605   0.50059   0.51170   0.00000  Uiso   1.00
C749   C     0.01258   0.49362   0.48299   0.00000  Uiso   1.00
C750   C     0.32076   0.50638   0.51701   0.00000  Uiso   1.00
C751   C     0.12019   0.35334   0.48263   0.00000  Uiso   1.00
C752   C     0.21314   0.64667   0.51737   0.00000  Uiso   1.00
C753   C     0.12162   0.64342   0.48091   0.00000  Uiso   1.00
C754   C     0.21171   0.35658   0.51909   0.00000  Uiso   1.00
C755   C     0.16779   0.62403   0.49863   0.00000  Uiso   1.00
C756   C     0.16554   0.37597   0.50137   0.00000  Uiso   1.00
C757   C     0.19697   0.52871   0.36031   0.00000  Uiso   1.00
C758   C     0.13637   0.47129   0.63969   0.00000  Uiso   1.00
C759   C     0.19710   0.52847   0.64556   0.00000  Uiso   1.00
C760   C     0.13623   0.47153   0.35444   0.00000  Uiso   1.00
N761   N     0.16665   0.49999   0.61907   0.00000  Uiso   1.00
N762   N     0.16668   0.50001   0.38093   0.00000  Uiso   1.00
O763   O     0.16666   0.43892   0.53821   0.00000  Uiso   1.00
O764   O     0.16667   0.56108   0.46179   0.00000  Uiso   1.00
O765   O     0.16666   0.43893   0.46176   0.00000  Uiso   1.00
O766   O     0.16667   0.56107   0.53824   0.00000  Uiso   1.00
O767   O     0.09058   0.50000   0.52928   0.00000  Uiso   1.00
O768   O     0.24275   0.50000   0.47072   0.00000  Uiso   1.00
O769   O     0.09058   0.50000   0.45284   0.00000  Uiso   1.00
O770   O     0.24275   0.50000   0.54716   0.00000  Uiso   1.00
Zn771  Zn    0.16667   0.49999   0.55104   0.00000  Uiso   1.00
Zn772  Zn    0.16667   0.50001   0.44896   0.00000  Uiso   1.00
N773   N     0.31993   0.47079   0.44383   0.00000  Uiso   1.00
H774   H     0.30638   0.44183   0.45526   0.00000  Uiso   1.00
H775   H     0.01204   0.46422   0.42090   0.00000  Uiso   1.00
N776   N     0.01340   0.52920   0.55617   0.00000  Uiso   1.00
H777   H     0.02694   0.55816   0.54474   0.00000  Uiso   1.00
H778   H     0.32129   0.53576   0.57910   0.00000  Uiso   1.00
C779   C     0.07075   0.37425   0.46674   0.00000  Uiso   1.00
O780   O     0.05598   0.40132   0.48996   0.00000  Uiso   1.00
O781   O     0.04058   0.36225   0.42584   0.00000  Uiso   1.00
H782   H     0.00759   0.37845   0.41899   0.00000  Uiso   1.00
C783   C     0.26258   0.62576   0.53327   0.00000  Uiso   1.00
O784   O     0.27735   0.59866   0.51007   0.00000  Uiso   1.00
O785   O     0.29276   0.63776   0.57416   0.00000  Uiso   1.00
H786   H     0.32573   0.62156   0.58103   0.00000  Uiso   1.00
N787   N     0.07542   0.61932   0.46315   0.00000  Uiso   1.00
H788   H     0.08309   0.60208   0.43539   0.00000  Uiso   1.00
H789   H     0.06561   0.59852   0.48836   0.00000  Uiso   1.00
N790   N     0.25791   0.38069   0.53685   0.00000  Uiso   1.00
H791   H     0.25024   0.39793   0.56461   0.00000  Uiso   1.00
H792   H     0.26772   0.40149   0.51164   0.00000  Uiso   1.00
C793   C     0.22939   0.56063   0.38754   0.00000  Uiso   1.00
O794   O     0.21234   0.59521   0.39202   0.00000  Uiso   1.00
O795   O     0.28075   0.55239   0.40499   0.00000  Uiso   1.00
H796   H     0.29959   0.57709   0.42204   0.00000  Uiso   1.00
C797   C     0.10397   0.43936   0.61246   0.00000  Uiso   1.00
O798   O     0.12104   0.40477   0.60800   0.00000  Uiso   1.00
O799   O     0.05260   0.44759   0.59497   0.00000  Uiso   1.00
H800   H     0.03379   0.42289   0.57792   0.00000  Uiso   1.00
N801   N     0.22925   0.55787   0.62420   0.00000  Uiso   1.00
H802   H     0.21850   0.58816   0.63064   0.00000  Uiso   1.00
H803   H     0.26787   0.55453   0.63890   0.00000  Uiso   1.00
N804   N     0.10408   0.44213   0.37580   0.00000  Uiso   1.00
H805   H     0.11484   0.41184   0.36936   0.00000  Uiso   1.00
H806   H     0.06546   0.44546   0.36108   0.00000  Uiso   1.00
C807   C     0.49937   0.42019   0.50030   0.00000  Uiso   1.00
C808   C     0.50063   0.57981   0.49970   0.00000  Uiso   1.00
C809   C     0.40062   0.49940   0.48830   0.00000  Uiso   1.00
C810   C     0.59938   0.50059   0.51170   0.00000  Uiso   1.00
C811   C     0.34591   0.49362   0.48299   0.00000  Uiso   1.00
C812   C     0.65409   0.50638   0.51701   0.00000  Uiso   1.00
C813   C     0.45353   0.35334   0.48263   0.00000  Uiso   1.00
C814   C     0.54647   0.64667   0.51737   0.00000  Uiso   1.00
C815   C     0.45495   0.64342   0.48091   0.00000  Uiso   1.00
C816   C     0.54505   0.35658   0.51909   0.00000  Uiso   1.00
C817   C     0.50113   0.62403   0.49863   0.00000  Uiso   1.00
C818   C     0.49887   0.37597   0.50137   0.00000  Uiso   1.00
C819   C     0.53030   0.52871   0.36031   0.00000  Uiso   1.00
C820   C     0.46970   0.47129   0.63969   0.00000  Uiso   1.00
C821   C     0.53043   0.52847   0.64556   0.00000  Uiso   1.00
C822   C     0.46957   0.47153   0.35444   0.00000  Uiso   1.00
N823   N     0.49999   0.49999   0.61907   0.00000  Uiso   1.00
N824   N     0.50001   0.50001   0.38093   0.00000  Uiso   1.00
O825   O     0.50000   0.43892   0.53821   0.00000  Uiso   1.00
O826   O     0.50000   0.56108   0.46179   0.00000  Uiso   1.00
O827   O     0.50000   0.43893   0.46176   0.00000  Uiso   1.00
O828   O     0.50000   0.56107   0.53824   0.00000  Uiso   1.00
O829   O     0.42392   0.50000   0.52928   0.00000  Uiso   1.00
O830   O     0.57608   0.50000   0.47072   0.00000  Uiso   1.00
O831   O     0.42392   0.50000   0.45284   0.00000  Uiso   1.00
O832   O     0.57608   0.50000   0.54716   0.00000  Uiso   1.00
Zn833  Zn    0.50000   0.49999   0.55104   0.00000  Uiso   1.00
Zn834  Zn    0.50000   0.50001   0.44896   0.00000  Uiso   1.00
N835   N     0.65327   0.47079   0.44383   0.00000  Uiso   1.00
H836   H     0.63971   0.44183   0.45526   0.00000  Uiso   1.00
H837   H     0.34538   0.46422   0.42090   0.00000  Uiso   1.00
N838   N     0.34673   0.52920   0.55617   0.00000  Uiso   1.00
H839   H     0.36027   0.55816   0.54474   0.00000  Uiso   1.00
H840   H     0.65462   0.53576   0.57910   0.00000  Uiso   1.00
C841   C     0.40408   0.37425   0.46674   0.00000  Uiso   1.00
O842   O     0.38931   0.40132   0.48996   0.00000  Uiso   1.00
O843   O     0.37391   0.36225   0.42584   0.00000  Uiso   1.00
H844   H     0.34092   0.37845   0.41899   0.00000  Uiso   1.00
C845   C     0.59591   0.62576   0.53327   0.00000  Uiso   1.00
O846   O     0.61068   0.59866   0.51007   0.00000  Uiso   1.00
O847   O     0.62609   0.63776   0.57416   0.00000  Uiso   1.00
H848   H     0.65907   0.62156   0.58103   0.00000  Uiso   1.00
N849   N     0.40876   0.61932   0.46315   0.00000  Uiso   1.00
H850   H     0.41642   0.60208   0.43539   0.00000  Uiso   1.00
H851   H     0.39894   0.59852   0.48836   0.00000  Uiso   1.00
N852   N     0.59124   0.38069   0.53685   0.00000  Uiso   1.00
H853   H     0.58358   0.39793   0.56461   0.00000  Uiso   1.00
H854   H     0.60105   0.40149   0.51164   0.00000  Uiso   1.00
C855   C     0.56272   0.56063   0.38754   0.00000  Uiso   1.00
O856   O     0.54567   0.59521   0.39202   0.00000  Uiso   1.00
O857   O     0.61408   0.55239   0.40499   0.00000  Uiso   1.00
H858   H     0.63292   0.57709   0.42204   0.00000  Uiso   1.00
C859   C     0.43731   0.43936   0.61246   0.00000  Uiso   1.00
O860   O     0.45437   0.40477   0.60800   0.00000  Uiso   1.00
O861   O     0.38594   0.44759   0.59497   0.00000  Uiso   1.00
H862   H     0.36712   0.42289   0.57792   0.00000  Uiso   1.00
N863   N     0.56259   0.55787   0.62420   0.00000  Uiso   1.00
H864   H     0.55183   0.58816   0.63064   0.00000  Uiso   1.00
H865   H     0.60120   0.55453   0.63890   0.00000  Uiso   1.00
N866   N     0.43741   0.44213   0.37580   0.00000  Uiso   1.00
H867   H     0.44817   0.41184   0.36936   0.00000  Uiso   1.00
H868   H     0.39880   0.44546   0.36108   0.00000  Uiso   1.00
C869   C     0.83270   0.42019   0.50030   0.00000  Uiso   1.00
C870   C     0.83396   0.57981   0.49970   0.00000  Uiso   1.00
C871   C     0.73395   0.49940   0.48830   0.00000  Uiso   1.00
C872   C     0.93271   0.50059   0.51170   0.00000  Uiso   1.00
C873   C     0.67924   0.49362   0.48299   0.00000  Uiso   1.00
C874   C     0.98742   0.50638   0.51701   0.00000  Uiso   1.00
C875   C     0.78686   0.35334   0.48263   0.00000  Uiso   1.00
C876   C     0.87980   0.64667   0.51737   0.00000  Uiso   1.00
C877   C     0.78829   0.64342   0.48091   0.00000  Uiso   1.00
C878   C     0.87838   0.35658   0.51909   0.00000  Uiso   1.00
C879   C     0.83446   0.62403   0.49863   0.00000  Uiso   1.00
C880   C     0.83221   0.37597   0.50137   0.00000  Uiso   1.00
C881   C     0.86364   0.52871   0.36031   0.00000  Uiso   1.00
C882   C     0.80303   0.47129   0.63969   0.00000  Uiso   1.00
C883   C     0.86377   0.52847   0.64556   0.00000  Uiso   1.00
C884   C     0.80290   0.47153   0.35444   0.00000  Uiso   1.00
N885   N     0.83332   0.49999   0.61907   0.00000  Uiso   1.00
N886   N     0.83335   0.50001   0.38093   0.00000  Uiso   1.00
O887   O     0.83333   0.43892   0.53821   0.00000  Uiso   1.00
O888   O     0.83334   0.56108   0.46179   0.00000  Uiso   1.00
O889   O     0.83333   0.43893   0.46176   0.00000  Uiso   1.00
O890   O     0.83334   0.56107   0.53824   0.00000  Uiso   1.00
O891   O     0.75725   0.50000   0.52928   0.00000  Uiso   1.00
O892   O     0.90942   0.50000   0.47072   0.00000  Uiso   1.00
O893   O     0.75725   0.50000   0.45284   0.00000  Uiso   1.00
O894   O     0.90942   0.50000   0.54716   0.00000  Uiso   1.00
Zn895  Zn    0.83333   0.49999   0.55104   0.00000  Uiso   1.00
Zn896  Zn    0.83333   0.50001   0.44896   0.00000  Uiso   1.00
N897   N     0.98660   0.47079   0.44383   0.00000  Uiso   1.00
H898   H     0.97305   0.44183   0.45526   0.00000  Uiso   1.00
H899   H     0.67871   0.46422   0.42090   0.00000  Uiso   1.00
N900   N     0.68007   0.52920   0.55617   0.00000  Uiso   1.00
H901   H     0.69360   0.55816   0.54474   0.00000  Uiso   1.00
H902   H     0.98795   0.53576   0.57910   0.00000  Uiso   1.00
C903   C     0.73741   0.37425   0.46674   0.00000  Uiso   1.00
O904   O     0.72264   0.40132   0.48996   0.00000  Uiso   1.00
O905   O     0.70724   0.36225   0.42584   0.00000  Uiso   1.00
H906   H     0.67426   0.37845   0.41899   0.00000  Uiso   1.00
C907   C     0.92925   0.62576   0.53327   0.00000  Uiso   1.00
O908   O     0.94402   0.59866   0.51007   0.00000  Uiso   1.00
O909   O     0.95942   0.63776   0.57416   0.00000  Uiso   1.00
H910   H     0.99240   0.62156   0.58103   0.00000  Uiso   1.00
N911   N     0.74209   0.61932   0.46315   0.00000  Uiso   1.00
H912   H     0.74976   0.60208   0.43539   0.00000  Uiso   1.00
H913   H     0.73228   0.59852   0.48836   0.00000  Uiso   1.00
N914   N     0.92457   0.38069   0.53685   0.00000  Uiso   1.00
H915   H     0.91691   0.39793   0.56461   0.00000  Uiso   1.00
H916   H     0.93439   0.40149   0.51164   0.00000  Uiso   1.00
C917   C     0.89605   0.56063   0.38754   0.00000  Uiso   1.00
O918   O     0.87901   0.59521   0.39202   0.00000  Uiso   1.00
O919   O     0.94742   0.55239   0.40499   0.00000  Uiso   1.00
H920   H     0.96625   0.57709   0.42204   0.00000  Uiso   1.00
C921   C     0.77064   0.43936   0.61246   0.00000  Uiso   1.00
O922   O     0.78770   0.40477   0.60800   0.00000  Uiso   1.00
O923   O     0.71927   0.44759   0.59497   0.00000  Uiso   1.00
H924   H     0.70046   0.42289   0.57792   0.00000  Uiso   1.00
N925   N     0.89592   0.55787   0.62420   0.00000  Uiso   1.00
H926   H     0.88517   0.58816   0.63064   0.00000  Uiso   1.00
H927   H     0.93454   0.55453   0.63890   0.00000  Uiso   1.00
N928   N     0.77074   0.44213   0.37580   0.00000  Uiso   1.00
H929   H     0.78151   0.41184   0.36936   0.00000  Uiso   1.00
H930   H     0.73213   0.44546   0.36108   0.00000  Uiso   1.00
C931   C     0.16604   0.75352   0.50030   0.00000  Uiso   1.00
C932   C     0.16729   0.91314   0.49970   0.00000  Uiso   1.00
C933   C     0.06729   0.83274   0.48830   0.00000  Uiso   1.00
C934   C     0.26605   0.83393   0.51170   0.00000  Uiso   1.00
C935   C     0.01258   0.82695   0.48299   0.00000  Uiso   1.00
C936   C     0.32076   0.83971   0.51701   0.00000  Uiso   1.00
C937   C     0.12019   0.68667   0.48263   0.00000  Uiso   1.00
C938   C     0.21314   0.98000   0.51737   0.00000  Uiso   1.00
C939   C     0.12162   0.97675   0.48091   0.00000  Uiso   1.00
C940   C     0.21171   0.68992   0.51909   0.00000  Uiso   1.00
C941   C     0.16779   0.95736   0.49863   0.00000  Uiso   1.00
C942   C     0.16554   0.70931   0.50137   0.00000  Uiso   1.00
C943   C     0.19697   0.86204   0.36031   0.00000  Uiso   1.00
C944   C     0.13637   0.80462   0.63969   0.00000  Uiso   1.00
C945   C     0.19710   0.86181   0.64556   0.00000  Uiso   1.00
C946   C     0.13623   0.80486   0.35444   0.00000  Uiso   1.00
N947   N     0.16665   0.83332   0.61907   0.00000  Uiso   1.00
N948   N     0.16668   0.83334   0.38093   0.00000  Uiso   1.00
O949   O     0.16666   0.77225   0.53821   0.00000  Uiso   1.00
O950   O     0.16667   0.89442   0.46179   0.00000  Uiso   1.00
O951   O     0.16666   0.77226   0.46176   0.00000  Uiso   1.00
O952   O     0.16667   0.89441   0.53824   0.00000  Uiso   1.00
O953   O     0.09058   0.83333   0.52928   0.00000  Uiso   1.00
O954   O     0.24275   0.83334   0.47072   0.00000  Uiso   1.00
O955   O     0.09058   0.83334   0.45284   0.00000  Uiso   1.00
O956   O     0.24275   0.83333   0.54716   0.00000  Uiso   1.00
Zn957  Zn    0.16667   0.83333   0.55104   0.00000  Uiso   1.00
Zn958  Zn    0.16667   0.83334   0.44896   0.00000  Uiso   1.00
N959   N     0.31993   0.80412   0.44383   0.00000  Uiso   1.00
H960   H     0.30638   0.77516   0.45526   0.00000  Uiso   1.00
H961   H     0.01204   0.79756   0.42090   0.00000  Uiso   1.00
N962   N     0.01340   0.86254   0.55617   0.00000  Uiso   1.00
H963   H     0.02694   0.89150   0.54474   0.00000  Uiso   1.00
H964   H     0.32129   0.86909   0.57910   0.00000  Uiso   1.00
C965   C     0.07075   0.70758   0.46674   0.00000  Uiso   1.00
O966   O     0.05598   0.73466   0.48996   0.00000  Uiso   1.00
O967   O     0.04058   0.69559   0.42584   0.00000  Uiso   1.00
H968   H     0.00759   0.71178   0.41899   0.00000  Uiso   1.00
C969   C     0.26258   0.95909   0.53327   0.00000  Uiso   1.00
O970   O     0.27735   0.93199   0.51007   0.00000  Uiso   1.00
O971   O     0.29276   0.97110   0.57416   0.00000  Uiso   1.00
H972   H     0.32573   0.95489   0.58103   0.00000  Uiso   1.00
N973   N     0.07542   0.95265   0.46315   0.00000  Uiso   1.00
H974   H     0.08309   0.93541   0.43539   0.00000  Uiso   1.00
H975   H     0.06561   0.93185   0.48836   0.00000  Uiso   1.00
N976   N     0.25791   0.71402   0.53685   0.00000  Uiso   1.00
H977   H     0.25024   0.73126   0.56461   0.00000  Uiso   1.00
H978   H     0.26772   0.73482   0.51164   0.00000  Uiso   1.00
C979   C     0.22939   0.89396   0.38754   0.00000  Uiso   1.00
O980   O     0.21234   0.92854   0.39202   0.00000  Uiso   1.00
O981   O     0.28075   0.88573   0.40499   0.00000  Uiso   1.00
H982   H     0.29959   0.91042   0.42204   0.00000  Uiso   1.00
C983   C     0.10397   0.77269   0.61246   0.00000  Uiso   1.00
O984   O     0.12104   0.73810   0.60800   0.00000  Uiso   1.00
O985   O     0.05260   0.78092   0.59497   0.00000  Uiso   1.00
H986   H     0.03379   0.75622   0.57792   0.00000  Uiso   1.00
N987   N     0.22925   0.89120   0.62420   0.00000  Uiso   1.00
H988   H     0.21850   0.92150   0.63064   0.00000  Uiso   1.00
H989   H     0.26787   0.88786   0.63890   0.00000  Uiso   1.00
N990   N     0.10408   0.77546   0.37580   0.00000  Uiso   1.00
H991   H     0.11484   0.74517   0.36936   0.00000  Uiso   1.00
H992   H     0.06546   0.77880   0.36108   0.00000  Uiso   1.00
C993   C     0.49937   0.75352   0.50030   0.00000  Uiso   1.00
C994   C     0.50063   0.91314   0.49970   0.00000  Uiso   1.00
C995   C     0.40062   0.83274   0.48830   0.00000  Uiso   1.00
C996   C     0.59938   0.83393   0.51170   0.00000  Uiso   1.00
C997   C     0.34591   0.82695   0.48299   0.00000  Uiso   1.00
C998   C     0.65409   0.83971   0.51701   0.00000  Uiso   1.00
C999   C     0.45353   0.68667   0.48263   0.00000  Uiso   1.00
C1000  C     0.54647   0.98000   0.51737   0.00000  Uiso   1.00
C1001  C     0.45495   0.97675   0.48091   0.00000  Uiso   1.00
C1002  C     0.54505   0.68992   0.51909   0.00000  Uiso   1.00
C1003  C     0.50113   0.95736   0.49863   0.00000  Uiso   1.00
C1004  C     0.49887   0.70931   0.50137   0.00000  Uiso   1.00
C1005  C     0.53030   0.86204   0.36031   0.00000  Uiso   1.00
C1006  C     0.46970   0.80462   0.63969   0.00000  Uiso   1.00
C1007  C     0.53043   0.86181   0.64556   0.00000  Uiso   1.00
C1008  C     0.46957   0.80486   0.35444   0.00000  Uiso   1.00
N1009  N     0.49999   0.83332   0.61907   0.00000  Uiso   1.00
N1010  N     0.50001   0.83334   0.38093   0.00000  Uiso   1.00
O1011  O     0.50000   0.77225   0.53821   0.00000  Uiso   1.00
O1012  O     0.50000   0.89442   0.46179   0.00000  Uiso   1.00
O1013  O     0.50000   0.77226   0.46176   0.00000  Uiso   1.00
O1014  O     0.50000   0.89441   0.53824   0.00000  Uiso   1.00
O1015  O     0.42392   0.83333   0.52928   0.00000  Uiso   1.00
O1016  O     0.57608   0.83334   0.47072   0.00000  Uiso   1.00
O1017  O     0.42392   0.83334   0.45284   0.00000  Uiso   1.00
O1018  O     0.57608   0.83333   0.54716   0.00000  Uiso   1.00
Zn1019 Zn    0.50000   0.83333   0.55104   0.00000  Uiso   1.00
Zn1020 Zn    0.50000   0.83334   0.44896   0.00000  Uiso   1.00
N1021  N     0.65327   0.80412   0.44383   0.00000  Uiso   1.00
H1022  H     0.63971   0.77516   0.45526   0.00000  Uiso   1.00
H1023  H     0.34538   0.79756   0.42090   0.00000  Uiso   1.00
N1024  N     0.34673   0.86254   0.55617   0.00000  Uiso   1.00
H1025  H     0.36027   0.89150   0.54474   0.00000  Uiso   1.00
H1026  H     0.65462   0.86909   0.57910   0.00000  Uiso   1.00
C1027  C     0.40408   0.70758   0.46674   0.00000  Uiso   1.00
O1028  O     0.38931   0.73466   0.48996   0.00000  Uiso   1.00
O1029  O     0.37391   0.69559   0.42584   0.00000  Uiso   1.00
H1030  H     0.34092   0.71178   0.41899   0.00000  Uiso   1.00
C1031  C     0.59591   0.95909   0.53327   0.00000  Uiso   1.00
O1032  O     0.61068   0.93199   0.51007   0.00000  Uiso   1.00
O1033  O     0.62609   0.97110   0.57416   0.00000  Uiso   1.00
H1034  H     0.65907   0.95489   0.58103   0.00000  Uiso   1.00
N1035  N     0.40876   0.95265   0.46315   0.00000  Uiso   1.00
H1036  H     0.41642   0.93541   0.43539   0.00000  Uiso   1.00
H1037  H     0.39894   0.93185   0.48836   0.00000  Uiso   1.00
N1038  N     0.59124   0.71402   0.53685   0.00000  Uiso   1.00
H1039  H     0.58358   0.73126   0.56461   0.00000  Uiso   1.00
H1040  H     0.60105   0.73482   0.51164   0.00000  Uiso   1.00
C1041  C     0.56272   0.89396   0.38754   0.00000  Uiso   1.00
O1042  O     0.54567   0.92854   0.39202   0.00000  Uiso   1.00
O1043  O     0.61408   0.88573   0.40499   0.00000  Uiso   1.00
H1044  H     0.63292   0.91042   0.42204   0.00000  Uiso   1.00
C1045  C     0.43731   0.77269   0.61246   0.00000  Uiso   1.00
O1046  O     0.45437   0.73810   0.60800   0.00000  Uiso   1.00
O1047  O     0.38594   0.78092   0.59497   0.00000  Uiso   1.00
H1048  H     0.36712   0.75622   0.57792   0.00000  Uiso   1.00
N1049  N     0.56259   0.89120   0.62420   0.00000  Uiso   1.00
H1050  H     0.55183   0.92150   0.63064   0.00000  Uiso   1.00
H1051  H     0.60120   0.88786   0.63890   0.00000  Uiso   1.00
N1052  N     0.43741   0.77546   0.37580   0.00000  Uiso   1.00
H1053  H     0.44817   0.74517   0.36936   0.00000  Uiso   1.00
H1054  H     0.39880   0.77880   0.36108   0.00000  Uiso   1.00
C1055  C     0.83270   0.75352   0.50030   0.00000  Uiso   1.00
C1056  C     0.83396   0.91314   0.49970   0.00000  Uiso   1.00
C1057  C     0.73395   0.83274   0.48830   0.00000  Uiso   1.00
C1058  C     0.93271   0.83393   0.51170   0.00000  Uiso   1.00
C1059  C     0.67924   0.82695   0.48299   0.00000  Uiso   1.00
C1060  C     0.98742   0.83971   0.51701   0.00000  Uiso   1.00
C1061  C     0.78686   0.68667   0.48263   0.00000  Uiso   1.00
C1062  C     0.87980   0.98000   0.51737   0.00000  Uiso   1.00
C1063  C     0.78829   0.97675   0.48091   0.00000  Uiso   1.00
C1064  C     0.87838   0.68992   0.51909   0.00000  Uiso   1.00
C1065  C     0.83446   0.95736   0.49863   0.00000  Uiso   1.00
C1066  C     0.83221   0.70931   0.50137   0.00000  Uiso   1.00
C1067  C     0.86364   0.86204   0.36031   0.00000  Uiso   1.00
C1068  C     0.80303   0.80462   0.63969   0.00000  Uiso   1.00
C1069  C     0.86377   0.86181   0.64556   0.00000  Uiso   1.00
C1070  C     0.80290   0.80486   0.35444   0.00000  Uiso   1.00
N1071  N     0.83332   0.83332   0.61907   0.00000  Uiso   1.00
N1072  N     0.83335   0.83334   0.38093   0.00000  Uiso   1.00
O1073  O     0.83333   0.77225   0.53821   0.00000  Uiso   1.00
O1074  O     0.83334   0.89442   0.46179   0.00000  Uiso   1.00
O1075  O     0.83333   0.77226   0.46176   0.00000  Uiso   1.00
O1076  O     0.83334   0.89441   0.53824   0.00000  Uiso   1.00
O1077  O     0.75725   0.83333   0.52928   0.00000  Uiso   1.00
O1078  O     0.90942   0.83334   0.47072   0.00000  Uiso   1.00
O1079  O     0.75725   0.83334   0.45284   0.00000  Uiso   1.00
O1080  O     0.90942   0.83333   0.54716   0.00000  Uiso   1.00
Zn1081 Zn    0.83333   0.83333   0.55104   0.00000  Uiso   1.00
Zn1082 Zn    0.83333   0.83334   0.44896   0.00000  Uiso   1.00
N1083  N     0.98660   0.80412   0.44383   0.00000  Uiso   1.00
H1084  H     0.97305   0.77516   0.45526   0.00000  Uiso   1.00
H1085  H     0.67871   0.79756   0.42090   0.00000  Uiso   1.00
N1086  N     0.68007   0.86254   0.55617   0.00000  Uiso   1.00
H1087  H     0.69360   0.89150   0.54474   0.00000  Uiso   1.00
H1088  H     0.98795   0.86909   0.57910   0.00000  Uiso   1.00
C1089  C     0.73741   0.70758   0.46674   0.00000  Uiso   1.00
O1090  O     0.72264   0.73466   0.48996   0.00000  Uiso   1.00
O1091  O     0.70724   0.69559   0.42584   0.00000  Uiso   1.00
H1092  H     0.67426   0.71178   0.41899   0.00000  Uiso   1.00
C1093  C     0.92925   0.95909   0.53327   0.00000  Uiso   1.00
O1094  O     0.94402   0.93199   0.51007   0.00000  Uiso   1.00
O1095  O     0.95942   0.97110   0.57416   0.00000  Uiso   1.00
H1096  H     0.99240   0.95489   0.58103   0.00000  Uiso   1.00
N1097  N     0.74209   0.95265   0.46315   0.00000  Uiso   1.00
H1098  H     0.74976   0.93541   0.43539   0.00000  Uiso   1.00
H1099  H     0.73228   0.93185   0.48836   0.00000  Uiso   1.00
N1100  N     0.92457   0.71402   0.53685   0.00000  Uiso   1.00
H1101  H     0.91691   0.73126   0.56461   0.00000  Uiso   1.00
H1102  H     0.93439   0.73482   0.51164   0.00000  Uiso   1.00
C1103  C     0.89605   0.89396   0.38754   0.00000  Uiso   1.00
O1104  O     0.87901   0.92854   0.39202   0.00000  Uiso   1.00
O1105  O     0.94742   0.88573   0.40499   0.00000  Uiso   1.00
H1106  H     0.96625   0.91042   0.42204   0.00000  Uiso   1.00
C1107  C     0.77064   0.77269   0.61246   0.00000  Uiso   1.00
O1108  O     0.78770   0.73810   0.60800   0.00000  Uiso   1.00
O1109  O     0.71927   0.78092   0.59497   0.00000  Uiso   1.00
H1110  H     0.70046   0.75622   0.57792   0.00000  Uiso   1.00
N1111  N     0.89592   0.89120   0.62420   0.00000  Uiso   1.00
H1112  H     0.88517   0.92150   0.63064   0.00000  Uiso   1.00
H1113  H     0.93454   0.88786   0.63890   0.00000  Uiso   1.00
N1114  N     0.77074   0.77546   0.37580   0.00000  Uiso   1.00
H1115  H     0.78151   0.74517   0.36936   0.00000  Uiso   1.00
H1116  H     0.73213   0.77880   0.36108   0.00000  Uiso   1.00
C1117  C     0.16604   0.08686   0.83364   0.00000  Uiso   1.00
C1118  C     0.16729   0.24648   0.83303   0.00000  Uiso   1.00
C1119  C     0.06729   0.16607   0.82163   0.00000  Uiso   1.00
C1120  C     0.26605   0.16726   0.84504   0.00000  Uiso   1.00
C1121  C     0.01258   0.16028   0.81632   0.00000  Uiso   1.00
C1122  C     0.32076   0.17304   0.85035   0.00000  Uiso   1.00
C1123  C     0.12019   0.02000   0.81597   0.00000  Uiso   1.00
C1124  C     0.21314   0.31333   0.85070   0.00000  Uiso   1.00
C1125  C     0.12162   0.31009   0.81424   0.00000  Uiso   1.00
C1126  C     0.21171   0.02325   0.85242   0.00000  Uiso   1.00
C1127  C     0.16779   0.29069   0.83197   0.00000  Uiso   1.00
C1128  C     0.16554   0.04264   0.83470   0.00000  Uiso   1.00
C1129  C     0.19697   0.19537   0.69364   0.00000  Uiso   1.00
C1130  C     0.13637   0.13796   0.97302   0.00000  Uiso   1.00
C1131  C     0.19710   0.19514   0.97889   0.00000  Uiso   1.00
C1132  C     0.13623   0.13819   0.68778   0.00000  Uiso   1.00
N1133  N     0.16665   0.16666   0.95240   0.00000  Uiso   1.00
N1134  N     0.16668   0.16668   0.71427   0.00000  Uiso   1.00
O1135  O     0.16666   0.10558   0.87154   0.00000  Uiso   1.00
O1136  O     0.16667   0.22775   0.79513   0.00000  Uiso   1.00
O1137  O     0.16666   0.10559   0.79510   0.00000  Uiso   1.00
O1138  O     0.16667   0.22774   0.87157   0.00000  Uiso   1.00
O1139  O     0.09058   0.16666   0.86261   0.00000  Uiso   1.00
O1140  O     0.24275   0.16667   0.80405   0.00000  Uiso   1.00
O1141  O     0.09058   0.16667   0.78617   0.00000  Uiso   1.00
O1142  O     0.24275   0.16666   0.88050   0.00000  Uiso   1.00
Zn1143 Zn    0.16667   0.16666   0.88437   0.00000  Uiso   1.00
Zn1144 Zn    0.16667   0.16667   0.78229   0.00000  Uiso   1.00
N1145  N     0.31993   0.13746   0.77716   0.00000  Uiso   1.00
H1146  H     0.30638   0.10850   0.78859   0.00000  Uiso   1.00
H1147  H     0.01204   0.13089   0.75423   0.00000  Uiso   1.00
N1148  N     0.01340   0.19587   0.88950   0.00000  Uiso   1.00
H1149  H     0.02694   0.22483   0.87807   0.00000  Uiso   1.00
H1150  H     0.32129   0.20243   0.91243   0.00000  Uiso   1.00
C1151  C     0.07075   0.04091   0.80007   0.00000  Uiso   1.00
O1152  O     0.05598   0.06799   0.82330   0.00000  Uiso   1.00
O1153  O     0.04058   0.02892   0.75918   0.00000  Uiso   1.00
H1154  H     0.00759   0.04512   0.75232   0.00000  Uiso   1.00
C1155  C     0.26258   0.29242   0.86661   0.00000  Uiso   1.00
O1156  O     0.27735   0.26532   0.84340   0.00000  Uiso   1.00
O1157  O     0.29276   0.30443   0.90749   0.00000  Uiso   1.00
H1158  H     0.32573   0.28823   0.91436   0.00000  Uiso   1.00
N1159  N     0.07542   0.28598   0.79648   0.00000  Uiso   1.00
H1160  H     0.08309   0.26874   0.76872   0.00000  Uiso   1.00
H1161  H     0.06561   0.26519   0.82170   0.00000  Uiso   1.00
N1162  N     0.25791   0.04735   0.87018   0.00000  Uiso   1.00
H1163  H     0.25024   0.06459   0.89794   0.00000  Uiso   1.00
H1164  H     0.26772   0.06815   0.84497   0.00000  Uiso   1.00
C1165  C     0.22939   0.22730   0.72087   0.00000  Uiso   1.00
O1166  O     0.21234   0.26188   0.72536   0.00000  Uiso   1.00
O1167  O     0.28075   0.21906   0.73833   0.00000  Uiso   1.00
H1168  H     0.29959   0.24376   0.75537   0.00000  Uiso   1.00
C1169  C     0.10397   0.10602   0.94579   0.00000  Uiso   1.00
O1170  O     0.12104   0.07143   0.94134   0.00000  Uiso   1.00
O1171  O     0.05260   0.11426   0.92830   0.00000  Uiso   1.00
H1172  H     0.03379   0.08955   0.91126   0.00000  Uiso   1.00
N1173  N     0.22925   0.22454   0.95753   0.00000  Uiso   1.00
H1174  H     0.21850   0.25483   0.96398   0.00000  Uiso   1.00
H1175  H     0.26787   0.22120   0.97224   0.00000  Uiso   1.00
N1176  N     0.10408   0.10880   0.70913   0.00000  Uiso   1.00
H1177  H     0.11484   0.07850   0.70270   0.00000  Uiso   1.00
H1178  H     0.06546   0.11213   0.69442   0.00000  Uiso   1.00
C1179  C     0.49937   0.08686   0.83364   0.00000  Uiso   1.00
C1180  C     0.50063   0.24648   0.83303   0.00000  Uiso   1.00
C1181  C     0.40062   0.16607   0.82163   0.00000  Uiso   1.00
C1182  C     0.59938   0.16726   0.84504   0.00000  Uiso   1.00
C1183  C     0.34591   0.16028   0.81632   0.00000  Uiso   1.00
C1184  C     0.65409   0.17304   0.85035   0.00000  Uiso   1.00
C1185  C     0.45353   0.02000   0.81597   0.00000  Uiso   1.00
C1186  C     0.54647   0.31333   0.85070   0.00000  Uiso   1.00
C1187  C     0.45495   0.31009   0.81424   0.00000  Uiso   1.00
C1188  C     0.54505   0.02325   0.85242   0.00000  Uiso   1.00
C1189  C     0.50113   0.29069   0.83197   0.00000  Uiso   1.00
C1190  C     0.49887   0.04264   0.83470   0.00000  Uiso   1.00
C1191  C     0.53030   0.19537   0.69364   0.00000  Uiso   1.00
C1192  C     0.46970   0.13796   0.97302   0.00000  Uiso   1.00
C1193  C     0.53043   0.19514   0.97889   0.00000  Uiso   1.00
C1194  C     0.46957   0.13819   0.68778   0.00000  Uiso   1.00
N1195  N     0.49999   0.16666   0.95240   0.00000  Uiso   1.00
N1196  N     0.50001   0.16668   0.71427   0.00000  Uiso   1.00
O1197  O     0.50000   0.10558   0.87154   0.00000  Uiso   1.00
O1198  O     0.50000   0.22775   0.79513   0.00000  Uiso   1.00
O1199  O     0.50000   0.10559   0.79510   0.00000  Uiso   1.00
O1200  O     0.50000   0.22774   0.87157   0.00000  Uiso   1.00
O1201  O     0.42392   0.16666   0.86261   0.00000  Uiso   1.00
O1202  O     0.57608   0.16667   0.80405   0.00000  Uiso   1.00
O1203  O     0.42392   0.16667   0.78617   0.00000  Uiso   1.00
O1204  O     0.57608   0.16666   0.88050   0.00000  Uiso   1.00
Zn1205 Zn    0.50000   0.16666   0.88437   0.00000  Uiso   1.00
Zn1206 Zn    0.50000   0.16667   0.78229   0.00000  Uiso   1.00
N1207  N     0.65327   0.13746   0.77716   0.00000  Uiso   1.00
H1208  H     0.63971   0.10850   0.78859   0.00000  Uiso   1.00
H1209  H     0.34538   0.13089   0.75423   0.00000  Uiso   1.00
N1210  N     0.34673   0.19587   0.88950   0.00000  Uiso   1.00
H1211  H     0.36027   0.22483   0.87807   0.00000  Uiso   1.00
H1212  H     0.65462   0.20243   0.91243   0.00000  Uiso   1.00
C1213  C     0.40408   0.04091   0.80007   0.00000  Uiso   1.00
O1214  O     0.38931   0.06799   0.82330   0.00000  Uiso   1.00
O1215  O     0.37391   0.02892   0.75918   0.00000  Uiso   1.00
H1216  H     0.34092   0.04512   0.75232   0.00000  Uiso   1.00
C1217  C     0.59591   0.29242   0.86661   0.00000  Uiso   1.00
O1218  O     0.61068   0.26532   0.84340   0.00000  Uiso   1.00
O1219  O     0.62609   0.30443   0.90749   0.00000  Uiso   1.00
H1220  H     0.65907   0.28823   0.91436   0.00000  Uiso   1.00
N1221  N     0.40876   0.28598   0.79648   0.00000  Uiso   1.00
H1222  H     0.41642   0.26874   0.76872   0.00000  Uiso   1.00
H1223  H     0.39894   0.26519   0.82170   0.00000  Uiso   1.00
N1224  N     0.59124   0.04735   0.87018   0.00000  Uiso   1.00
H1225  H     0.58358   0.06459   0.89794   0.00000  Uiso   1.00
H1226  H     0.60105   0.06815   0.84497   0.00000  Uiso   1.00
C1227  C     0.56272   0.22730   0.72087   0.00000  Uiso   1.00
O1228  O     0.54567   0.26188   0.72536   0.00000  Uiso   1.00
O1229  O     0.61408   0.21906   0.73833   0.00000  Uiso   1.00
H1230  H     0.63292   0.24376   0.75537   0.00000  Uiso   1.00
C1231  C     0.43731   0.10602   0.94579   0.00000  Uiso   1.00
O1232  O     0.45437   0.07143   0.94134   0.00000  Uiso   1.00
O1233  O     0.38594   0.11426   0.92830   0.00000  Uiso   1.00
H1234  H     0.36712   0.08955   0.91126   0.00000  Uiso   1.00
N1235  N     0.56259   0.22454   0.95753   0.00000  Uiso   1.00
H1236  H     0.55183   0.25483   0.96398   0.00000  Uiso   1.00
H1237  H     0.60120   0.22120   0.97224   0.00000  Uiso   1.00
N1238  N     0.43741   0.10880   0.70913   0.00000  Uiso   1.00
H1239  H     0.44817   0.07850   0.70270   0.00000  Uiso   1.00
H1240  H     0.39880   0.11213   0.69442   0.00000  Uiso   1.00
C1241  C     0.83270   0.08686   0.83364   0.00000  Uiso   1.00
C1242  C     0.83396   0.24648   0.83303   0.00000  Uiso   1.00
C1243  C     0.73395   0.16607   0.82163   0.00000  Uiso   1.00
C1244  C     0.93271   0.16726   0.84504   0.00000  Uiso   1.00
C1245  C     0.67924   0.16028   0.81632   0.00000  Uiso   1.00
C1246  C     0.98742   0.17304   0.85035   0.00000  Uiso   1.00
C1247  C     0.78686   0.02000   0.81597   0.00000  Uiso   1.00
C1248  C     0.87980   0.31333   0.85070   0.00000  Uiso   1.00
C1249  C     0.78829   0.31009   0.81424   0.00000  Uiso   1.00
C1250  C     0.87838   0.02325   0.85242   0.00000  Uiso   1.00
C1251  C     0.83446   0.29069   0.83197   0.00000  Uiso   1.00
C1252  C     0.83221   0.04264   0.83470   0.00000  Uiso   1.00
C1253  C     0.86364   0.19537   0.69364   0.00000  Uiso   1.00
C1254  C     0.80303   0.13796   0.97302   0.00000  Uiso   1.00
C1255  C     0.86377   0.19514   0.97889   0.00000  Uiso   1.00
C1256  C     0.80290   0.13819   0.68778   0.00000  Uiso   1.00
N1257  N     0.83332   0.16666   0.95240   0.00000  Uiso   1.00
N1258  N     0.83335   0.16668   0.71427   0.00000  Uiso   1.00
O1259  O     0.83333   0.10558   0.87154   0.00000  Uiso   1.00
O1260  O     0.83334   0.22775   0.79513   0.00000  Uiso   1.00
O1261  O     0.83333   0.10559   0.79510   0.00000  Uiso   1.00
O1262  O     0.83334   0.22774   0.87157   0.00000  Uiso   1.00
O1263  O     0.75725   0.16666   0.86261   0.00000  Uiso   1.00
O1264  O     0.90942   0.16667   0.80405   0.00000  Uiso   1.00
O1265  O     0.75725   0.16667   0.78617   0.00000  Uiso   1.00
O1266  O     0.90942   0.16666   0.88050   0.00000  Uiso   1.00
Zn1267 Zn    0.83333   0.16666   0.88437   0.00000  Uiso   1.00
Zn1268 Zn    0.83333   0.16667   0.78229   0.00000  Uiso   1.00
N1269  N     0.98660   0.13746   0.77716   0.00000  Uiso   1.00
H1270  H     0.97305   0.10850   0.78859   0.00000  Uiso   1.00
H1271  H     0.67871   0.13089   0.75423   0.00000  Uiso   1.00
N1272  N     0.68007   0.19587   0.88950   0.00000  Uiso   1.00
H1273  H     0.69360   0.22483   0.87807   0.00000  Uiso   1.00
H1274  H     0.98795   0.20243   0.91243   0.00000  Uiso   1.00
C1275  C     0.73741   0.04091   0.80007   0.00000  Uiso   1.00
O1276  O     0.72264   0.06799   0.82330   0.00000  Uiso   1.00
O1277  O     0.70724   0.02892   0.75918   0.00000  Uiso   1.00
H1278  H     0.67426   0.04512   0.75232   0.00000  Uiso   1.00
C1279  C     0.92925   0.29242   0.86661   0.00000  Uiso   1.00
O1280  O     0.94402   0.26532   0.84340   0.00000  Uiso   1.00
O1281  O     0.95942   0.30443   0.90749   0.00000  Uiso   1.00
H1282  H     0.99240   0.28823   0.91436   0.00000  Uiso   1.00
N1283  N     0.74209   0.28598   0.79648   0.00000  Uiso   1.00
H1284  H     0.74976   0.26874   0.76872   0.00000  Uiso   1.00
H1285  H     0.73228   0.26519   0.82170   0.00000  Uiso   1.00
N1286  N     0.92457   0.04735   0.87018   0.00000  Uiso   1.00
H1287  H     0.91691   0.06459   0.89794   0.00000  Uiso   1.00
H1288  H     0.93439   0.06815   0.84497   0.00000  Uiso   1.00
C1289  C     0.89605   0.22730   0.72087   0.00000  Uiso   1.00
O1290  O     0.87901   0.26188   0.72536   0.00000  Uiso   1.00
O1291  O     0.94742   0.21906   0.73833   0.00000  Uiso   1.00
H1292  H     0.96625   0.24376   0.75537   0.00000  Uiso   1.00
C1293  C     0.77064   0.10602   0.94579   0.00000  Uiso   1.00
O1294  O     0.78770   0.07143   0.94134   0.00000  Uiso   1.00
O1295  O     0.71927   0.11426   0.92830   0.00000  Uiso   1.00
H1296  H     0.70046   0.08955   0.91126   0.00000  Uiso   1.00
N1297  N     0.89592   0.22454   0.95753   0.00000  Uiso   1.00
H1298  H     0.88517   0.25483   0.96398   0.00000  Uiso   1.00
H1299  H     0.93454   0.22120   0.97224   0.00000  Uiso   1.00
N1300  N     0.77074   0.10880   0.70913   0.00000  Uiso   1.00
H1301  H     0.78151   0.07850   0.70270   0.00000  Uiso   1.00
H1302  H     0.73213   0.11213   0.69442   0.00000  Uiso   1.00
C1303  C     0.16604   0.42019   0.83364   0.00000  Uiso   1.00
C1304  C     0.16729   0.57981   0.83303   0.00000  Uiso   1.00
C1305  C     0.06729   0.49940   0.82163   0.00000  Uiso   1.00
C1306  C     0.26605   0.50059   0.84504   0.00000  Uiso   1.00
C1307  C     0.01258   0.49362   0.81632   0.00000  Uiso   1.00
C1308  C     0.32076   0.50638   0.85035   0.00000  Uiso   1.00
C1309  C     0.12019   0.35334   0.81597   0.00000  Uiso   1.00
C1310  C     0.21314   0.64667   0.85070   0.00000  Uiso   1.00
C1311  C     0.12162   0.64342   0.81424   0.00000  Uiso   1.00
C1312  C     0.21171   0.35658   0.85242   0.00000  Uiso   1.00
C1313  C     0.16779   0.62403   0.83197   0.00000  Uiso   1.00
C1314  C     0.16554   0.37597   0.83470   0.00000  Uiso   1.00
C1315  C     0.19697   0.52871   0.69364   0.00000  Uiso   1.00
C1316  C     0.13637   0.47129   0.97302   0.00000  Uiso   1.00
C1317  C     0.19710   0.52847   0.97889   0.00000  Uiso   1.00
C1318  C     0.13623   0.47153   0.68778   0.00000  Uiso   1.00
N1319  N     0.16665   0.49999   0.95240   0.00000  Uiso   1.00
N1320  N     0.16668   0.50001   0.71427   0.00000  Uiso   1.00
O1321  O     0.16666   0.43892   0.87154   0.00000  Uiso   1.00
O1322  O     0.16667   0.56108   0.79513   0.00000  Uiso   1.00
O1323  O     0.16666   0.43893   0.79510   0.00000  Uiso   1.00
O1324  O     0.16667   0.56107   0.87157   0.00000  Uiso   1.00
O1325  O     0.09058   0.50000   0.86261   0.00000  Uiso   1.00
O1326  O     0.24275   0.50000   0.80405   0.00000  Uiso   1.00
O1327  O     0.09058   0.50000   0.78617   0.00000  Uiso   1.00
O1328  O     0.24275   0.50000   0.88050   0.00000  Uiso   1.00
Zn1329 Zn    0.16667   0.49999   0.88437   0.00000  Uiso   1.00
Zn1330 Zn    0.16667   0.50001   0.78229   0.00000  Uiso   1.00
N1331  N     0.31993   0.47079   0.77716   0.00000  Uiso   1.00
H1332  H     0.30638   0.44183   0.78859   0.00000  Uiso   1.00
H1333  H     0.01204   0.46422   0.75423   0.00000  Uiso   1.00
N1334  N     0.01340   0.52920   0.88950   0.00000  Uiso   1.00
H1335  H     0.02694   0.55816   0.87807   0.00000  Uiso   1.00
H1336  H     0.32129   0.53576   0.91243   0.00000  Uiso   1.00
C1337  C     0.07075   0.37425   0.80007   0.00000  Uiso   1.00
O1338  O     0.05598   0.40132   0.82330   0.00000  Uiso   1.00
O1339  O     0.04058   0.36225   0.75918   0.00000  Uiso   1.00
H1340  H     0.00759   0.37845   0.75232   0.00000  Uiso   1.00
C1341  C     0.26258   0.62576   0.86661   0.00000  Uiso   1.00
O1342  O     0.27735   0.59866   0.84340   0.00000  Uiso   1.00
O1343  O     0.29276   0.63776   0.90749   0.00000  Uiso   1.00
H1344  H     0.32573   0.62156   0.91436   0.00000  Uiso   1.00
N1345  N     0.07542   0.61932   0.79648   0.00000  Uiso   1.00
H1346  H     0.08309   0.60208   0.76872   0.00000  Uiso   1.00
H1347  H     0.06561   0.59852   0.82170   0.00000  Uiso   1.00
N1348  N     0.25791   0.38069   0.87018   0.00000  Uiso   1.00
H1349  H     0.25024   0.39793   0.89794   0.00000  Uiso   1.00
H1350  H     0.26772   0.40149   0.84497   0.00000  Uiso   1.00
C1351  C     0.22939   0.56063   0.72087   0.00000  Uiso   1.00
O1352  O     0.21234   0.59521   0.72536   0.00000  Uiso   1.00
O1353  O     0.28075   0.55239   0.73833   0.00000  Uiso   1.00
H1354  H     0.29959   0.57709   0.75537   0.00000  Uiso   1.00
C1355  C     0.10397   0.43936   0.94579   0.00000  Uiso   1.00
O1356  O     0.12104   0.40477   0.94134   0.00000  Uiso   1.00
O1357  O     0.05260   0.44759   0.92830   0.00000  Uiso   1.00
H1358  H     0.03379   0.42289   0.91126   0.00000  Uiso   1.00
N1359  N     0.22925   0.55787   0.95753   0.00000  Uiso   1.00
H1360  H     0.21850   0.58816   0.96398   0.00000  Uiso   1.00
H1361  H     0.26787   0.55453   0.97224   0.00000  Uiso   1.00
N1362  N     0.10408   0.44213   0.70913   0.00000  Uiso   1.00
H1363  H     0.11484   0.41184   0.70270   0.00000  Uiso   1.00
H1364  H     0.06546   0.44546   0.69442   0.00000  Uiso   1.00
C1365  C     0.49937   0.42019   0.83364   0.00000  Uiso   1.00
C1366  C     0.50063   0.57981   0.83303   0.00000  Uiso   1.00
C1367  C     0.40062   0.49940   0.82163   0.00000  Uiso   1.00
C1368  C     0.59938   0.50059   0.84504   0.00000  Uiso   1.00
C1369  C     0.34591   0.49362   0.81632   0.00000  Uiso   1.00
C1370  C     0.65409   0.50638   0.85035   0.00000  Uiso   1.00
C1371  C     0.45353   0.35334   0.81597   0.00000  Uiso   1.00
C1372  C     0.54647   0.64667   0.85070   0.00000  Uiso   1.00
C1373  C     0.45495   0.64342   0.81424   0.00000  Uiso   1.00
C1374  C     0.54505   0.35658   0.85242   0.00000  Uiso   1.00
C1375  C     0.50113   0.62403   0.83197   0.00000  Uiso   1.00
C1376  C     0.49887   0.37597   0.83470   0.00000  Uiso   1.00
C1377  C     0.53030   0.52871   0.69364   0.00000  Uiso   1.00
C1378  C     0.46970   0.47129   0.97302   0.00000  Uiso   1.00
C1379  C     0.53043   0.52847   0.97889   0.00000  Uiso   1.00
C1380  C     0.46957   0.47153   0.68778   0.00000  Uiso   1.00
N1381  N     0.49999   0.49999   0.95240   0.00000  Uiso   1.00
N1382  N     0.50001   0.50001   0.71427   0.00000  Uiso   1.00
O1383  O     0.50000   0.43892   0.87154   0.00000  Uiso   1.00
O1384  O     0.50000   0.56108   0.79513   0.00000  Uiso   1.00
O1385  O     0.50000   0.43893   0.79510   0.00000  Uiso   1.00
O1386  O     0.50000   0.56107   0.87157   0.00000  Uiso   1.00
O1387  O     0.42392   0.50000   0.86261   0.00000  Uiso   1.00
O1388  O     0.57608   0.50000   0.80405   0.00000  Uiso   1.00
O1389  O     0.42392   0.50000   0.78617   0.00000  Uiso   1.00
O1390  O     0.57608   0.50000   0.88050   0.00000  Uiso   1.00
Zn1391 Zn    0.50000   0.49999   0.88437   0.00000  Uiso   1.00
Zn1392 Zn    0.50000   0.50001   0.78229   0.00000  Uiso   1.00
N1393  N     0.65327   0.47079   0.77716   0.00000  Uiso   1.00
H1394  H     0.63971   0.44183   0.78859   0.00000  Uiso   1.00
H1395  H     0.34538   0.46422   0.75423   0.00000  Uiso   1.00
N1396  N     0.34673   0.52920   0.88950   0.00000  Uiso   1.00
H1397  H     0.36027   0.55816   0.87807   0.00000  Uiso   1.00
H1398  H     0.65462   0.53576   0.91243   0.00000  Uiso   1.00
C1399  C     0.40408   0.37425   0.80007   0.00000  Uiso   1.00
O1400  O     0.38931   0.40132   0.82330   0.00000  Uiso   1.00
O1401  O     0.37391   0.36225   0.75918   0.00000  Uiso   1.00
H1402  H     0.34092   0.37845   0.75232   0.00000  Uiso   1.00
C1403  C     0.59591   0.62576   0.86661   0.00000  Uiso   1.00
O1404  O     0.61068   0.59866   0.84340   0.00000  Uiso   1.00
O1405  O     0.62609   0.63776   0.90749   0.00000  Uiso   1.00
H1406  H     0.65907   0.62156   0.91436   0.00000  Uiso   1.00
N1407  N     0.40876   0.61932   0.79648   0.00000  Uiso   1.00
H1408  H     0.41642   0.60208   0.76872   0.00000  Uiso   1.00
H1409  H     0.39894   0.59852   0.82170   0.00000  Uiso   1.00
N1410  N     0.59124   0.38069   0.87018   0.00000  Uiso   1.00
H1411  H     0.58358   0.39793   0.89794   0.00000  Uiso   1.00
H1412  H     0.60105   0.40149   0.84497   0.00000  Uiso   1.00
C1413  C     0.56272   0.56063   0.72087   0.00000  Uiso   1.00
O1414  O     0.54567   0.59521   0.72536   0.00000  Uiso   1.00
O1415  O     0.61408   0.55239   0.73833   0.00000  Uiso   1.00
H1416  H     0.63292   0.57709   0.75537   0.00000  Uiso   1.00
C1417  C     0.43731   0.43936   0.94579   0.00000  Uiso   1.00
O1418  O     0.45437   0.40477   0.94134   0.00000  Uiso   1.00
O1419  O     0.38594   0.44759   0.92830   0.00000  Uiso   1.00
H1420  H     0.36712   0.42289   0.91126   0.00000  Uiso   1.00
N1421  N     0.56259   0.55787   0.95753   0.00000  Uiso   1.00
H1422  H     0.55183   0.58816   0.96398   0.00000  Uiso   1.00
H1423  H     0.60120   0.55453   0.97224   0.00000  Uiso   1.00
N1424  N     0.43741   0.44213   0.70913   0.00000  Uiso   1.00
H1425  H     0.44817   0.41184   0.70270   0.00000  Uiso   1.00
H1426  H     0.39880   0.44546   0.69442   0.00000  Uiso   1.00
C1427  C     0.83270   0.42019   0.83364   0.00000  Uiso   1.00
C1428  C     0.83396   0.57981   0.83303   0.00000  Uiso   1.00
C1429  C     0.73395   0.49940   0.82163   0.00000  Uiso   1.00
C1430  C     0.93271   0.50059   0.84504   0.00000  Uiso   1.00
C1431  C     0.67924   0.49362   0.81632   0.00000  Uiso   1.00
C1432  C     0.98742   0.50638   0.85035   0.00000  Uiso   1.00
C1433  C     0.78686   0.35334   0.81597   0.00000  Uiso   1.00
C1434  C     0.87980   0.64667   0.85070   0.00000  Uiso   1.00
C1435  C     0.78829   0.64342   0.81424   0.00000  Uiso   1.00
C1436  C     0.87838   0.35658   0.85242   0.00000  Uiso   1.00
C1437  C     0.83446   0.62403   0.83197   0.00000  Uiso   1.00
C1438  C     0.83221   0.37597   0.83470   0.00000  Uiso   1.00
C1439  C     0.86364   0.52871   0.69364   0.00000  Uiso   1.00
C1440  C     0.80303   0.47129   0.97302   0.00000  Uiso   1.00
C1441  C     0.86377   0.52847   0.97889   0.00000  Uiso   1.00
C1442  C     0.80290   0.47153   0.68778   0.00000  Uiso   1.00
N1443  N     0.83332   0.49999   0.95240   0.00000  Uiso   1.00
N1444  N     0.83335   0.50001   0.71427   0.00000  Uiso   1.00
O1445  O     0.83333   0.43892   0.87154   0.00000  Uiso   1.00
O1446  O     0.83334   0.56108   0.79513   0.00000  Uiso   1.00
O1447  O     0.83333   0.43893   0.79510   0.00000  Uiso   1.00
O1448  O     0.83334   0.56107   0.87157   0.00000  Uiso   1.00
O1449  O     0.75725   0.50000   0.86261   0.00000  Uiso   1.00
O1450  O     0.90942   0.50000   0.80405   0.00000  Uiso   1.00
O1451  O     0.75725   0.50000   0.78617   0.00000  Uiso   1.00
O1452  O     0.90942   0.50000   0.88050   0.00000  Uiso   1.00
Zn1453 Zn    0.83333   0.49999   0.88437   0.00000  Uiso   1.00
Zn1454 Zn    0.83333   0.50001   0.78229   0.00000  Uiso   1.00
N1455  N     0.98660   0.47079   0.77716   0.00000  Uiso   1.00
H1456  H     0.97305   0.44183   0.78859   0.00000  Uiso   1.00
H1457  H     0.67871   0.46422   0.75423   0.00000  Uiso   1.00
N1458  N     0.68007   0.52920   0.88950   0.00000  Uiso   1.00
H1459  H     0.69360   0.55816   0.87807   0.00000  Uiso   1.00
H1460  H     0.98795   0.53576   0.91243   0.00000  Uiso   1.00
C1461  C     0.73741   0.37425   0.80007   0.00000  Uiso   1.00
O1462  O     0.72264   0.40132   0.82330   0.00000  Uiso   1.00
O1463  O     0.70724   0.36225   0.75918   0.00000  Uiso   1.00
H1464  H     0.67426   0.37845   0.75232   0.00000  Uiso   1.00
C1465  C     0.92925   0.62576   0.86661   0.00000  Uiso   1.00
O1466  O     0.94402   0.59866   0.84340   0.00000  Uiso   1.00
O1467  O     0.95942   0.63776   0.90749   0.00000  Uiso   1.00
H1468  H     0.99240   0.62156   0.91436   0.00000  Uiso   1.00
N1469  N     0.74209   0.61932   0.79648   0.00000  Uiso   1.00
H1470  H     0.74976   0.60208   0.76872   0.00000  Uiso   1.00
H1471  H     0.73228   0.59852   0.82170   0.00000  Uiso   1.00
N1472  N     0.92457   0.38069   0.87018   0.00000  Uiso   1.00
H1473  H     0.91691   0.39793   0.89794   0.00000  Uiso   1.00
H1474  H     0.93439   0.40149   0.84497   0.00000  Uiso   1.00
C1475  C     0.89605   0.56063   0.72087   0.00000  Uiso   1.00
O1476  O     0.87901   0.59521   0.72536   0.00000  Uiso   1.00
O1477  O     0.94742   0.55239   0.73833   0.00000  Uiso   1.00
H1478  H     0.96625   0.57709   0.75537   0.00000  Uiso   1.00
C1479  C     0.77064   0.43936   0.94579   0.00000  Uiso   1.00
O1480  O     0.78770   0.40477   0.94134   0.00000  Uiso   1.00
O1481  O     0.71927   0.44759   0.92830   0.00000  Uiso   1.00
H1482  H     0.70046   0.42289   0.91126   0.00000  Uiso   1.00
N1483  N     0.89592   0.55787   0.95753   0.00000  Uiso   1.00
H1484  H     0.88517   0.58816   0.96398   0.00000  Uiso   1.00
H1485  H     0.93454   0.55453   0.97224   0.00000  Uiso   1.00
N1486  N     0.77074   0.44213   0.70913   0.00000  Uiso   1.00
H1487  H     0.78151   0.41184   0.70270   0.00000  Uiso   1.00
H1488  H     0.73213   0.44546   0.69442   0.00000  Uiso   1.00
C1489  C     0.16604   0.75352   0.83364   0.00000  Uiso   1.00
C1490  C     0.16729   0.91314   0.83303   0.00000  Uiso   1.00
C1491  C     0.06729   0.83274   0.82163   0.00000  Uiso   1.00
C1492  C     0.26605   0.83393   0.84504   0.00000  Uiso   1.00
C1493  C     0.01258   0.82695   0.81632   0.00000  Uiso   1.00
C1494  C     0.32076   0.83971   0.85035   0.00000  Uiso   1.00
C1495  C     0.12019   0.68667   0.81597   0.00000  Uiso   1.00
C1496  C     0.21314   0.98000   0.85070   0.00000  Uiso   1.00
C1497  C     0.12162   0.97675   0.81424   0.00000  Uiso   1.00
C1498  C     0.21171   0.68992   0.85242   0.00000  Uiso   1.00
C1499  C     0.16779   0.95736   0.83197   0.00000  Uiso   1.00
C1500  C     0.16554   0.70931   0.83470   0.00000  Uiso   1.00
C1501  C     0.19697   0.86204   0.69364   0.00000  Uiso   1.00
C1502  C     0.13637   0.80462   0.97302   0.00000  Uiso   1.00
C1503  C     0.19710   0.86181   0.97889   0.00000  Uiso   1.00
C1504  C     0.13623   0.80486   0.68778   0.00000  Uiso   1.00
N1505  N     0.16665   0.83332   0.95240   0.00000  Uiso   1.00
N1506  N     0.16668   0.83334   0.71427   0.00000  Uiso   1.00
O1507  O     0.16666   0.77225   0.87154   0.00000  Uiso   1.00
O1508  O     0.16667   0.89442   0.79513   0.00000  Uiso   1.00
O1509  O     0.16666   0.77226   0.79510   0.00000  Uiso   1.00
O1510  O     0.16667   0.89441   0.87157   0.00000  Uiso   1.00
O1511  O     0.09058   0.83333   0.86261   0.00000  Uiso   1.00
O1512  O     0.24275   0.83334   0.80405   0.00000  Uiso   1.00
O1513  O     0.09058   0.83334   0.78617   0.00000  Uiso   1.00
O1514  O     0.24275   0.83333   0.88050   0.00000  Uiso   1.00
Zn1515 Zn    0.16667   0.83333   0.88437   0.00000  Uiso   1.00
Zn1516 Zn    0.16667   0.83334   0.78229   0.00000  Uiso   1.00
N1517  N     0.31993   0.80412   0.77716   0.00000  Uiso   1.00
H1518  H     0.30638   0.77516   0.78859   0.00000  Uiso   1.00
H1519  H     0.01204   0.79756   0.75423   0.00000  Uiso   1.00
N1520  N     0.01340   0.86254   0.88950   0.00000  Uiso   1.00
H1521  H     0.02694   0.89150   0.87807   0.00000  Uiso   1.00
H1522  H     0.32129   0.86909   0.91243   0.00000  Uiso   1.00
C1523  C     0.07075   0.70758   0.80007   0.00000  Uiso   1.00
O1524  O     0.05598   0.73466   0.82330   0.00000  Uiso   1.00
O1525  O     0.04058   0.69559   0.75918   0.00000  Uiso   1.00
H1526  H     0.00759   0.71178   0.75232   0.00000  Uiso   1.00
C1527  C     0.26258   0.95909   0.86661   0.00000  Uiso   1.00
O1528  O     0.27735   0.93199   0.84340   0.00000  Uiso   1.00
O1529  O     0.29276   0.97110   0.90749   0.00000  Uiso   1.00
H1530  H     0.32573   0.95489   0.91436   0.00000  Uiso   1.00
N1531  N     0.07542   0.95265   0.79648   0.00000  Uiso   1.00
H1532  H     0.08309   0.93541   0.76872   0.00000  Uiso   1.00
H1533  H     0.06561   0.93185   0.82170   0.00000  Uiso   1.00
N1534  N     0.25791   0.71402   0.87018   0.00000  Uiso   1.00
H1535  H     0.25024   0.73126   0.89794   0.00000  Uiso   1.00
H1536  H     0.26772   0.73482   0.84497   0.00000  Uiso   1.00
C1537  C     0.22939   0.89396   0.72087   0.00000  Uiso   1.00
O1538  O     0.21234   0.92854   0.72536   0.00000  Uiso   1.00
O1539  O     0.28075   0.88573   0.73833   0.00000  Uiso   1.00
H1540  H     0.29959   0.91042   0.75537   0.00000  Uiso   1.00
C1541  C     0.10397   0.77269   0.94579   0.00000  Uiso   1.00
O1542  O     0.12104   0.73810   0.94134   0.00000  Uiso   1.00
O1543  O     0.05260   0.78092   0.92830   0.00000  Uiso   1.00
H1544  H     0.03379   0.75622   0.91126   0.00000  Uiso   1.00
N1545  N     0.22925   0.89120   0.95753   0.00000  Uiso   1.00
H1546  H     0.21850   0.92150   0.96398   0.00000  Uiso   1.00
H1547  H     0.26787   0.88786   0.97224   0.00000  Uiso   1.00
N1548  N     0.10408   0.77546   0.70913   0.00000  Uiso   1.00
H1549  H     0.11484   0.74517   0.70270   0.00000  Uiso   1.00
H1550  H     0.06546   0.77880   0.69442   0.00000  Uiso   1.00
C1551  C     0.49937   0.75352   0.83364   0.00000  Uiso   1.00
C1552  C     0.50063   0.91314   0.83303   0.00000  Uiso   1.00
C1553  C     0.40062   0.83274   0.82163   0.00000  Uiso   1.00
C1554  C     0.59938   0.83393   0.84504   0.00000  Uiso   1.00
C1555  C     0.34591   0.82695   0.81632   0.00000  Uiso   1.00
C1556  C     0.65409   0.83971   0.85035   0.00000  Uiso   1.00
C1557  C     0.45353   0.68667   0.81597   0.00000  Uiso   1.00
C1558  C     0.54647   0.98000   0.85070   0.00000  Uiso   1.00
C1559  C     0.45495   0.97675   0.81424   0.00000  Uiso   1.00
C1560  C     0.54505   0.68992   0.85242   0.00000  Uiso   1.00
C1561  C     0.50113   0.95736   0.83197   0.00000  Uiso   1.00
C1562  C     0.49887   0.70931   0.83470   0.00000  Uiso   1.00
C1563  C     0.53030   0.86204   0.69364   0.00000  Uiso   1.00
C1564  C     0.46970   0.80462   0.97302   0.00000  Uiso   1.00
C1565  C     0.53043   0.86181   0.97889   0.00000  Uiso   1.00
C1566  C     0.46957   0.80486   0.68778   0.00000  Uiso   1.00
N1567  N     0.49999   0.83332   0.95240   0.00000  Uiso   1.00
N1568  N     0.50001   0.83334   0.71427   0.00000  Uiso   1.00
O1569  O     0.50000   0.77225   0.87154   0.00000  Uiso   1.00
O1570  O     0.50000   0.89442   0.79513   0.00000  Uiso   1.00
O1571  O     0.50000   0.77226   0.79510   0.00000  Uiso   1.00
O1572  O     0.50000   0.89441   0.87157   0.00000  Uiso   1.00
O1573  O     0.42392   0.83333   0.86261   0.00000  Uiso   1.00
O1574  O     0.57608   0.83334   0.80405   0.00000  Uiso   1.00
O1575  O     0.42392   0.83334   0.78617   0.00000  Uiso   1.00
O1576  O     0.57608   0.83333   0.88050   0.00000  Uiso   1.00
Zn1577 Zn    0.50000   0.83333   0.88437   0.00000  Uiso   1.00
Zn1578 Zn    0.50000   0.83334   0.78229   0.00000  Uiso   1.00
N1579  N     0.65327   0.80412   0.77716   0.00000  Uiso   1.00
H1580  H     0.63971   0.77516   0.78859   0.00000  Uiso   1.00
H1581  H     0.34538   0.79756   0.75423   0.00000  Uiso   1.00
N1582  N     0.34673   0.86254   0.88950   0.00000  Uiso   1.00
H1583  H     0.36027   0.89150   0.87807   0.00000  Uiso   1.00
H1584  H     0.65462   0.86909   0.91243   0.00000  Uiso   1.00
C1585  C     0.40408   0.70758   0.80007   0.00000  Uiso   1.00
O1586  O     0.38931   0.73466   0.82330   0.00000  Uiso   1.00
O1587  O     0.37391   0.69559   0.75918   0.00000  Uiso   1.00
H1588  H     0.34092   0.71178   0.75232   0.00000  Uiso   1.00
C1589  C     0.59591   0.95909   0.86661   0.00000  Uiso   1.00
O1590  O     0.61068   0.93199   0.84340   0.00000  Uiso   1.00
O1591  O     0.62609   0.97110   0.90749   0.00000  Uiso   1.00
H1592  H     0.65907   0.95489   0.91436   0.00000  Uiso   1.00
N1593  N     0.40876   0.95265   0.79648   0.00000  Uiso   1.00
H1594  H     0.41642   0.93541   0.76872   0.00000  Uiso   1.00
H1595  H     0.39894   0.93185   0.82170   0.00000  Uiso   1.00
N1596  N     0.59124   0.71402   0.87018   0.00000  Uiso   1.00
H1597  H     0.58358   0.73126   0.89794   0.00000  Uiso   1.00
H1598  H     0.60105   0.73482   0.84497   0.00000  Uiso   1.00
C1599  C     0.56272   0.89396   0.72087   0.00000  Uiso   1.00
O1600  O     0.54567   0.92854   0.72536   0.00000  Uiso   1.00
O1601  O     0.61408   0.88573   0.73833   0.00000  Uiso   1.00
H1602  H     0.63292   0.91042   0.75537   0.00000  Uiso   1.00
C1603  C     0.43731   0.77269   0.94579   0.00000  Uiso   1.00
O1604  O     0.45437   0.73810   0.94134   0.00000  Uiso   1.00
O1605  O     0.38594   0.78092   0.92830   0.00000  Uiso   1.00
H1606  H     0.36712   0.75622   0.91126   0.00000  Uiso   1.00
N1607  N     0.56259   0.89120   0.95753   0.00000  Uiso   1.00
H1608  H     0.55183   0.92150   0.96398   0.00000  Uiso   1.00
H1609  H     0.60120   0.88786   0.97224   0.00000  Uiso   1.00
N1610  N     0.43741   0.77546   0.70913   0.00000  Uiso   1.00
H1611  H     0.44817   0.74517   0.70270   0.00000  Uiso   1.00
H1612  H     0.39880   0.77880   0.69442   0.00000  Uiso   1.00
C1613  C     0.83270   0.75352   0.83364   0.00000  Uiso   1.00
C1614  C     0.83396   0.91314   0.83303   0.00000  Uiso   1.00
C1615  C     0.73395   0.83274   0.82163   0.00000  Uiso   1.00
C1616  C     0.93271   0.83393   0.84504   0.00000  Uiso   1.00
C1617  C     0.67924   0.82695   0.81632   0.00000  Uiso   1.00
C1618  C     0.98742   0.83971   0.85035   0.00000  Uiso   1.00
C1619  C     0.78686   0.68667   0.81597   0.00000  Uiso   1.00
C1620  C     0.87980   0.98000   0.85070   0.00000  Uiso   1.00
C1621  C     0.78829   0.97675   0.81424   0.00000  Uiso   1.00
C1622  C     0.87838   0.68992   0.85242   0.00000  Uiso   1.00
C1623  C     0.83446   0.95736   0.83197   0.00000  Uiso   1.00
C1624  C     0.83221   0.70931   0.83470   0.00000  Uiso   1.00
C1625  C     0.86364   0.86204   0.69364   0.00000  Uiso   1.00
C1626  C     0.80303   0.80462   0.97302   0.00000  Uiso   1.00
C1627  C     0.86377   0.86181   0.97889   0.00000  Uiso   1.00
C1628  C     0.80290   0.80486   0.68778   0.00000  Uiso   1.00
N1629  N     0.83332   0.83332   0.95240   0.00000  Uiso   1.00
N1630  N     0.83335   0.83334   0.71427   0.00000  Uiso   1.00
O1631  O     0.83333   0.77225   0.87154   0.00000  Uiso   1.00
O1632  O     0.83334   0.89442   0.79513   0.00000  Uiso   1.00
O1633  O     0.83333   0.77226   0.79510   0.00000  Uiso   1.00
O1634  O     0.83334   0.89441   0.87157   0.00000  Uiso   1.00
O1635  O     0.75725   0.83333   0.86261   0.00000  Uiso   1.00
O1636  O     0.90942   0.83334   0.80405   0.00000  Uiso   1.00
O1637  O     0.75725   0.83334   0.78617   0.00000  Uiso   1.00
O1638  O     0.90942   0.83333   0.88050   0.00000  Uiso   1.00
Zn1639 Zn    0.83333   0.83333   0.88437   0.00000  Uiso   1.00
Zn1640 Zn    0.83333   0.83334   0.78229   0.00000  Uiso   1.00
N1641  N     0.98660   0.80412   0.77716   0.00000  Uiso   1.00
H1642  H     0.97305   0.77516   0.78859   0.00000  Uiso   1.00
H1643  H     0.67871   0.79756   0.75423   0.00000  Uiso   1.00
N1644  N     0.68007   0.86254   0.88950   0.00000  Uiso   1.00
H1645  H     0.69360   0.89150   0.87807   0.00000  Uiso   1.00
H1646  H     0.98795   0.86909   0.91243   0.00000  Uiso   1.00
C1647  C     0.73741   0.70758   0.80007   0.00000  Uiso   1.00
O1648  O     0.72264   0.73466   0.82330   0.00000  Uiso   1.00
O1649  O     0.70724   0.69559   0.75918   0.00000  Uiso   1.00
H1650  H     0.67426   0.71178   0.75232   0.00000  Uiso   1.00
C1651  C     0.92925   0.95909   0.86661   0.00000  Uiso   1.00
O1652  O     0.94402   0.93199   0.84340   0.00000  Uiso   1.00
O1653  O     0.95942   0.97110   0.90749   0.00000  Uiso   1.00
H1654  H     0.99240   0.95489   0.91436   0.00000  Uiso   1.00
N1655  N     0.74209   0.95265   0.79648   0.00000  Uiso   1.00
H1656  H     0.74976   0.93541   0.76872   0.00000  Uiso   1.00
H1657  H     0.73228   0.93185   0.82170   0.00000  Uiso   1.00
N1658  N     0.92457   0.71402   0.87018   0.00000  Uiso   1.00
H1659  H     0.91691   0.73126   0.89794   0.00000  Uiso   1.00
H1660  H     0.93439   0.73482   0.84497   0.00000  Uiso   1.00
C1661  C     0.89605   0.89396   0.72087   0.00000  Uiso   1.00
O1662  O     0.87901   0.92854   0.72536   0.00000  Uiso   1.00
O1663  O     0.94742   0.88573   0.73833   0.00000  Uiso   1.00
H1664  H     0.96625   0.91042   0.75537   0.00000  Uiso   1.00
C1665  C     0.77064   0.77269   0.94579   0.00000  Uiso   1.00
O1666  O     0.78770   0.73810   0.94134   0.00000  Uiso   1.00
O1667  O     0.71927   0.78092   0.92830   0.00000  Uiso   1.00
H1668  H     0.70046   0.75622   0.91126   0.00000  Uiso   1.00
N1669  N     0.89592   0.89120   0.95753   0.00000  Uiso   1.00
H1670  H     0.88517   0.92150   0.96398   0.00000  Uiso   1.00
H1671  H     0.93454   0.88786   0.97224   0.00000  Uiso   1.00
N1672  N     0.77074   0.77546   0.70913   0.00000  Uiso   1.00
H1673  H     0.78151   0.74517   0.70270   0.00000  Uiso   1.00
H1674  H     0.73213   0.77880   0.69442   0.00000  Uiso   1.00
loop_
_geom_bond_atom_site_label_1
_geom_bond_atom_site_label_2
_geom_bond_distance
_geom_bond_site_symmetry_2
_ccdc_geom_bond_type
C1     O21     1.285   .     A
C1     C12     1.411   .     S
C1     O19     1.280   .     A
C2     O22     1.285   .     A
C2     C11     1.411   .     S
C2     O20     1.280   .     A
C3     O23     1.280   .     A
C3     C5      1.414   .     S
C3     O25     1.287   .     A
C4     O26     1.287   .     A
C4     C6      1.414   .     S
C4     O24     1.280   .     A
C5     C130    1.356   1_455 S
C5     N153    1.450   1_455 S
C6     C67     1.356   .     S
C6     N94     1.450   .     S
C7     C12     1.406   .     A
C7     C35     1.486   .     S
C7     C381    1.384   1_545 S
C8     C39     1.486   .     S
C8     C11     1.406   .     A
C8     C196    1.384   .     S
C9     C11     1.404   .     A
C9     N43     1.439   .     S
C9     C193    1.384   .     S
C10    N46     1.439   .     S
C10    C12     1.404   .     A
C10    C380    1.384   1_545 S
C13    N18     1.377   .     A
C13    C49     1.471   .     S
C13    C1131   1.429   1_554 S
C14    N17     1.377   .     A
C14    C53     1.471   .     S
C14    C574    1.429   .     S
C15    N57     1.432   .     S
C15    N17     1.363   .     A
C15    C571    1.429   .     S
C16    N18     1.363   .     A
C16    N60     1.432   .     S
C16    C1130   1.429   1_554 S
N17    Zn27    2.020   .     S
N18    Zn28    2.020   .     S
O19    Zn27    1.992   .     S
O20    Zn28    1.992   .     S
O21    Zn28    1.980   .     S
O22    Zn27    1.980   .     S
O23    Zn27    1.992   .     S
O24    Zn28    1.992   .     S
O25    Zn28    1.998   .     S
O26    Zn27    1.998   .     S
N29    H30     1.045   .     S
N29    C67     1.450   .     S
N29    H93     1.044   .     S
H31    N153    1.044   1_455 S
N32    H33     1.044   .     S
N32    C130    1.450   1_455 S
N32    H158    1.044   1_455 S
H34    N94     1.044   .     S
C35    O36     1.221   .     D
C35    O37     1.398   .     S
O37    H38     1.014   .     S
C39    O41     1.398   .     S
C39    O40     1.221   .     D
O41    H42     1.014   .     S
N43    H44     1.045   .     S
N43    H45     1.045   .     S
N46    H48     1.045   .     S
N46    H47     1.045   .     S
C49    O50     1.222   .     D
C49    O51     1.396   .     S
O51    H52     1.014   .     S
C53    O54     1.222   .     D
C53    O55     1.396   .     S
O55    H56     1.014   .     S
N57    H58     1.045   .     S
N57    H59     1.045   .     S
N60    H62     1.045   .     S
N60    H61     1.045   .     S
C63    O83     1.285   .     A
C63    C74     1.411   .     S
C63    O81     1.280   .     A
C64    O84     1.285   .     A
C64    C73     1.411   .     S
C64    O82     1.280   .     A
C65    O85     1.280   .     A
C65    C67     1.414   .     S
C65    O87     1.287   .     A
C66    O88     1.287   .     A
C66    C68     1.414   .     S
C66    O86     1.280   .     A
C68    C129    1.356   .     S
C68    N156    1.450   .     S
C69    C74     1.406   .     A
C69    C97     1.486   .     S
C69    C443    1.384   1_545 S
C70    C101    1.486   .     S
C70    C73     1.406   .     A
C70    C258    1.384   .     S
C71    C73     1.404   .     A
C71    N105    1.439   .     S
C71    C255    1.384   .     S
C72    N108    1.439   .     S
C72    C74     1.404   .     A
C72    C442    1.384   1_545 S
C75    N80     1.377   .     A
C75    C111    1.471   .     S
C75    C1193   1.429   1_554 S
C76    N79     1.377   .     A
C76    C115    1.471   .     S
C76    C636    1.429   .     S
C77    N119    1.432   .     S
C77    N79     1.363   .     A
C77    C633    1.429   .     S
C78    N80     1.363   .     A
C78    N122    1.432   .     S
C78    C1192   1.429   1_554 S
N79    Zn89    2.020   .     S
N80    Zn90    2.020   .     S
O81    Zn89    1.992   .     S
O82    Zn90    1.992   .     S
O83    Zn90    1.980   .     S
O84    Zn89    1.980   .     S
O85    Zn89    1.992   .     S
O86    Zn90    1.992   .     S
O87    Zn90    1.998   .     S
O88    Zn89    1.998   .     S
N91    H92     1.045   .     S
N91    C129    1.450   .     S
N91    H155    1.044   .     S
N94    H95     1.044   .     S
H96    N156    1.044   .     S
C97    O98     1.221   .     D
C97    O99     1.398   .     S
O99    H100    1.014   .     S
C101   O103    1.398   .     S
C101   O102    1.221   .     D
O103   H104    1.014   .     S
N105   H106    1.045   .     S
N105   H107    1.045   .     S
N108   H110    1.045   .     S
N108   H109    1.045   .     S
C111   O112    1.222   .     D
C111   O113    1.396   .     S
O113   H114    1.014   .     S
C115   O116    1.222   .     D
C115   O117    1.396   .     S
O117   H118    1.014   .     S
N119   H120    1.045   .     S
N119   H121    1.045   .     S
N122   H124    1.045   .     S
N122   H123    1.045   .     S
C125   O145    1.285   .     A
C125   C136    1.411   .     S
C125   O143    1.280   .     A
C126   O146    1.285   .     A
C126   C135    1.411   .     S
C126   O144    1.280   .     A
C127   O147    1.280   .     A
C127   C129    1.414   .     S
C127   O149    1.287   .     A
C128   O150    1.287   .     A
C128   C130    1.414   .     S
C128   O148    1.280   .     A
C130   C5      1.356   1_655 S
C130   N32     1.450   1_655 S
C131   C136    1.406   .     A
C131   C159    1.486   .     S
C131   C505    1.384   1_545 S
C132   C163    1.486   .     S
C132   C135    1.406   .     A
C132   C320    1.384   .     S
C133   C135    1.404   .     A
C133   N167    1.439   .     S
C133   C317    1.384   .     S
C134   N170    1.439   .     S
C134   C136    1.404   .     A
C134   C504    1.384   1_545 S
C137   N142    1.377   .     A
C137   C173    1.471   .     S
C137   C1255   1.429   1_554 S
C138   N141    1.377   .     A
C138   C177    1.471   .     S
C138   C698    1.429   .     S
C139   N181    1.432   .     S
C139   N141    1.363   .     A
C139   C695    1.429   .     S
C140   N142    1.363   .     A
C140   N184    1.432   .     S
C140   C1254   1.429   1_554 S
N141   Zn151   2.020   .     S
N142   Zn152   2.020   .     S
O143   Zn151   1.992   .     S
O144   Zn152   1.992   .     S
O145   Zn152   1.980   .     S
O146   Zn151   1.980   .     S
O147   Zn151   1.992   .     S
O148   Zn152   1.992   .     S
O149   Zn152   1.998   .     S
O150   Zn151   1.998   .     S
N153   H154    1.045   .     S
N153   C5      1.450   1_655 S
N153   H31     1.044   1_655 S
N156   H157    1.044   .     S
H158   N32     1.044   1_655 S
C159   O160    1.221   .     D
C159   O161    1.398   .     S
O161   H162    1.014   .     S
C163   O165    1.398   .     S
C163   O164    1.221   .     D
O165   H166    1.014   .     S
N167   H168    1.045   .     S
N167   H169    1.045   .     S
N170   H172    1.045   .     S
N170   H171    1.045   .     S
C173   O174    1.222   .     D
C173   O175    1.396   .     S
O175   H176    1.014   .     S
C177   O178    1.222   .     D
C177   O179    1.396   .     S
O179   H180    1.014   .     S
N181   H182    1.045   .     S
N181   H183    1.045   .     S
N184   H186    1.045   .     S
N184   H185    1.045   .     S
C187   O207    1.285   .     A
C187   C198    1.411   .     S
C187   O205    1.280   .     A
C188   O208    1.285   .     A
C188   C197    1.411   .     S
C188   O206    1.280   .     A
C189   O209    1.280   .     A
C189   C191    1.414   .     S
C189   O211    1.287   .     A
C190   O212    1.287   .     A
C190   C192    1.414   .     S
C190   O210    1.280   .     A
C191   C316    1.356   1_455 S
C191   N339    1.450   1_455 S
C192   C253    1.356   .     S
C192   N280    1.450   .     S
C193   C198    1.406   .     A
C193   C221    1.486   .     S
C194   C225    1.486   .     S
C194   C197    1.406   .     A
C194   C382    1.384   .     S
C195   C197    1.404   .     A
C195   N229    1.439   .     S
C195   C379    1.384   .     S
C196   N232    1.439   .     S
C196   C198    1.404   .     A
C199   N204    1.377   .     A
C199   C235    1.471   .     S
C199   C1317   1.429   1_554 S
C200   N203    1.377   .     A
C200   C239    1.471   .     S
C200   C760    1.429   .     S
C201   N243    1.432   .     S
C201   N203    1.363   .     A
C201   C757    1.429   .     S
C202   N204    1.363   .     A
C202   N246    1.432   .     S
C202   C1316   1.429   1_554 S
N203   Zn213   2.020   .     S
N204   Zn214   2.020   .     S
O205   Zn213   1.992   .     S
O206   Zn214   1.992   .     S
O207   Zn214   1.980   .     S
O208   Zn213   1.980   .     S
O209   Zn213   1.992   .     S
O210   Zn214   1.992   .     S
O211   Zn214   1.998   .     S
O212   Zn213   1.998   .     S
N215   H216    1.045   .     S
N215   C253    1.450   .     S
N215   H279    1.044   .     S
H217   N339    1.044   1_455 S
N218   H219    1.044   .     S
N218   C316    1.450   1_455 S
N218   H344    1.044   1_455 S
H220   N280    1.044   .     S
C221   O222    1.221   .     D
C221   O223    1.398   .     S
O223   H224    1.014   .     S
C225   O227    1.398   .     S
C225   O226    1.221   .     D
O227   H228    1.014   .     S
N229   H230    1.045   .     S
N229   H231    1.045   .     S
N232   H234    1.045   .     S
N232   H233    1.045   .     S
C235   O236    1.222   .     D
C235   O237    1.396   .     S
O237   H238    1.014   .     S
C239   O240    1.222   .     D
C239   O241    1.396   .     S
O241   H242    1.014   .     S
N243   H244    1.045   .     S
N243   H245    1.045   .     S
N246   H248    1.045   .     S
N246   H247    1.045   .     S
C249   O269    1.285   .     A
C249   C260    1.411   .     S
C249   O267    1.280   .     A
C250   O270    1.285   .     A
C250   C259    1.411   .     S
C250   O268    1.280   .     A
C251   O271    1.280   .     A
C251   C253    1.414   .     S
C251   O273    1.287   .     A
C252   O274    1.287   .     A
C252   C254    1.414   .     S
C252   O272    1.280   .     A
C254   C315    1.356   .     S
C254   N342    1.450   .     S
C255   C260    1.406   .     A
C255   C283    1.486   .     S
C256   C287    1.486   .     S
C256   C259    1.406   .     A
C256   C444    1.384   .     S
C257   C259    1.404   .     A
C257   N291    1.439   .     S
C257   C441    1.384   .     S
C258   N294    1.439   .     S
C258   C260    1.404   .     A
C261   N266    1.377   .     A
C261   C297    1.471   .     S
C261   C1379   1.429   1_554 S
C262   N265    1.377   .     A
C262   C301    1.471   .     S
C262   C822    1.429   .     S
C263   N305    1.432   .     S
C263   N265    1.363   .     A
C263   C819    1.429   .     S
C264   N266    1.363   .     A
C264   N308    1.432   .     S
C264   C1378   1.429   1_554 S
N265   Zn275   2.020   .     S
N266   Zn276   2.020   .     S
O267   Zn275   1.992   .     S
O268   Zn276   1.992   .     S
O269   Zn276   1.980   .     S
O270   Zn275   1.980   .     S
O271   Zn275   1.992   .     S
O272   Zn276   1.992   .     S
O273   Zn276   1.998   .     S
O274   Zn275   1.998   .     S
N277   H278    1.045   .     S
N277   C315    1.450   .     S
N277   H341    1.044   .     S
N280   H281    1.044   .     S
H282   N342    1.044   .     S
C283   O284    1.221   .     D
C283   O285    1.398   .     S
O285   H286    1.014   .     S
C287   O289    1.398   .     S
C287   O288    1.221   .     D
O289   H290    1.014   .     S
N291   H292    1.045   .     S
N291   H293    1.045   .     S
N294   H296    1.045   .     S
N294   H295    1.045   .     S
C297   O298    1.222   .     D
C297   O299    1.396   .     S
O299   H300    1.014   .     S
C301   O302    1.222   .     D
C301   O303    1.396   .     S
O303   H304    1.014   .     S
N305   H306    1.045   .     S
N305   H307    1.045   .     S
N308   H310    1.045   .     S
N308   H309    1.045   .     S
C311   O331    1.285   .     A
C311   C322    1.411   .     S
C311   O329    1.280   .     A
C312   O332    1.285   .     A
C312   C321    1.411   .     S
C312   O330    1.280   .     A
C313   O333    1.280   .     A
C313   C315    1.414   .     S
C313   O335    1.287   .     A
C314   O336    1.287   .     A
C314   C316    1.414   .     S
C314   O334    1.280   .     A
C316   C191    1.356   1_655 S
C316   N218    1.450   1_655 S
C317   C322    1.406   .     A
C317   C345    1.486   .     S
C318   C349    1.486   .     S
C318   C321    1.406   .     A
C318   C506    1.384   .     S
C319   C321    1.404   .     A
C319   N353    1.439   .     S
C319   C503    1.384   .     S
C320   N356    1.439   .     S
C320   C322    1.404   .     A
C323   N328    1.377   .     A
C323   C359    1.471   .     S
C323   C1441   1.429   1_554 S
C324   N327    1.377   .     A
C324   C363    1.471   .     S
C324   C884    1.429   .     S
C325   N367    1.432   .     S
C325   N327    1.363   .     A
C325   C881    1.429   .     S
C326   N328    1.363   .     A
C326   N370    1.432   .     S
C326   C1440   1.429   1_554 S
N327   Zn337   2.020   .     S
N328   Zn338   2.020   .     S
O329   Zn337   1.992   .     S
O330   Zn338   1.992   .     S
O331   Zn338   1.980   .     S
O332   Zn337   1.980   .     S
O333   Zn337   1.992   .     S
O334   Zn338   1.992   .     S
O335   Zn338   1.998   .     S
O336   Zn337   1.998   .     S
N339   H340    1.045   .     S
N339   C191    1.450   1_655 S
N339   H217    1.044   1_655 S
N342   H343    1.044   .     S
H344   N218    1.044   1_655 S
C345   O346    1.221   .     D
C345   O347    1.398   .     S
O347   H348    1.014   .     S
C349   O351    1.398   .     S
C349   O350    1.221   .     D
O351   H352    1.014   .     S
N353   H354    1.045   .     S
N353   H355    1.045   .     S
N356   H358    1.045   .     S
N356   H357    1.045   .     S
C359   O360    1.222   .     D
C359   O361    1.396   .     S
O361   H362    1.014   .     S
C363   O364    1.222   .     D
C363   O365    1.396   .     S
O365   H366    1.014   .     S
N367   H368    1.045   .     S
N367   H369    1.045   .     S
N370   H372    1.045   .     S
N370   H371    1.045   .     S
C373   O393    1.285   .     A
C373   C384    1.411   .     S
C373   O391    1.280   .     A
C374   O394    1.285   .     A
C374   C383    1.411   .     S
C374   O392    1.280   .     A
C375   O395    1.280   .     A
C375   C377    1.414   .     S
C375   O397    1.287   .     A
C376   O398    1.287   .     A
C376   C378    1.414   .     S
C376   O396    1.280   .     A
C377   C502    1.356   1_455 S
C377   N525    1.450   1_455 S
C378   C439    1.356   .     S
C378   N466    1.450   .     S
C379   C384    1.406   .     A
C379   C407    1.486   .     S
C380   C411    1.486   .     S
C380   C383    1.406   .     A
C380   C10     1.384   1_565 S
C381   C383    1.404   .     A
C381   N415    1.439   .     S
C381   C7      1.384   1_565 S
C382   N418    1.439   .     S
C382   C384    1.404   .     A
C385   N390    1.377   .     A
C385   C421    1.471   .     S
C385   C1503   1.429   1_554 S
C386   N389    1.377   .     A
C386   C425    1.471   .     S
C386   C946    1.429   .     S
C387   N429    1.432   .     S
C387   N389    1.363   .     A
C387   C943    1.429   .     S
C388   N390    1.363   .     A
C388   N432    1.432   .     S
C388   C1502   1.429   1_554 S
N389   Zn399   2.020   .     S
N390   Zn400   2.020   .     S
O391   Zn399   1.992   .     S
O392   Zn400   1.992   .     S
O393   Zn400   1.980   .     S
O394   Zn399   1.980   .     S
O395   Zn399   1.992   .     S
O396   Zn400   1.992   .     S
O397   Zn400   1.998   .     S
O398   Zn399   1.998   .     S
N401   H402    1.045   .     S
N401   C439    1.450   .     S
N401   H465    1.044   .     S
H403   N525    1.044   1_455 S
N404   H405    1.044   .     S
N404   C502    1.450   1_455 S
N404   H530    1.044   1_455 S
H406   N466    1.044   .     S
C407   O408    1.221   .     D
C407   O409    1.398   .     S
O409   H410    1.014   .     S
C411   O413    1.398   .     S
C411   O412    1.221   .     D
O413   H414    1.014   .     S
N415   H416    1.045   .     S
N415   H417    1.045   .     S
N418   H420    1.045   .     S
N418   H419    1.045   .     S
C421   O422    1.222   .     D
C421   O423    1.396   .     S
O423   H424    1.014   .     S
C425   O426    1.222   .     D
C425   O427    1.396   .     S
O427   H428    1.014   .     S
N429   H430    1.045   .     S
N429   H431    1.045   .     S
N432   H434    1.045   .     S
N432   H433    1.045   .     S
C435   O455    1.285   .     A
C435   C446    1.411   .     S
C435   O453    1.280   .     A
C436   O456    1.285   .     A
C436   C445    1.411   .     S
C436   O454    1.280   .     A
C437   O457    1.280   .     A
C437   C439    1.414   .     S
C437   O459    1.287   .     A
C438   O460    1.287   .     A
C438   C440    1.414   .     S
C438   O458    1.280   .     A
C440   C501    1.356   .     S
C440   N528    1.450   .     S
C441   C446    1.406   .     A
C441   C469    1.486   .     S
C442   C473    1.486   .     S
C442   C445    1.406   .     A
C442   C72     1.384   1_565 S
C443   C445    1.404   .     A
C443   N477    1.439   .     S
C443   C69     1.384   1_565 S
C444   N480    1.439   .     S
C444   C446    1.404   .     A
C447   N452    1.377   .     A
C447   C483    1.471   .     S
C447   C1565   1.429   1_554 S
C448   N451    1.377   .     A
C448   C487    1.471   .     S
C448   C1008   1.429   .     S
C449   N491    1.432   .     S
C449   N451    1.363   .     A
C449   C1005   1.429   .     S
C450   N452    1.363   .     A
C450   N494    1.432   .     S
C450   C1564   1.429   1_554 S
N451   Zn461   2.020   .     S
N452   Zn462   2.020   .     S
O453   Zn461   1.992   .     S
O454   Zn462   1.992   .     S
O455   Zn462   1.980   .     S
O456   Zn461   1.980   .     S
O457   Zn461   1.992   .     S
O458   Zn462   1.992   .     S
O459   Zn462   1.998   .     S
O460   Zn461   1.998   .     S
N463   H464    1.045   .     S
N463   C501    1.450   .     S
N463   H527    1.044   .     S
N466   H467    1.044   .     S
H468   N528    1.044   .     S
C469   O470    1.221   .     D
C469   O471    1.398   .     S
O471   H472    1.014   .     S
C473   O475    1.398   .     S
C473   O474    1.221   .     D
O475   H476    1.014   .     S
N477   H478    1.045   .     S
N477   H479    1.045   .     S
N480   H482    1.045   .     S
N480   H481    1.045   .     S
C483   O484    1.222   .     D
C483   O485    1.396   .     S
O485   H486    1.014   .     S
C487   O488    1.222   .     D
C487   O489    1.396   .     S
O489   H490    1.014   .     S
N491   H492    1.045   .     S
N491   H493    1.045   .     S
N494   H496    1.045   .     S
N494   H495    1.045   .     S
C497   O517    1.285   .     A
C497   C508    1.411   .     S
C497   O515    1.280   .     A
C498   O518    1.285   .     A
C498   C507    1.411   .     S
C498   O516    1.280   .     A
C499   O519    1.280   .     A
C499   C501    1.414   .     S
C499   O521    1.287   .     A
C500   O522    1.287   .     A
C500   C502    1.414   .     S
C500   O520    1.280   .     A
C502   C377    1.356   1_655 S
C502   N404    1.450   1_655 S
C503   C508    1.406   .     A
C503   C531    1.486   .     S
C504   C535    1.486   .     S
C504   C507    1.406   .     A
C504   C134    1.384   1_565 S
C505   C507    1.404   .     A
C505   N539    1.439   .     S
C505   C131    1.384   1_565 S
C506   N542    1.439   .     S
C506   C508    1.404   .     A
C509   N514    1.377   .     A
C509   C545    1.471   .     S
C509   C1627   1.429   1_554 S
C510   N513    1.377   .     A
C510   C549    1.471   .     S
C510   C1070   1.429   .     S
C511   N553    1.432   .     S
C511   N513    1.363   .     A
C511   C1067   1.429   .     S
C512   N514    1.363   .     A
C512   N556    1.432   .     S
C512   C1626   1.429   1_554 S
N513   Zn523   2.020   .     S
N514   Zn524   2.020   .     S
O515   Zn523   1.992   .     S
O516   Zn524   1.992   .     S
O517   Zn524   1.980   .     S
O518   Zn523   1.980   .     S
O519   Zn523   1.992   .     S
O520   Zn524   1.992   .     S
O521   Zn524   1.998   .     S
O522   Zn523   1.998   .     S
N525   H526    1.045   .     S
N525   C377    1.450   1_655 S
N525   H403    1.044   1_655 S
N528   H529    1.044   .     S
H530   N404    1.044   1_655 S
C531   O532    1.221   .     D
C531   O533    1.398   .     S
O533   H534    1.014   .     S
C535   O537    1.398   .     S
C535   O536    1.221   .     D
O537   H538    1.014   .     S
N539   H540    1.045   .     S
N539   H541    1.045   .     S
N542   H544    1.045   .     S
N542   H543    1.045   .     S
C545   O546    1.222   .     D
C545   O547    1.396   .     S
O547   H548    1.014   .     S
C549   O550    1.222   .     D
C549   O551    1.396   .     S
O551   H552    1.014   .     S
N553   H554    1.045   .     S
N553   H555    1.045   .     S
N556   H558    1.045   .     S
N556   H557    1.045   .     S
C559   O579    1.285   .     A
C559   C570    1.411   .     S
C559   O577    1.280   .     A
C560   O580    1.285   .     A
C560   C569    1.411   .     S
C560   O578    1.280   .     A
C561   O581    1.280   .     A
C561   C563    1.414   .     S
C561   O583    1.287   .     A
C562   O584    1.287   .     A
C562   C564    1.414   .     S
C562   O582    1.280   .     A
C563   C688    1.356   1_455 S
C563   N711    1.450   1_455 S
C564   C625    1.356   .     S
C564   N652    1.450   .     S
C565   C570    1.406   .     A
C565   C593    1.486   .     S
C565   C939    1.384   1_545 S
C566   C597    1.486   .     S
C566   C569    1.406   .     A
C566   C754    1.384   .     S
C567   C569    1.404   .     A
C567   N601    1.439   .     S
C567   C751    1.384   .     S
C568   N604    1.439   .     S
C568   C570    1.404   .     A
C568   C938    1.384   1_545 S
C571   N576    1.377   .     A
C571   C607    1.471   .     S
C572   N575    1.377   .     A
C572   C611    1.471   .     S
C572   C1132   1.429   .     S
C573   N615    1.432   .     S
C573   N575    1.363   .     A
C573   C1129   1.429   .     S
C574   N576    1.363   .     A
C574   N618    1.432   .     S
N575   Zn585   2.020   .     S
N576   Zn586   2.020   .     S
O577   Zn585   1.992   .     S
O578   Zn586   1.992   .     S
O579   Zn586   1.980   .     S
O580   Zn585   1.980   .     S
O581   Zn585   1.992   .     S
O582   Zn586   1.992   .     S
O583   Zn586   1.998   .     S
O584   Zn585   1.998   .     S
N587   H588    1.045   .     S
N587   C625    1.450   .     S
N587   H651    1.044   .     S
H589   N711    1.044   1_455 S
N590   H591    1.044   .     S
N590   C688    1.450   1_455 S
N590   H716    1.044   1_455 S
H592   N652    1.044   .     S
C593   O594    1.221   .     D
C593   O595    1.398   .     S
O595   H596    1.014   .     S
C597   O599    1.398   .     S
C597   O598    1.221   .     D
O599   H600    1.014   .     S
N601   H602    1.045   .     S
N601   H603    1.045   .     S
N604   H606    1.045   .     S
N604   H605    1.045   .     S
C607   O608    1.222   .     D
C607   O609    1.396   .     S
O609   H610    1.014   .     S
C611   O612    1.222   .     D
C611   O613    1.396   .     S
O613   H614    1.014   .     S
N615   H616    1.045   .     S
N615   H617    1.045   .     S
N618   H620    1.045   .     S
N618   H619    1.045   .     S
C621   O641    1.285   .     A
C621   C632    1.411   .     S
C621   O639    1.280   .     A
C622   O642    1.285   .     A
C622   C631    1.411   .     S
C622   O640    1.280   .     A
C623   O643    1.280   .     A
C623   C625    1.414   .     S
C623   O645    1.287   .     A
C624   O646    1.287   .     A
C624   C626    1.414   .     S
C624   O644    1.280   .     A
C626   C687    1.356   .     S
C626   N714    1.450   .     S
C627   C632    1.406   .     A
C627   C655    1.486   .     S
C627   C1001   1.384   1_545 S
C628   C659    1.486   .     S
C628   C631    1.406   .     A
C628   C816    1.384   .     S
C629   C631    1.404   .     A
C629   N663    1.439   .     S
C629   C813    1.384   .     S
C630   N666    1.439   .     S
C630   C632    1.404   .     A
C630   C1000   1.384   1_545 S
C633   N638    1.377   .     A
C633   C669    1.471   .     S
C634   N637    1.377   .     A
C634   C673    1.471   .     S
C634   C1194   1.429   .     S
C635   N677    1.432   .     S
C635   N637    1.363   .     A
C635   C1191   1.429   .     S
C636   N638    1.363   .     A
C636   N680    1.432   .     S
N637   Zn647   2.020   .     S
N638   Zn648   2.020   .     S
O639   Zn647   1.992   .     S
O640   Zn648   1.992   .     S
O641   Zn648   1.980   .     S
O642   Zn647   1.980   .     S
O643   Zn647   1.992   .     S
O644   Zn648   1.992   .     S
O645   Zn648   1.998   .     S
O646   Zn647   1.998   .     S
N649   H650    1.045   .     S
N649   C687    1.450   .     S
N649   H713    1.044   .     S
N652   H653    1.044   .     S
H654   N714    1.044   .     S
C655   O656    1.221   .     D
C655   O657    1.398   .     S
O657   H658    1.014   .     S
C659   O661    1.398   .     S
C659   O660    1.221   .     D
O661   H662    1.014   .     S
N663   H664    1.045   .     S
N663   H665    1.045   .     S
N666   H668    1.045   .     S
N666   H667    1.045   .     S
C669   O670    1.222   .     D
C669   O671    1.396   .     S
O671   H672    1.014   .     S
C673   O674    1.222   .     D
C673   O675    1.396   .     S
O675   H676    1.014   .     S
N677   H678    1.045   .     S
N677   H679    1.045   .     S
N680   H682    1.045   .     S
N680   H681    1.045   .     S
C683   O703    1.285   .     A
C683   C694    1.411   .     S
C683   O701    1.280   .     A
C684   O704    1.285   .     A
C684   C693    1.411   .     S
C684   O702    1.280   .     A
C685   O705    1.280   .     A
C685   C687    1.414   .     S
C685   O707    1.287   .     A
C686   O708    1.287   .     A
C686   C688    1.414   .     S
C686   O706    1.280   .     A
C688   C563    1.356   1_655 S
C688   N590    1.450   1_655 S
C689   C694    1.406   .     A
C689   C717    1.486   .     S
C689   C1063   1.384   1_545 S
C690   C721    1.486   .     S
C690   C693    1.406   .     A
C690   C878    1.384   .     S
C691   C693    1.404   .     A
C691   N725    1.439   .     S
C691   C875    1.384   .     S
C692   N728    1.439   .     S
C692   C694    1.404   .     A
C692   C1062   1.384   1_545 S
C695   N700    1.377   .     A
C695   C731    1.471   .     S
C696   N699    1.377   .     A
C696   C735    1.471   .     S
C696   C1256   1.429   .     S
C697   N739    1.432   .     S
C697   N699    1.363   .     A
C697   C1253   1.429   .     S
C698   N700    1.363   .     A
C698   N742    1.432   .     S
N699   Zn709   2.020   .     S
N700   Zn710   2.020   .     S
O701   Zn709   1.992   .     S
O702   Zn710   1.992   .     S
O703   Zn710   1.980   .     S
O704   Zn709   1.980   .     S
O705   Zn709   1.992   .     S
O706   Zn710   1.992   .     S
O707   Zn710   1.998   .     S
O708   Zn709   1.998   .     S
N711   H712    1.045   .     S
N711   C563    1.450   1_655 S
N711   H589    1.044   1_655 S
N714   H715    1.044   .     S
H716   N590    1.044   1_655 S
C717   O718    1.221   .     D
C717   O719    1.398   .     S
O719   H720    1.014   .     S
C721   O723    1.398   .     S
C721   O722    1.221   .     D
O723   H724    1.014   .     S
N725   H726    1.045   .     S
N725   H727    1.045   .     S
N728   H730    1.045   .     S
N728   H729    1.045   .     S
C731   O732    1.222   .     D
C731   O733    1.396   .     S
O733   H734    1.014   .     S
C735   O736    1.222   .     D
C735   O737    1.396   .     S
O737   H738    1.014   .     S
N739   H740    1.045   .     S
N739   H741    1.045   .     S
N742   H744    1.045   .     S
N742   H743    1.045   .     S
C745   O765    1.285   .     A
C745   C756    1.411   .     S
C745   O763    1.280   .     A
C746   O766    1.285   .     A
C746   C755    1.411   .     S
C746   O764    1.280   .     A
C747   O767    1.280   .     A
C747   C749    1.414   .     S
C747   O769    1.287   .     A
C748   O770    1.287   .     A
C748   C750    1.414   .     S
C748   O768    1.280   .     A
C749   C874    1.356   1_455 S
C749   N897    1.450   1_455 S
C750   C811    1.356   .     S
C750   N838    1.450   .     S
C751   C756    1.406   .     A
C751   C779    1.486   .     S
C752   C783    1.486   .     S
C752   C755    1.406   .     A
C752   C940    1.384   .     S
C753   C755    1.404   .     A
C753   N787    1.439   .     S
C753   C937    1.384   .     S
C754   N790    1.439   .     S
C754   C756    1.404   .     A
C757   N762    1.377   .     A
C757   C793    1.471   .     S
C758   N761    1.377   .     A
C758   C797    1.471   .     S
C758   C1318   1.429   .     S
C759   N801    1.432   .     S
C759   N761    1.363   .     A
C759   C1315   1.429   .     S
C760   N762    1.363   .     A
C760   N804    1.432   .     S
N761   Zn771   2.020   .     S
N762   Zn772   2.020   .     S
O763   Zn771   1.992   .     S
O764   Zn772   1.992   .     S
O765   Zn772   1.980   .     S
O766   Zn771   1.980   .     S
O767   Zn771   1.992   .     S
O768   Zn772   1.992   .     S
O769   Zn772   1.998   .     S
O770   Zn771   1.998   .     S
N773   H774    1.045   .     S
N773   C811    1.450   .     S
N773   H837    1.044   .     S
H775   N897    1.044   1_455 S
N776   H777    1.044   .     S
N776   C874    1.450   1_455 S
N776   H902    1.044   1_455 S
H778   N838    1.044   .     S
C779   O780    1.221   .     D
C779   O781    1.398   .     S
O781   H782    1.014   .     S
C783   O785    1.398   .     S
C783   O784    1.221   .     D
O785   H786    1.014   .     S
N787   H788    1.045   .     S
N787   H789    1.045   .     S
N790   H792    1.045   .     S
N790   H791    1.045   .     S
C793   O794    1.222   .     D
C793   O795    1.396   .     S
O795   H796    1.014   .     S
C797   O798    1.222   .     D
C797   O799    1.396   .     S
O799   H800    1.014   .     S
N801   H802    1.045   .     S
N801   H803    1.045   .     S
N804   H806    1.045   .     S
N804   H805    1.045   .     S
C807   O827    1.285   .     A
C807   C818    1.411   .     S
C807   O825    1.280   .     A
C808   O828    1.285   .     A
C808   C817    1.411   .     S
C808   O826    1.280   .     A
C809   O829    1.280   .     A
C809   C811    1.414   .     S
C809   O831    1.287   .     A
C810   O832    1.287   .     A
C810   C812    1.414   .     S
C810   O830    1.280   .     A
C812   C873    1.356   .     S
C812   N900    1.450   .     S
C813   C818    1.406   .     A
C813   C841    1.486   .     S
C814   C845    1.486   .     S
C814   C817    1.406   .     A
C814   C1002   1.384   .     S
C815   C817    1.404   .     A
C815   N849    1.439   .     S
C815   C999    1.384   .     S
C816   N852    1.439   .     S
C816   C818    1.404   .     A
C819   N824    1.377   .     A
C819   C855    1.471   .     S
C820   N823    1.377   .     A
C820   C859    1.471   .     S
C820   C1380   1.429   .     S
C821   N863    1.432   .     S
C821   N823    1.363   .     A
C821   C1377   1.429   .     S
C822   N824    1.363   .     A
C822   N866    1.432   .     S
N823   Zn833   2.020   .     S
N824   Zn834   2.020   .     S
O825   Zn833   1.992   .     S
O826   Zn834   1.992   .     S
O827   Zn834   1.980   .     S
O828   Zn833   1.980   .     S
O829   Zn833   1.992   .     S
O830   Zn834   1.992   .     S
O831   Zn834   1.998   .     S
O832   Zn833   1.998   .     S
N835   H836    1.045   .     S
N835   C873    1.450   .     S
N835   H899    1.044   .     S
N838   H839    1.044   .     S
H840   N900    1.044   .     S
C841   O842    1.221   .     D
C841   O843    1.398   .     S
O843   H844    1.014   .     S
C845   O847    1.398   .     S
C845   O846    1.221   .     D
O847   H848    1.014   .     S
N849   H850    1.045   .     S
N849   H851    1.045   .     S
N852   H854    1.045   .     S
N852   H853    1.045   .     S
C855   O856    1.222   .     D
C855   O857    1.396   .     S
O857   H858    1.014   .     S
C859   O860    1.222   .     D
C859   O861    1.396   .     S
O861   H862    1.014   .     S
N863   H864    1.045   .     S
N863   H865    1.045   .     S
N866   H868    1.045   .     S
N866   H867    1.045   .     S
C869   O889    1.285   .     A
C869   C880    1.411   .     S
C869   O887    1.280   .     A
C870   O890    1.285   .     A
C870   C879    1.411   .     S
C870   O888    1.280   .     A
C871   O891    1.280   .     A
C871   C873    1.414   .     S
C871   O893    1.287   .     A
C872   O894    1.287   .     A
C872   C874    1.414   .     S
C872   O892    1.280   .     A
C874   C749    1.356   1_655 S
C874   N776    1.450   1_655 S
C875   C880    1.406   .     A
C875   C903    1.486   .     S
C876   C907    1.486   .     S
C876   C879    1.406   .     A
C876   C1064   1.384   .     S
C877   C879    1.404   .     A
C877   N911    1.439   .     S
C877   C1061   1.384   .     S
C878   N914    1.439   .     S
C878   C880    1.404   .     A
C881   N886    1.377   .     A
C881   C917    1.471   .     S
C882   N885    1.377   .     A
C882   C921    1.471   .     S
C882   C1442   1.429   .     S
C883   N925    1.432   .     S
C883   N885    1.363   .     A
C883   C1439   1.429   .     S
C884   N886    1.363   .     A
C884   N928    1.432   .     S
N885   Zn895   2.020   .     S
N886   Zn896   2.020   .     S
O887   Zn895   1.992   .     S
O888   Zn896   1.992   .     S
O889   Zn896   1.980   .     S
O890   Zn895   1.980   .     S
O891   Zn895   1.992   .     S
O892   Zn896   1.992   .     S
O893   Zn896   1.998   .     S
O894   Zn895   1.998   .     S
N897   H898    1.045   .     S
N897   C749    1.450   1_655 S
N897   H775    1.044   1_655 S
N900   H901    1.044   .     S
H902   N776    1.044   1_655 S
C903   O904    1.221   .     D
C903   O905    1.398   .     S
O905   H906    1.014   .     S
C907   O909    1.398   .     S
C907   O908    1.221   .     D
O909   H910    1.014   .     S
N911   H912    1.045   .     S
N911   H913    1.045   .     S
N914   H916    1.045   .     S
N914   H915    1.045   .     S
C917   O918    1.222   .     D
C917   O919    1.396   .     S
O919   H920    1.014   .     S
C921   O922    1.222   .     D
C921   O923    1.396   .     S
O923   H924    1.014   .     S
N925   H926    1.045   .     S
N925   H927    1.045   .     S
N928   H930    1.045   .     S
N928   H929    1.045   .     S
C931   O951    1.285   .     A
C931   C942    1.411   .     S
C931   O949    1.280   .     A
C932   O952    1.285   .     A
C932   C941    1.411   .     S
C932   O950    1.280   .     A
C933   O953    1.280   .     A
C933   C935    1.414   .     S
C933   O955    1.287   .     A
C934   O956    1.287   .     A
C934   C936    1.414   .     S
C934   O954    1.280   .     A
C935   C1060   1.356   1_455 S
C935   N1083   1.450   1_455 S
C936   C997    1.356   .     S
C936   N1024   1.450   .     S
C937   C942    1.406   .     A
C937   C965    1.486   .     S
C938   C969    1.486   .     S
C938   C941    1.406   .     A
C938   C568    1.384   1_565 S
C939   C941    1.404   .     A
C939   N973    1.439   .     S
C939   C565    1.384   1_565 S
C940   N976    1.439   .     S
C940   C942    1.404   .     A
C943   N948    1.377   .     A
C943   C979    1.471   .     S
C944   N947    1.377   .     A
C944   C983    1.471   .     S
C944   C1504   1.429   .     S
C945   N987    1.432   .     S
C945   N947    1.363   .     A
C945   C1501   1.429   .     S
C946   N948    1.363   .     A
C946   N990    1.432   .     S
N947   Zn957   2.020   .     S
N948   Zn958   2.020   .     S
O949   Zn957   1.992   .     S
O950   Zn958   1.992   .     S
O951   Zn958   1.980   .     S
O952   Zn957   1.980   .     S
O953   Zn957   1.992   .     S
O954   Zn958   1.992   .     S
O955   Zn958   1.998   .     S
O956   Zn957   1.998   .     S
N959   H960    1.045   .     S
N959   C997    1.450   .     S
N959   H1023   1.044   .     S
H961   N1083   1.044   1_455 S
N962   H963    1.044   .     S
N962   C1060   1.450   1_455 S
N962   H1088   1.044   1_455 S
H964   N1024   1.044   .     S
C965   O966    1.221   .     D
C965   O967    1.398   .     S
O967   H968    1.014   .     S
C969   O971    1.398   .     S
C969   O970    1.221   .     D
O971   H972    1.014   .     S
N973   H974    1.045   .     S
N973   H975    1.045   .     S
N976   H978    1.045   .     S
N976   H977    1.045   .     S
C979   O980    1.222   .     D
C979   O981    1.396   .     S
O981   H982    1.014   .     S
C983   O984    1.222   .     D
C983   O985    1.396   .     S
O985   H986    1.014   .     S
N987   H988    1.045   .     S
N987   H989    1.045   .     S
N990   H992    1.045   .     S
N990   H991    1.045   .     S
C993   O1013   1.285   .     A
C993   C1004   1.411   .     S
C993   O1011   1.280   .     A
C994   O1014   1.285   .     A
C994   C1003   1.411   .     S
C994   O1012   1.280   .     A
C995   O1015   1.280   .     A
C995   C997    1.414   .     S
C995   O1017   1.287   .     A
C996   O1018   1.287   .     A
C996   C998    1.414   .     S
C996   O1016   1.280   .     A
C998   C1059   1.356   .     S
C998   N1086   1.450   .     S
C999   C1004   1.406   .     A
C999   C1027   1.486   .     S
C1000  C1031   1.486   .     S
C1000  C1003   1.406   .     A
C1000  C630    1.384   1_565 S
C1001  C1003   1.404   .     A
C1001  N1035   1.439   .     S
C1001  C627    1.384   1_565 S
C1002  N1038   1.439   .     S
C1002  C1004   1.404   .     A
C1005  N1010   1.377   .     A
C1005  C1041   1.471   .     S
C1006  N1009   1.377   .     A
C1006  C1045   1.471   .     S
C1006  C1566   1.429   .     S
C1007  N1049   1.432   .     S
C1007  N1009   1.363   .     A
C1007  C1563   1.429   .     S
C1008  N1010   1.363   .     A
C1008  N1052   1.432   .     S
N1009  Zn1019  2.020   .     S
N1010  Zn1020  2.020   .     S
O1011  Zn1019  1.992   .     S
O1012  Zn1020  1.992   .     S
O1013  Zn1020  1.980   .     S
O1014  Zn1019  1.980   .     S
O1015  Zn1019  1.992   .     S
O1016  Zn1020  1.992   .     S
O1017  Zn1020  1.998   .     S
O1018  Zn1019  1.998   .     S
N1021  H1022   1.045   .     S
N1021  C1059   1.450   .     S
N1021  H1085   1.044   .     S
N1024  H1025   1.044   .     S
H1026  N1086   1.044   .     S
C1027  O1028   1.221   .     D
C1027  O1029   1.398   .     S
O1029  H1030   1.014   .     S
C1031  O1033   1.398   .     S
C1031  O1032   1.221   .     D
O1033  H1034   1.014   .     S
N1035  H1036   1.045   .     S
N1035  H1037   1.045   .     S
N1038  H1040   1.045   .     S
N1038  H1039   1.045   .     S
C1041  O1042   1.222   .     D
C1041  O1043   1.396   .     S
O1043  H1044   1.014   .     S
C1045  O1046   1.222   .     D
C1045  O1047   1.396   .     S
O1047  H1048   1.014   .     S
N1049  H1050   1.045   .     S
N1049  H1051   1.045   .     S
N1052  H1054   1.045   .     S
N1052  H1053   1.045   .     S
C1055  O1075   1.285   .     A
C1055  C1066   1.411   .     S
C1055  O1073   1.280   .     A
C1056  O1076   1.285   .     A
C1056  C1065   1.411   .     S
C1056  O1074   1.280   .     A
C1057  O1077   1.280   .     A
C1057  C1059   1.414   .     S
C1057  O1079   1.287   .     A
C1058  O1080   1.287   .     A
C1058  C1060   1.414   .     S
C1058  O1078   1.280   .     A
C1060  C935    1.356   1_655 S
C1060  N962    1.450   1_655 S
C1061  C1066   1.406   .     A
C1061  C1089   1.486   .     S
C1062  C1093   1.486   .     S
C1062  C1065   1.406   .     A
C1062  C692    1.384   1_565 S
C1063  C1065   1.404   .     A
C1063  N1097   1.439   .     S
C1063  C689    1.384   1_565 S
C1064  N1100   1.439   .     S
C1064  C1066   1.404   .     A
C1067  N1072   1.377   .     A
C1067  C1103   1.471   .     S
C1068  N1071   1.377   .     A
C1068  C1107   1.471   .     S
C1068  C1628   1.429   .     S
C1069  N1111   1.432   .     S
C1069  N1071   1.363   .     A
C1069  C1625   1.429   .     S
C1070  N1072   1.363   .     A
C1070  N1114   1.432   .     S
N1071  Zn1081  2.020   .     S
N1072  Zn1082  2.020   .     S
O1073  Zn1081  1.992   .     S
O1074  Zn1082  1.992   .     S
O1075  Zn1082  1.980   .     S
O1076  Zn1081  1.980   .     S
O1077  Zn1081  1.992   .     S
O1078  Zn1082  1.992   .     S
O1079  Zn1082  1.998   .     S
O1080  Zn1081  1.998   .     S
N1083  H1084   1.045   .     S
N1083  C935    1.450   1_655 S
N1083  H961    1.044   1_655 S
N1086  H1087   1.044   .     S
H1088  N962    1.044   1_655 S
C1089  O1090   1.221   .     D
C1089  O1091   1.398   .     S
O1091  H1092   1.014   .     S
C1093  O1095   1.398   .     S
C1093  O1094   1.221   .     D
O1095  H1096   1.014   .     S
N1097  H1098   1.045   .     S
N1097  H1099   1.045   .     S
N1100  H1102   1.045   .     S
N1100  H1101   1.045   .     S
C1103  O1104   1.222   .     D
C1103  O1105   1.396   .     S
O1105  H1106   1.014   .     S
C1107  O1108   1.222   .     D
C1107  O1109   1.396   .     S
O1109  H1110   1.014   .     S
N1111  H1112   1.045   .     S
N1111  H1113   1.045   .     S
N1114  H1116   1.045   .     S
N1114  H1115   1.045   .     S
C1117  O1137   1.285   .     A
C1117  C1128   1.411   .     S
C1117  O1135   1.280   .     A
C1118  O1138   1.285   .     A
C1118  C1127   1.411   .     S
C1118  O1136   1.280   .     A
C1119  O1139   1.280   .     A
C1119  C1121   1.414   .     S
C1119  O1141   1.287   .     A
C1120  O1142   1.287   .     A
C1120  C1122   1.414   .     S
C1120  O1140   1.280   .     A
C1121  C1246   1.356   1_455 S
C1121  N1269   1.450   1_455 S
C1122  C1183   1.356   .     S
C1122  N1210   1.450   .     S
C1123  C1128   1.406   .     A
C1123  C1151   1.486   .     S
C1123  C1497   1.384   1_545 S
C1124  C1155   1.486   .     S
C1124  C1127   1.406   .     A
C1124  C1312   1.384   .     S
C1125  C1127   1.404   .     A
C1125  N1159   1.439   .     S
C1125  C1309   1.384   .     S
C1126  N1162   1.439   .     S
C1126  C1128   1.404   .     A
C1126  C1496   1.384   1_545 S
C1129  N1134   1.377   .     A
C1129  C1165   1.471   .     S
C1130  N1133   1.377   .     A
C1130  C1169   1.471   .     S
C1130  C16     1.429   1_556 S
C1131  N1173   1.432   .     S
C1131  N1133   1.363   .     A
C1131  C13     1.429   1_556 S
C1132  N1134   1.363   .     A
C1132  N1176   1.432   .     S
N1133  Zn1143  2.020   .     S
N1134  Zn1144  2.020   .     S
O1135  Zn1143  1.992   .     S
O1136  Zn1144  1.992   .     S
O1137  Zn1144  1.980   .     S
O1138  Zn1143  1.980   .     S
O1139  Zn1143  1.992   .     S
O1140  Zn1144  1.992   .     S
O1141  Zn1144  1.998   .     S
O1142  Zn1143  1.998   .     S
N1145  H1146   1.045   .     S
N1145  C1183   1.450   .     S
N1145  H1209   1.044   .     S
H1147  N1269   1.044   1_455 S
N1148  H1149   1.044   .     S
N1148  C1246   1.450   1_455 S
N1148  H1274   1.044   1_455 S
H1150  N1210   1.044   .     S
C1151  O1152   1.221   .     D
C1151  O1153   1.398   .     S
O1153  H1154   1.014   .     S
C1155  O1157   1.398   .     S
C1155  O1156   1.221   .     D
O1157  H1158   1.014   .     S
N1159  H1160   1.045   .     S
N1159  H1161   1.045   .     S
N1162  H1164   1.045   .     S
N1162  H1163   1.045   .     S
C1165  O1166   1.222   .     D
C1165  O1167   1.396   .     S
O1167  H1168   1.014   .     S
C1169  O1170   1.222   .     D
C1169  O1171   1.396   .     S
O1171  H1172   1.014   .     S
N1173  H1174   1.045   .     S
N1173  H1175   1.045   .     S
N1176  H1178   1.045   .     S
N1176  H1177   1.045   .     S
C1179  O1199   1.285   .     A
C1179  C1190   1.411   .     S
C1179  O1197   1.280   .     A
C1180  O1200   1.285   .     A
C1180  C1189   1.411   .     S
C1180  O1198   1.280   .     A
C1181  O1201   1.280   .     A
C1181  C1183   1.414   .     S
C1181  O1203   1.287   .     A
C1182  O1204   1.287   .     A
C1182  C1184   1.414   .     S
C1182  O1202   1.280   .     A
C1184  C1245   1.356   .     S
C1184  N1272   1.450   .     S
C1185  C1190   1.406   .     A
C1185  C1213   1.486   .     S
C1185  C1559   1.384   1_545 S
C1186  C1217   1.486   .     S
C1186  C1189   1.406   .     A
C1186  C1374   1.384   .     S
C1187  C1189   1.404   .     A
C1187  N1221   1.439   .     S
C1187  C1371   1.384   .     S
C1188  N1224   1.439   .     S
C1188  C1190   1.404   .     A
C1188  C1558   1.384   1_545 S
C1191  N1196   1.377   .     A
C1191  C1227   1.471   .     S
C1192  N1195   1.377   .     A
C1192  C1231   1.471   .     S
C1192  C78     1.429   1_556 S
C1193  N1235   1.432   .     S
C1193  N1195   1.363   .     A
C1193  C75     1.429   1_556 S
C1194  N1196   1.363   .     A
C1194  N1238   1.432   .     S
N1195  Zn1205  2.020   .     S
N1196  Zn1206  2.020   .     S
O1197  Zn1205  1.992   .     S
O1198  Zn1206  1.992   .     S
O1199  Zn1206  1.980   .     S
O1200  Zn1205  1.980   .     S
O1201  Zn1205  1.992   .     S
O1202  Zn1206  1.992   .     S
O1203  Zn1206  1.998   .     S
O1204  Zn1205  1.998   .     S
N1207  H1208   1.045   .     S
N1207  C1245   1.450   .     S
N1207  H1271   1.044   .     S
N1210  H1211   1.044   .     S
H1212  N1272   1.044   .     S
C1213  O1214   1.221   .     D
C1213  O1215   1.398   .     S
O1215  H1216   1.014   .     S
C1217  O1219   1.398   .     S
C1217  O1218   1.221   .     D
O1219  H1220   1.014   .     S
N1221  H1222   1.045   .     S
N1221  H1223   1.045   .     S
N1224  H1226   1.045   .     S
N1224  H1225   1.045   .     S
C1227  O1228   1.222   .     D
C1227  O1229   1.396   .     S
O1229  H1230   1.014   .     S
C1231  O1232   1.222   .     D
C1231  O1233   1.396   .     S
O1233  H1234   1.014   .     S
N1235  H1236   1.045   .     S
N1235  H1237   1.045   .     S
N1238  H1240   1.045   .     S
N1238  H1239   1.045   .     S
C1241  O1261   1.285   .     A
C1241  C1252   1.411   .     S
C1241  O1259   1.280   .     A
C1242  O1262   1.285   .     A
C1242  C1251   1.411   .     S
C1242  O1260   1.280   .     A
C1243  O1263   1.280   .     A
C1243  C1245   1.414   .     S
C1243  O1265   1.287   .     A
C1244  O1266   1.287   .     A
C1244  C1246   1.414   .     S
C1244  O1264   1.280   .     A
C1246  C1121   1.356   1_655 S
C1246  N1148   1.450   1_655 S
C1247  C1252   1.406   .     A
C1247  C1275   1.486   .     S
C1247  C1621   1.384   1_545 S
C1248  C1279   1.486   .     S
C1248  C1251   1.406   .     A
C1248  C1436   1.384   .     S
C1249  C1251   1.404   .     A
C1249  N1283   1.439   .     S
C1249  C1433   1.384   .     S
C1250  N1286   1.439   .     S
C1250  C1252   1.404   .     A
C1250  C1620   1.384   1_545 S
C1253  N1258   1.377   .     A
C1253  C1289   1.471   .     S
C1254  N1257   1.377   .     A
C1254  C1293   1.471   .     S
C1254  C140    1.429   1_556 S
C1255  N1297   1.432   .     S
C1255  N1257   1.363   .     A
C1255  C137    1.429   1_556 S
C1256  N1258   1.363   .     A
C1256  N1300   1.432   .     S
N1257  Zn1267  2.020   .     S
N1258  Zn1268  2.020   .     S
O1259  Zn1267  1.992   .     S
O1260  Zn1268  1.992   .     S
O1261  Zn1268  1.980   .     S
O1262  Zn1267  1.980   .     S
O1263  Zn1267  1.992   .     S
O1264  Zn1268  1.992   .     S
O1265  Zn1268  1.998   .     S
O1266  Zn1267  1.998   .     S
N1269  H1270   1.045   .     S
N1269  C1121   1.450   1_655 S
N1269  H1147   1.044   1_655 S
N1272  H1273   1.044   .     S
H1274  N1148   1.044   1_655 S
C1275  O1276   1.221   .     D
C1275  O1277   1.398   .     S
O1277  H1278   1.014   .     S
C1279  O1281   1.398   .     S
C1279  O1280   1.221   .     D
O1281  H1282   1.014   .     S
N1283  H1284   1.045   .     S
N1283  H1285   1.045   .     S
N1286  H1288   1.045   .     S
N1286  H1287   1.045   .     S
C1289  O1290   1.222   .     D
C1289  O1291   1.396   .     S
O1291  H1292   1.014   .     S
C1293  O1294   1.222   .     D
C1293  O1295   1.396   .     S
O1295  H1296   1.014   .     S
N1297  H1298   1.045   .     S
N1297  H1299   1.045   .     S
N1300  H1302   1.045   .     S
N1300  H1301   1.045   .     S
C1303  O1323   1.285   .     A
C1303  C1314   1.411   .     S
C1303  O1321   1.280   .     A
C1304  O1324   1.285   .     A
C1304  C1313   1.411   .     S
C1304  O1322   1.280   .     A
C1305  O1325   1.280   .     A
C1305  C1307   1.414   .     S
C1305  O1327   1.287   .     A
C1306  O1328   1.287   .     A
C1306  C1308   1.414   .     S
C1306  O1326   1.280   .     A
C1307  C1432   1.356   1_455 S
C1307  N1455   1.450   1_455 S
C1308  C1369   1.356   .     S
C1308  N1396   1.450   .     S
C1309  C1314   1.406   .     A
C1309  C1337   1.486   .     S
C1310  C1341   1.486   .     S
C1310  C1313   1.406   .     A
C1310  C1498   1.384   .     S
C1311  C1313   1.404   .     A
C1311  N1345   1.439   .     S
C1311  C1495   1.384   .     S
C1312  N1348   1.439   .     S
C1312  C1314   1.404   .     A
C1315  N1320   1.377   .     A
C1315  C1351   1.471   .     S
C1316  N1319   1.377   .     A
C1316  C1355   1.471   .     S
C1316  C202    1.429   1_556 S
C1317  N1359   1.432   .     S
C1317  N1319   1.363   .     A
C1317  C199    1.429   1_556 S
C1318  N1320   1.363   .     A
C1318  N1362   1.432   .     S
N1319  Zn1329  2.020   .     S
N1320  Zn1330  2.020   .     S
O1321  Zn1329  1.992   .     S
O1322  Zn1330  1.992   .     S
O1323  Zn1330  1.980   .     S
O1324  Zn1329  1.980   .     S
O1325  Zn1329  1.992   .     S
O1326  Zn1330  1.992   .     S
O1327  Zn1330  1.998   .     S
O1328  Zn1329  1.998   .     S
N1331  H1332   1.045   .     S
N1331  C1369   1.450   .     S
N1331  H1395   1.044   .     S
H1333  N1455   1.044   1_455 S
N1334  H1335   1.044   .     S
N1334  C1432   1.450   1_455 S
N1334  H1460   1.044   1_455 S
H1336  N1396   1.044   .     S
C1337  O1338   1.221   .     D
C1337  O1339   1.398   .     S
O1339  H1340   1.014   .     S
C1341  O1343   1.398   .     S
C1341  O1342   1.221   .     D
O1343  H1344   1.014   .     S
N1345  H1346   1.045   .     S
N1345  H1347   1.045   .     S
N1348  H1350   1.045   .     S
N1348  H1349   1.045   .     S
C1351  O1352   1.222   .     D
C1351  O1353   1.396   .     S
O1353  H1354   1.014   .     S
C1355  O1356   1.222   .     D
C1355  O1357   1.396   .     S
O1357  H1358   1.014   .     S
N1359  H1360   1.045   .     S
N1359  H1361   1.045   .     S
N1362  H1364   1.045   .     S
N1362  H1363   1.045   .     S
C1365  O1385   1.285   .     A
C1365  C1376   1.411   .     S
C1365  O1383   1.280   .     A
C1366  O1386   1.285   .     A
C1366  C1375   1.411   .     S
C1366  O1384   1.280   .     A
C1367  O1387   1.280   .     A
C1367  C1369   1.414   .     S
C1367  O1389   1.287   .     A
C1368  O1390   1.287   .     A
C1368  C1370   1.414   .     S
C1368  O1388   1.280   .     A
C1370  C1431   1.356   .     S
C1370  N1458   1.450   .     S
C1371  C1376   1.406   .     A
C1371  C1399   1.486   .     S
C1372  C1403   1.486   .     S
C1372  C1375   1.406   .     A
C1372  C1560   1.384   .     S
C1373  C1375   1.404   .     A
C1373  N1407   1.439   .     S
C1373  C1557   1.384   .     S
C1374  N1410   1.439   .     S
C1374  C1376   1.404   .     A
C1377  N1382   1.377   .     A
C1377  C1413   1.471   .     S
C1378  N1381   1.377   .     A
C1378  C1417   1.471   .     S
C1378  C264    1.429   1_556 S
C1379  N1421   1.432   .     S
C1379  N1381   1.363   .     A
C1379  C261    1.429   1_556 S
C1380  N1382   1.363   .     A
C1380  N1424   1.432   .     S
N1381  Zn1391  2.020   .     S
N1382  Zn1392  2.020   .     S
O1383  Zn1391  1.992   .     S
O1384  Zn1392  1.992   .     S
O1385  Zn1392  1.980   .     S
O1386  Zn1391  1.980   .     S
O1387  Zn1391  1.992   .     S
O1388  Zn1392  1.992   .     S
O1389  Zn1392  1.998   .     S
O1390  Zn1391  1.998   .     S
N1393  H1394   1.045   .     S
N1393  C1431   1.450   .     S
N1393  H1457   1.044   .     S
N1396  H1397   1.044   .     S
H1398  N1458   1.044   .     S
C1399  O1400   1.221   .     D
C1399  O1401   1.398   .     S
O1401  H1402   1.014   .     S
C1403  O1405   1.398   .     S
C1403  O1404   1.221   .     D
O1405  H1406   1.014   .     S
N1407  H1408   1.045   .     S
N1407  H1409   1.045   .     S
N1410  H1412   1.045   .     S
N1410  H1411   1.045   .     S
C1413  O1414   1.222   .     D
C1413  O1415   1.396   .     S
O1415  H1416   1.014   .     S
C1417  O1418   1.222   .     D
C1417  O1419   1.396   .     S
O1419  H1420   1.014   .     S
N1421  H1422   1.045   .     S
N1421  H1423   1.045   .     S
N1424  H1426   1.045   .     S
N1424  H1425   1.045   .     S
C1427  O1447   1.285   .     A
C1427  C1438   1.411   .     S
C1427  O1445   1.280   .     A
C1428  O1448   1.285   .     A
C1428  C1437   1.411   .     S
C1428  O1446   1.280   .     A
C1429  O1449   1.280   .     A
C1429  C1431   1.414   .     S
C1429  O1451   1.287   .     A
C1430  O1452   1.287   .     A
C1430  C1432   1.414   .     S
C1430  O1450   1.280   .     A
C1432  C1307   1.356   1_655 S
C1432  N1334   1.450   1_655 S
C1433  C1438   1.406   .     A
C1433  C1461   1.486   .     S
C1434  C1465   1.486   .     S
C1434  C1437   1.406   .     A
C1434  C1622   1.384   .     S
C1435  C1437   1.404   .     A
C1435  N1469   1.439   .     S
C1435  C1619   1.384   .     S
C1436  N1472   1.439   .     S
C1436  C1438   1.404   .     A
C1439  N1444   1.377   .     A
C1439  C1475   1.471   .     S
C1440  N1443   1.377   .     A
C1440  C1479   1.471   .     S
C1440  C326    1.429   1_556 S
C1441  N1483   1.432   .     S
C1441  N1443   1.363   .     A
C1441  C323    1.429   1_556 S
C1442  N1444   1.363   .     A
C1442  N1486   1.432   .     S
N1443  Zn1453  2.020   .     S
N1444  Zn1454  2.020   .     S
O1445  Zn1453  1.992   .     S
O1446  Zn1454  1.992   .     S
O1447  Zn1454  1.980   .     S
O1448  Zn1453  1.980   .     S
O1449  Zn1453  1.992   .     S
O1450  Zn1454  1.992   .     S
O1451  Zn1454  1.998   .     S
O1452  Zn1453  1.998   .     S
N1455  H1456   1.045   .     S
N1455  C1307   1.450   1_655 S
N1455  H1333   1.044   1_655 S
N1458  H1459   1.044   .     S
H1460  N1334   1.044   1_655 S
C1461  O1462   1.221   .     D
C1461  O1463   1.398   .     S
O1463  H1464   1.014   .     S
C1465  O1467   1.398   .     S
C1465  O1466   1.221   .     D
O1467  H1468   1.014   .     S
N1469  H1470   1.045   .     S
N1469  H1471   1.045   .     S
N1472  H1474   1.045   .     S
N1472  H1473   1.045   .     S
C1475  O1476   1.222   .     D
C1475  O1477   1.396   .     S
O1477  H1478   1.014   .     S
C1479  O1480   1.222   .     D
C1479  O1481   1.396   .     S
O1481  H1482   1.014   .     S
N1483  H1484   1.045   .     S
N1483  H1485   1.045   .     S
N1486  H1488   1.045   .     S
N1486  H1487   1.045   .     S
C1489  O1509   1.285   .     A
C1489  C1500   1.411   .     S
C1489  O1507   1.280   .     A
C1490  O1510   1.285   .     A
C1490  C1499   1.411   .     S
C1490  O1508   1.280   .     A
C1491  O1511   1.280   .     A
C1491  C1493   1.414   .     S
C1491  O1513   1.287   .     A
C1492  O1514   1.287   .     A
C1492  C1494   1.414   .     S
C1492  O1512   1.280   .     A
C1493  C1618   1.356   1_455 S
C1493  N1641   1.450   1_455 S
C1494  C1555   1.356   .     S
C1494  N1582   1.450   .     S
C1495  C1500   1.406   .     A
C1495  C1523   1.486   .     S
C1496  C1527   1.486   .     S
C1496  C1499   1.406   .     A
C1496  C1126   1.384   1_565 S
C1497  C1499   1.404   .     A
C1497  N1531   1.439   .     S
C1497  C1123   1.384   1_565 S
C1498  N1534   1.439   .     S
C1498  C1500   1.404   .     A
C1501  N1506   1.377   .     A
C1501  C1537   1.471   .     S
C1502  N1505   1.377   .     A
C1502  C1541   1.471   .     S
C1502  C388    1.429   1_556 S
C1503  N1545   1.432   .     S
C1503  N1505   1.363   .     A
C1503  C385    1.429   1_556 S
C1504  N1506   1.363   .     A
C1504  N1548   1.432   .     S
N1505  Zn1515  2.020   .     S
N1506  Zn1516  2.020   .     S
O1507  Zn1515  1.992   .     S
O1508  Zn1516  1.992   .     S
O1509  Zn1516  1.980   .     S
O1510  Zn1515  1.980   .     S
O1511  Zn1515  1.992   .     S
O1512  Zn1516  1.992   .     S
O1513  Zn1516  1.998   .     S
O1514  Zn1515  1.998   .     S
N1517  H1518   1.045   .     S
N1517  C1555   1.450   .     S
N1517  H1581   1.044   .     S
H1519  N1641   1.044   1_455 S
N1520  H1521   1.044   .     S
N1520  C1618   1.450   1_455 S
N1520  H1646   1.044   1_455 S
H1522  N1582   1.044   .     S
C1523  O1524   1.221   .     D
C1523  O1525   1.398   .     S
O1525  H1526   1.014   .     S
C1527  O1529   1.398   .     S
C1527  O1528   1.221   .     D
O1529  H1530   1.014   .     S
N1531  H1532   1.045   .     S
N1531  H1533   1.045   .     S
N1534  H1536   1.045   .     S
N1534  H1535   1.045   .     S
C1537  O1538   1.222   .     D
C1537  O1539   1.396   .     S
O1539  H1540   1.014   .     S
C1541  O1542   1.222   .     D
C1541  O1543   1.396   .     S
O1543  H1544   1.014   .     S
N1545  H1546   1.045   .     S
N1545  H1547   1.045   .     S
N1548  H1550   1.045   .     S
N1548  H1549   1.045   .     S
C1551  O1571   1.285   .     A
C1551  C1562   1.411   .     S
C1551  O1569   1.280   .     A
C1552  O1572   1.285   .     A
C1552  C1561   1.411   .     S
C1552  O1570   1.280   .     A
C1553  O1573   1.280   .     A
C1553  C1555   1.414   .     S
C1553  O1575   1.287   .     A
C1554  O1576   1.287   .     A
C1554  C1556   1.414   .     S
C1554  O1574   1.280   .     A
C1556  C1617   1.356   .     S
C1556  N1644   1.450   .     S
C1557  C1562   1.406   .     A
C1557  C1585   1.486   .     S
C1558  C1589   1.486   .     S
C1558  C1561   1.406   .     A
C1558  C1188   1.384   1_565 S
C1559  C1561   1.404   .     A
C1559  N1593   1.439   .     S
C1559  C1185   1.384   1_565 S
C1560  N1596   1.439   .     S
C1560  C1562   1.404   .     A
C1563  N1568   1.377   .     A
C1563  C1599   1.471   .     S
C1564  N1567   1.377   .     A
C1564  C1603   1.471   .     S
C1564  C450    1.429   1_556 S
C1565  N1607   1.432   .     S
C1565  N1567   1.363   .     A
C1565  C447    1.429   1_556 S
C1566  N1568   1.363   .     A
C1566  N1610   1.432   .     S
N1567  Zn1577  2.020   .     S
N1568  Zn1578  2.020   .     S
O1569  Zn1577  1.992   .     S
O1570  Zn1578  1.992   .     S
O1571  Zn1578  1.980   .     S
O1572  Zn1577  1.980   .     S
O1573  Zn1577  1.992   .     S
O1574  Zn1578  1.992   .     S
O1575  Zn1578  1.998   .     S
O1576  Zn1577  1.998   .     S
N1579  H1580   1.045   .     S
N1579  C1617   1.450   .     S
N1579  H1643   1.044   .     S
N1582  H1583   1.044   .     S
H1584  N1644   1.044   .     S
C1585  O1586   1.221   .     D
C1585  O1587   1.398   .     S
O1587  H1588   1.014   .     S
C1589  O1591   1.398   .     S
C1589  O1590   1.221   .     D
O1591  H1592   1.014   .     S
N1593  H1594   1.045   .     S
N1593  H1595   1.045   .     S
N1596  H1598   1.045   .     S
N1596  H1597   1.045   .     S
C1599  O1600   1.222   .     D
C1599  O1601   1.396   .     S
O1601  H1602   1.014   .     S
C1603  O1604   1.222   .     D
C1603  O1605   1.396   .     S
O1605  H1606   1.014   .     S
N1607  H1608   1.045   .     S
N1607  H1609   1.045   .     S
N1610  H1612   1.045   .     S
N1610  H1611   1.045   .     S
C1613  O1633   1.285   .     A
C1613  C1624   1.411   .     S
C1613  O1631   1.280   .     A
C1614  O1634   1.285   .     A
C1614  C1623   1.411   .     S
C1614  O1632   1.280   .     A
C1615  O1635   1.280   .     A
C1615  C1617   1.414   .     S
C1615  O1637   1.287   .     A
C1616  O1638   1.287   .     A
C1616  C1618   1.414   .     S
C1616  O1636   1.280   .     A
C1618  C1493   1.356   1_655 S
C1618  N1520   1.450   1_655 S
C1619  C1624   1.406   .     A
C1619  C1647   1.486   .     S
C1620  C1651   1.486   .     S
C1620  C1623   1.406   .     A
C1620  C1250   1.384   1_565 S
C1621  C1623   1.404   .     A
C1621  N1655   1.439   .     S
C1621  C1247   1.384   1_565 S
C1622  N1658   1.439   .     S
C1622  C1624   1.404   .     A
C1625  N1630   1.377   .     A
C1625  C1661   1.471   .     S
C1626  N1629   1.377   .     A
C1626  C1665   1.471   .     S
C1626  C512    1.429   1_556 S
C1627  N1669   1.432   .     S
C1627  N1629   1.363   .     A
C1627  C509    1.429   1_556 S
C1628  N1630   1.363   .     A
C1628  N1672   1.432   .     S
N1629  Zn1639  2.020   .     S
N1630  Zn1640  2.020   .     S
O1631  Zn1639  1.992   .     S
O1632  Zn1640  1.992   .     S
O1633  Zn1640  1.980   .     S
O1634  Zn1639  1.980   .     S
O1635  Zn1639  1.992   .     S
O1636  Zn1640  1.992   .     S
O1637  Zn1640  1.998   .     S
O1638  Zn1639  1.998   .     S
N1641  H1642   1.045   .     S
N1641  C1493   1.450   1_655 S
N1641  H1519   1.044   1_655 S
N1644  H1645   1.044   .     S
H1646  N1520   1.044   1_655 S
C1647  O1648   1.221   .     D
C1647  O1649   1.398   .     S
O1649  H1650   1.014   .     S
C1651  O1653   1.398   .     S
C1651  O1652   1.221   .     D
O1653  H1654   1.014   .     S
N1655  H1656   1.045   .     S
N1655  H1657   1.045   .     S
N1658  H1660   1.045   .     S
N1658  H1659   1.045   .     S
C1661  O1662   1.222   .     D
C1661  O1663   1.396   .     S
O1663  H1664   1.014   .     S
C1665  O1666   1.222   .     D
C1665  O1667   1.396   .     S
O1667  H1668   1.014   .     S
N1669  H1670   1.045   .     S
N1669  H1671   1.045   .     S
N1672  H1674   1.045   .     S
N1672  H1673   1.045   .     S
