data_str_m2_o2_o10_pcu_sym.62
_audit_creation_date              2020-01-03
_audit_creation_method            'Materials Studio'
_symmetry_space_group_name_H-M    'P1'
_symmetry_Int_Tables_number       1
_symmetry_cell_setting            triclinic
loop_
_symmetry_equiv_pos_as_xyz
  x,y,z
_cell_length_a                    26.1892
_cell_length_b                    30.2908
_cell_length_c                    27.7261
_cell_angle_alpha                 90.2121
_cell_angle_beta                  98.0157
_cell_angle_gamma                 90.3043
loop_
_atom_site_label
_atom_site_type_symbol
_atom_site_fract_x
_atom_site_fract_y
_atom_site_fract_z
_atom_site_U_iso_or_equiv
_atom_site_adp_type
_atom_site_occupancy
C1     C     0.16704   0.16511   0.24992   0.00000  Uiso   1.00
C2     C     0.19164   0.28353   0.44945   0.00000  Uiso   1.00
C3     C     0.16677   0.24982   0.02736   0.00000  Uiso   1.00
C4     C     0.16672   0.24990   0.47265   0.00000  Uiso   1.00
C5     C     0.06788   0.24996   0.23753   0.00000  Uiso   1.00
C6     C     0.26545   0.25003   0.26246   0.00000  Uiso   1.00
C7     C     0.01259   0.24987   0.23065   0.00000  Uiso   1.00
C8     C     0.32074   0.25011   0.26933   0.00000  Uiso   1.00
C9     C     0.13249   0.04862   0.27555   0.00000  Uiso   1.00
C10    C     0.17010   0.45239   0.20676   0.00000  Uiso   1.00
C11    C     0.13420   0.09443   0.27656   0.00000  Uiso   1.00
C12    C     0.16595   0.33516   0.25007   0.00000  Uiso   1.00
C13    C     0.17077   0.40655   0.20750   0.00000  Uiso   1.00
C14    C     0.16698   0.11714   0.24942   0.00000  Uiso   1.00
C15    C     0.16455   0.38364   0.25022   0.00000  Uiso   1.00
C16    C     0.19843   0.09392   0.22101   0.00000  Uiso   1.00
C17    C     0.15632   0.40752   0.29232   0.00000  Uiso   1.00
C18    C     0.19820   0.04778   0.22190   0.00000  Uiso   1.00
C19    C     0.15796   0.45358   0.29177   0.00000  Uiso   1.00
C20    C     0.16483   0.02488   0.24863   0.00000  Uiso   1.00
C21    C     0.16431   0.47629   0.24903   0.00000  Uiso   1.00
C22    C     0.21705   0.11361   0.14612   0.00000  Uiso   1.00
C23    C     0.12707   0.22911   0.04870   0.00000  Uiso   1.00
C24    C     0.24926   0.14531   0.12021   0.00000  Uiso   1.00
C25    C     0.09547   0.38783   0.33927   0.00000  Uiso   1.00
C26    C     0.08420   0.35628   0.37907   0.00000  Uiso   1.00
C27    C     0.14174   0.21633   0.44256   0.00000  Uiso   1.00
C28    C     0.12801   0.22925   0.09955   0.00000  Uiso   1.00
C29    C     0.14179   0.21723   0.39185   0.00000  Uiso   1.00
C30    C     0.20545   0.27058   0.10988   0.00000  Uiso   1.00
C31    C     0.19161   0.28269   0.39872   0.00000  Uiso   1.00
C32    C     0.20650   0.27051   0.05930   0.00000  Uiso   1.00
Cu33   Cu    0.16667   0.25000   0.29821   0.00000  Uiso   1.00
Cu34   Cu    0.16667   0.25001   0.20178   0.00000  Uiso   1.00
H35    H     0.32588   0.24958   0.19356   0.00000  Uiso   1.00
H36    H     0.12274   0.18902   0.45784   0.00000  Uiso   1.00
H37    H     0.09743   0.21282   0.11512   0.00000  Uiso   1.00
H38    H     0.12202   0.19136   0.36947   0.00000  Uiso   1.00
H39    H     0.23608   0.28699   0.13359   0.00000  Uiso   1.00
H40    H     0.21127   0.30863   0.38177   0.00000  Uiso   1.00
H41    H     0.23878   0.28620   0.04569   0.00000  Uiso   1.00
H42    H     0.21060   0.31085   0.46999   0.00000  Uiso   1.00
H43    H     0.17575   0.12302   0.13664   0.00000  Uiso   1.00
H44    H     0.22264   0.07959   0.13259   0.00000  Uiso   1.00
H45    H     0.29053   0.13583   0.12711   0.00000  Uiso   1.00
H46    H     0.00745   0.25040   0.30642   0.00000  Uiso   1.00
H47    H     0.23605   0.14432   0.08037   0.00000  Uiso   1.00
H48    H     0.24516   0.17948   0.13370   0.00000  Uiso   1.00
H49    H     0.07074   0.37776   0.30485   0.00000  Uiso   1.00
H50    H     0.08491   0.42179   0.34957   0.00000  Uiso   1.00
H51    H     0.10930   0.36417   0.41374   0.00000  Uiso   1.00
H52    H     0.04323   0.35928   0.38479   0.00000  Uiso   1.00
H53    H     0.09120   0.32177   0.36822   0.00000  Uiso   1.00
H54    H     0.10562   0.03185   0.29567   0.00000  Uiso   1.00
H55    H     0.17397   0.46909   0.17299   0.00000  Uiso   1.00
H56    H     0.10917   0.11222   0.29776   0.00000  Uiso   1.00
H57    H     0.17619   0.38907   0.17446   0.00000  Uiso   1.00
H58    H     0.22485   0.03003   0.20249   0.00000  Uiso   1.00
H59    H     0.15446   0.47141   0.32506   0.00000  Uiso   1.00
H60    H     0.09484   0.21331   0.02650   0.00000  Uiso   1.00
N61    N     0.16667   0.25001   0.12934   0.00000  Uiso   1.00
N62    N     0.16667   0.24999   0.37065   0.00000  Uiso   1.00
O63    O     0.16667   0.18573   0.29071   0.00000  Uiso   1.00
O64    O     0.14847   0.38600   0.33462   0.00000  Uiso   1.00
O65    O     0.16666   0.31428   0.20928   0.00000  Uiso   1.00
O66    O     0.16667   0.18573   0.20928   0.00000  Uiso   1.00
O67    O     0.16666   0.31427   0.29072   0.00000  Uiso   1.00
O68    O     0.09161   0.25000   0.28132   0.00000  Uiso   1.00
O69    O     0.24172   0.25001   0.21868   0.00000  Uiso   1.00
O70    O     0.09161   0.25000   0.19988   0.00000  Uiso   1.00
O71    O     0.24172   0.25000   0.30011   0.00000  Uiso   1.00
O72    O     0.23324   0.11648   0.19680   0.00000  Uiso   1.00
C73    C     0.50037   0.16511   0.24992   0.00000  Uiso   1.00
C74    C     0.52498   0.28353   0.44945   0.00000  Uiso   1.00
C75    C     0.50010   0.24982   0.02736   0.00000  Uiso   1.00
C76    C     0.50005   0.24990   0.47265   0.00000  Uiso   1.00
C77    C     0.40121   0.24996   0.23753   0.00000  Uiso   1.00
C78    C     0.59878   0.25003   0.26246   0.00000  Uiso   1.00
C79    C     0.34593   0.24987   0.23065   0.00000  Uiso   1.00
C80    C     0.65407   0.25011   0.26933   0.00000  Uiso   1.00
C81    C     0.46582   0.04862   0.27555   0.00000  Uiso   1.00
C82    C     0.50344   0.45239   0.20676   0.00000  Uiso   1.00
C83    C     0.46754   0.09443   0.27656   0.00000  Uiso   1.00
C84    C     0.49929   0.33516   0.25007   0.00000  Uiso   1.00
C85    C     0.50411   0.40655   0.20750   0.00000  Uiso   1.00
C86    C     0.50031   0.11714   0.24942   0.00000  Uiso   1.00
C87    C     0.49788   0.38364   0.25022   0.00000  Uiso   1.00
C88    C     0.53177   0.09392   0.22101   0.00000  Uiso   1.00
C89    C     0.48965   0.40752   0.29232   0.00000  Uiso   1.00
C90    C     0.53153   0.04778   0.22190   0.00000  Uiso   1.00
C91    C     0.49130   0.45358   0.29177   0.00000  Uiso   1.00
C92    C     0.49816   0.02488   0.24863   0.00000  Uiso   1.00
C93    C     0.49764   0.47629   0.24903   0.00000  Uiso   1.00
C94    C     0.55039   0.11361   0.14612   0.00000  Uiso   1.00
C95    C     0.46040   0.22911   0.04870   0.00000  Uiso   1.00
C96    C     0.58259   0.14531   0.12021   0.00000  Uiso   1.00
C97    C     0.42880   0.38783   0.33927   0.00000  Uiso   1.00
C98    C     0.41753   0.35628   0.37907   0.00000  Uiso   1.00
C99    C     0.47508   0.21633   0.44256   0.00000  Uiso   1.00
C100   C     0.46134   0.22925   0.09955   0.00000  Uiso   1.00
C101   C     0.47513   0.21723   0.39185   0.00000  Uiso   1.00
C102   C     0.53878   0.27058   0.10988   0.00000  Uiso   1.00
C103   C     0.52495   0.28269   0.39872   0.00000  Uiso   1.00
C104   C     0.53983   0.27051   0.05930   0.00000  Uiso   1.00
Cu105  Cu    0.50000   0.25000   0.29821   0.00000  Uiso   1.00
Cu106  Cu    0.50000   0.25001   0.20178   0.00000  Uiso   1.00
H107   H     0.65922   0.24958   0.19356   0.00000  Uiso   1.00
H108   H     0.45607   0.18902   0.45784   0.00000  Uiso   1.00
H109   H     0.43076   0.21282   0.11512   0.00000  Uiso   1.00
H110   H     0.45535   0.19136   0.36947   0.00000  Uiso   1.00
H111   H     0.56941   0.28699   0.13359   0.00000  Uiso   1.00
H112   H     0.54460   0.30863   0.38177   0.00000  Uiso   1.00
H113   H     0.57211   0.28620   0.04569   0.00000  Uiso   1.00
H114   H     0.54393   0.31085   0.46999   0.00000  Uiso   1.00
H115   H     0.50908   0.12302   0.13664   0.00000  Uiso   1.00
H116   H     0.55598   0.07959   0.13259   0.00000  Uiso   1.00
H117   H     0.62386   0.13583   0.12711   0.00000  Uiso   1.00
H118   H     0.34079   0.25040   0.30642   0.00000  Uiso   1.00
H119   H     0.56939   0.14432   0.08037   0.00000  Uiso   1.00
H120   H     0.57849   0.17948   0.13370   0.00000  Uiso   1.00
H121   H     0.40408   0.37776   0.30485   0.00000  Uiso   1.00
H122   H     0.41825   0.42179   0.34957   0.00000  Uiso   1.00
H123   H     0.44263   0.36417   0.41374   0.00000  Uiso   1.00
H124   H     0.37656   0.35928   0.38479   0.00000  Uiso   1.00
H125   H     0.42453   0.32177   0.36822   0.00000  Uiso   1.00
H126   H     0.43895   0.03185   0.29567   0.00000  Uiso   1.00
H127   H     0.50731   0.46909   0.17299   0.00000  Uiso   1.00
H128   H     0.44250   0.11222   0.29776   0.00000  Uiso   1.00
H129   H     0.50953   0.38907   0.17446   0.00000  Uiso   1.00
H130   H     0.55818   0.03003   0.20249   0.00000  Uiso   1.00
H131   H     0.48779   0.47141   0.32506   0.00000  Uiso   1.00
H132   H     0.42818   0.21331   0.02650   0.00000  Uiso   1.00
N133   N     0.50000   0.25001   0.12934   0.00000  Uiso   1.00
N134   N     0.50000   0.24999   0.37065   0.00000  Uiso   1.00
O135   O     0.50000   0.18573   0.29071   0.00000  Uiso   1.00
O136   O     0.48180   0.38600   0.33462   0.00000  Uiso   1.00
O137   O     0.50000   0.31428   0.20928   0.00000  Uiso   1.00
O138   O     0.50000   0.18573   0.20928   0.00000  Uiso   1.00
O139   O     0.50000   0.31427   0.29072   0.00000  Uiso   1.00
O140   O     0.42495   0.25000   0.28132   0.00000  Uiso   1.00
O141   O     0.57505   0.25001   0.21868   0.00000  Uiso   1.00
O142   O     0.42495   0.25000   0.19988   0.00000  Uiso   1.00
O143   O     0.57505   0.25000   0.30011   0.00000  Uiso   1.00
O144   O     0.56657   0.11648   0.19680   0.00000  Uiso   1.00
C145   C     0.83371   0.16511   0.24992   0.00000  Uiso   1.00
C146   C     0.85831   0.28353   0.44945   0.00000  Uiso   1.00
C147   C     0.83343   0.24982   0.02736   0.00000  Uiso   1.00
C148   C     0.83338   0.24990   0.47265   0.00000  Uiso   1.00
C149   C     0.73455   0.24996   0.23753   0.00000  Uiso   1.00
C150   C     0.93212   0.25003   0.26246   0.00000  Uiso   1.00
C151   C     0.67926   0.24987   0.23065   0.00000  Uiso   1.00
C152   C     0.98740   0.25011   0.26933   0.00000  Uiso   1.00
C153   C     0.79915   0.04862   0.27555   0.00000  Uiso   1.00
C154   C     0.83677   0.45239   0.20676   0.00000  Uiso   1.00
C155   C     0.80087   0.09443   0.27656   0.00000  Uiso   1.00
C156   C     0.83262   0.33516   0.25007   0.00000  Uiso   1.00
C157   C     0.83744   0.40655   0.20750   0.00000  Uiso   1.00
C158   C     0.83365   0.11714   0.24942   0.00000  Uiso   1.00
C159   C     0.83121   0.38364   0.25022   0.00000  Uiso   1.00
C160   C     0.86510   0.09392   0.22101   0.00000  Uiso   1.00
C161   C     0.82299   0.40752   0.29232   0.00000  Uiso   1.00
C162   C     0.86486   0.04778   0.22190   0.00000  Uiso   1.00
C163   C     0.82463   0.45358   0.29177   0.00000  Uiso   1.00
C164   C     0.83150   0.02488   0.24863   0.00000  Uiso   1.00
C165   C     0.83097   0.47629   0.24903   0.00000  Uiso   1.00
C166   C     0.88372   0.11361   0.14612   0.00000  Uiso   1.00
C167   C     0.79373   0.22911   0.04870   0.00000  Uiso   1.00
C168   C     0.91592   0.14531   0.12021   0.00000  Uiso   1.00
C169   C     0.76213   0.38783   0.33927   0.00000  Uiso   1.00
C170   C     0.75086   0.35628   0.37907   0.00000  Uiso   1.00
C171   C     0.80841   0.21633   0.44256   0.00000  Uiso   1.00
C172   C     0.79468   0.22925   0.09955   0.00000  Uiso   1.00
C173   C     0.80846   0.21723   0.39185   0.00000  Uiso   1.00
C174   C     0.87211   0.27058   0.10988   0.00000  Uiso   1.00
C175   C     0.85828   0.28269   0.39872   0.00000  Uiso   1.00
C176   C     0.87316   0.27051   0.05930   0.00000  Uiso   1.00
Cu177  Cu    0.83333   0.25000   0.29821   0.00000  Uiso   1.00
Cu178  Cu    0.83333   0.25001   0.20178   0.00000  Uiso   1.00
H179   H     0.99255   0.24958   0.19356   0.00000  Uiso   1.00
H180   H     0.78940   0.18902   0.45784   0.00000  Uiso   1.00
H181   H     0.76409   0.21282   0.11512   0.00000  Uiso   1.00
H182   H     0.78868   0.19136   0.36947   0.00000  Uiso   1.00
H183   H     0.90275   0.28699   0.13359   0.00000  Uiso   1.00
H184   H     0.87794   0.30863   0.38177   0.00000  Uiso   1.00
H185   H     0.90545   0.28620   0.04569   0.00000  Uiso   1.00
H186   H     0.87727   0.31085   0.46999   0.00000  Uiso   1.00
H187   H     0.84241   0.12302   0.13664   0.00000  Uiso   1.00
H188   H     0.88931   0.07959   0.13259   0.00000  Uiso   1.00
H189   H     0.95720   0.13583   0.12711   0.00000  Uiso   1.00
H190   H     0.67412   0.25040   0.30642   0.00000  Uiso   1.00
H191   H     0.90272   0.14432   0.08037   0.00000  Uiso   1.00
H192   H     0.91182   0.17948   0.13370   0.00000  Uiso   1.00
H193   H     0.73741   0.37776   0.30485   0.00000  Uiso   1.00
H194   H     0.75158   0.42179   0.34957   0.00000  Uiso   1.00
H195   H     0.77596   0.36417   0.41374   0.00000  Uiso   1.00
H196   H     0.70989   0.35928   0.38479   0.00000  Uiso   1.00
H197   H     0.75787   0.32177   0.36822   0.00000  Uiso   1.00
H198   H     0.77228   0.03185   0.29567   0.00000  Uiso   1.00
H199   H     0.84064   0.46909   0.17299   0.00000  Uiso   1.00
H200   H     0.77583   0.11222   0.29776   0.00000  Uiso   1.00
H201   H     0.84286   0.38907   0.17446   0.00000  Uiso   1.00
H202   H     0.89152   0.03003   0.20249   0.00000  Uiso   1.00
H203   H     0.82112   0.47141   0.32506   0.00000  Uiso   1.00
H204   H     0.76151   0.21331   0.02650   0.00000  Uiso   1.00
N205   N     0.83333   0.25001   0.12934   0.00000  Uiso   1.00
N206   N     0.83333   0.24999   0.37065   0.00000  Uiso   1.00
O207   O     0.83334   0.18573   0.29071   0.00000  Uiso   1.00
O208   O     0.81514   0.38600   0.33462   0.00000  Uiso   1.00
O209   O     0.83333   0.31428   0.20928   0.00000  Uiso   1.00
O210   O     0.83334   0.18573   0.20928   0.00000  Uiso   1.00
O211   O     0.83333   0.31427   0.29072   0.00000  Uiso   1.00
O212   O     0.75828   0.25000   0.28132   0.00000  Uiso   1.00
O213   O     0.90839   0.25001   0.21868   0.00000  Uiso   1.00
O214   O     0.75828   0.25000   0.19988   0.00000  Uiso   1.00
O215   O     0.90839   0.25000   0.30011   0.00000  Uiso   1.00
O216   O     0.89991   0.11648   0.19680   0.00000  Uiso   1.00
C217   C     0.16704   0.66511   0.24992   0.00000  Uiso   1.00
C218   C     0.19164   0.78353   0.44945   0.00000  Uiso   1.00
C219   C     0.16677   0.74982   0.02736   0.00000  Uiso   1.00
C220   C     0.16672   0.74990   0.47265   0.00000  Uiso   1.00
C221   C     0.06788   0.74996   0.23753   0.00000  Uiso   1.00
C222   C     0.26545   0.75003   0.26246   0.00000  Uiso   1.00
C223   C     0.01259   0.74987   0.23065   0.00000  Uiso   1.00
C224   C     0.32074   0.75011   0.26933   0.00000  Uiso   1.00
C225   C     0.13249   0.54862   0.27555   0.00000  Uiso   1.00
C226   C     0.17010   0.95239   0.20676   0.00000  Uiso   1.00
C227   C     0.13420   0.59443   0.27656   0.00000  Uiso   1.00
C228   C     0.16595   0.83516   0.25007   0.00000  Uiso   1.00
C229   C     0.17077   0.90655   0.20750   0.00000  Uiso   1.00
C230   C     0.16698   0.61714   0.24942   0.00000  Uiso   1.00
C231   C     0.16455   0.88364   0.25022   0.00000  Uiso   1.00
C232   C     0.19843   0.59392   0.22101   0.00000  Uiso   1.00
C233   C     0.15632   0.90752   0.29232   0.00000  Uiso   1.00
C234   C     0.19820   0.54778   0.22190   0.00000  Uiso   1.00
C235   C     0.15796   0.95358   0.29177   0.00000  Uiso   1.00
C236   C     0.16483   0.52488   0.24863   0.00000  Uiso   1.00
C237   C     0.16431   0.97629   0.24903   0.00000  Uiso   1.00
C238   C     0.21705   0.61361   0.14612   0.00000  Uiso   1.00
C239   C     0.12707   0.72911   0.04870   0.00000  Uiso   1.00
C240   C     0.24926   0.64531   0.12021   0.00000  Uiso   1.00
C241   C     0.09547   0.88783   0.33927   0.00000  Uiso   1.00
C242   C     0.08420   0.85628   0.37907   0.00000  Uiso   1.00
C243   C     0.14174   0.71633   0.44256   0.00000  Uiso   1.00
C244   C     0.12801   0.72925   0.09955   0.00000  Uiso   1.00
C245   C     0.14179   0.71723   0.39185   0.00000  Uiso   1.00
C246   C     0.20545   0.77058   0.10988   0.00000  Uiso   1.00
C247   C     0.19161   0.78269   0.39872   0.00000  Uiso   1.00
C248   C     0.20650   0.77051   0.05930   0.00000  Uiso   1.00
Cu249  Cu    0.16667   0.75000   0.29821   0.00000  Uiso   1.00
Cu250  Cu    0.16667   0.75001   0.20178   0.00000  Uiso   1.00
H251   H     0.32588   0.74958   0.19356   0.00000  Uiso   1.00
H252   H     0.12274   0.68902   0.45784   0.00000  Uiso   1.00
H253   H     0.09743   0.71282   0.11512   0.00000  Uiso   1.00
H254   H     0.12202   0.69136   0.36947   0.00000  Uiso   1.00
H255   H     0.23608   0.78699   0.13359   0.00000  Uiso   1.00
H256   H     0.21127   0.80863   0.38177   0.00000  Uiso   1.00
H257   H     0.23878   0.78620   0.04569   0.00000  Uiso   1.00
H258   H     0.21060   0.81085   0.46999   0.00000  Uiso   1.00
H259   H     0.17575   0.62302   0.13664   0.00000  Uiso   1.00
H260   H     0.22264   0.57959   0.13259   0.00000  Uiso   1.00
H261   H     0.29053   0.63583   0.12711   0.00000  Uiso   1.00
H262   H     0.00745   0.75040   0.30642   0.00000  Uiso   1.00
H263   H     0.23605   0.64432   0.08037   0.00000  Uiso   1.00
H264   H     0.24516   0.67948   0.13370   0.00000  Uiso   1.00
H265   H     0.07074   0.87776   0.30485   0.00000  Uiso   1.00
H266   H     0.08491   0.92179   0.34957   0.00000  Uiso   1.00
H267   H     0.10930   0.86417   0.41374   0.00000  Uiso   1.00
H268   H     0.04323   0.85928   0.38479   0.00000  Uiso   1.00
H269   H     0.09120   0.82177   0.36822   0.00000  Uiso   1.00
H270   H     0.10562   0.53185   0.29567   0.00000  Uiso   1.00
H271   H     0.17397   0.96909   0.17299   0.00000  Uiso   1.00
H272   H     0.10917   0.61222   0.29776   0.00000  Uiso   1.00
H273   H     0.17619   0.88907   0.17446   0.00000  Uiso   1.00
H274   H     0.22485   0.53003   0.20249   0.00000  Uiso   1.00
H275   H     0.15446   0.97141   0.32506   0.00000  Uiso   1.00
H276   H     0.09484   0.71331   0.02650   0.00000  Uiso   1.00
N277   N     0.16667   0.75001   0.12934   0.00000  Uiso   1.00
N278   N     0.16667   0.74999   0.37065   0.00000  Uiso   1.00
O279   O     0.16667   0.68573   0.29071   0.00000  Uiso   1.00
O280   O     0.14847   0.88600   0.33462   0.00000  Uiso   1.00
O281   O     0.16666   0.81428   0.20928   0.00000  Uiso   1.00
O282   O     0.16667   0.68573   0.20928   0.00000  Uiso   1.00
O283   O     0.16666   0.81427   0.29072   0.00000  Uiso   1.00
O284   O     0.09161   0.75000   0.28132   0.00000  Uiso   1.00
O285   O     0.24172   0.75001   0.21868   0.00000  Uiso   1.00
O286   O     0.09161   0.75000   0.19988   0.00000  Uiso   1.00
O287   O     0.24172   0.75000   0.30011   0.00000  Uiso   1.00
O288   O     0.23324   0.61648   0.19680   0.00000  Uiso   1.00
C289   C     0.50037   0.66511   0.24992   0.00000  Uiso   1.00
C290   C     0.52498   0.78353   0.44945   0.00000  Uiso   1.00
C291   C     0.50010   0.74982   0.02736   0.00000  Uiso   1.00
C292   C     0.50005   0.74990   0.47265   0.00000  Uiso   1.00
C293   C     0.40121   0.74996   0.23753   0.00000  Uiso   1.00
C294   C     0.59878   0.75003   0.26246   0.00000  Uiso   1.00
C295   C     0.34593   0.74987   0.23065   0.00000  Uiso   1.00
C296   C     0.65407   0.75011   0.26933   0.00000  Uiso   1.00
C297   C     0.46582   0.54862   0.27555   0.00000  Uiso   1.00
C298   C     0.50344   0.95239   0.20676   0.00000  Uiso   1.00
C299   C     0.46754   0.59443   0.27656   0.00000  Uiso   1.00
C300   C     0.49929   0.83516   0.25007   0.00000  Uiso   1.00
C301   C     0.50411   0.90655   0.20750   0.00000  Uiso   1.00
C302   C     0.50031   0.61714   0.24942   0.00000  Uiso   1.00
C303   C     0.49788   0.88364   0.25022   0.00000  Uiso   1.00
C304   C     0.53177   0.59392   0.22101   0.00000  Uiso   1.00
C305   C     0.48965   0.90752   0.29232   0.00000  Uiso   1.00
C306   C     0.53153   0.54778   0.22190   0.00000  Uiso   1.00
C307   C     0.49130   0.95358   0.29177   0.00000  Uiso   1.00
C308   C     0.49816   0.52488   0.24863   0.00000  Uiso   1.00
C309   C     0.49764   0.97629   0.24903   0.00000  Uiso   1.00
C310   C     0.55039   0.61361   0.14612   0.00000  Uiso   1.00
C311   C     0.46040   0.72911   0.04870   0.00000  Uiso   1.00
C312   C     0.58259   0.64531   0.12021   0.00000  Uiso   1.00
C313   C     0.42880   0.88783   0.33927   0.00000  Uiso   1.00
C314   C     0.41753   0.85628   0.37907   0.00000  Uiso   1.00
C315   C     0.47508   0.71633   0.44256   0.00000  Uiso   1.00
C316   C     0.46134   0.72925   0.09955   0.00000  Uiso   1.00
C317   C     0.47513   0.71723   0.39185   0.00000  Uiso   1.00
C318   C     0.53878   0.77058   0.10988   0.00000  Uiso   1.00
C319   C     0.52495   0.78269   0.39872   0.00000  Uiso   1.00
C320   C     0.53983   0.77051   0.05930   0.00000  Uiso   1.00
Cu321  Cu    0.50000   0.75000   0.29821   0.00000  Uiso   1.00
Cu322  Cu    0.50000   0.75001   0.20178   0.00000  Uiso   1.00
H323   H     0.65922   0.74958   0.19356   0.00000  Uiso   1.00
H324   H     0.45607   0.68902   0.45784   0.00000  Uiso   1.00
H325   H     0.43076   0.71282   0.11512   0.00000  Uiso   1.00
H326   H     0.45535   0.69136   0.36947   0.00000  Uiso   1.00
H327   H     0.56941   0.78699   0.13359   0.00000  Uiso   1.00
H328   H     0.54460   0.80863   0.38177   0.00000  Uiso   1.00
H329   H     0.57211   0.78620   0.04569   0.00000  Uiso   1.00
H330   H     0.54393   0.81085   0.46999   0.00000  Uiso   1.00
H331   H     0.50908   0.62302   0.13664   0.00000  Uiso   1.00
H332   H     0.55598   0.57959   0.13259   0.00000  Uiso   1.00
H333   H     0.62386   0.63583   0.12711   0.00000  Uiso   1.00
H334   H     0.34079   0.75040   0.30642   0.00000  Uiso   1.00
H335   H     0.56939   0.64432   0.08037   0.00000  Uiso   1.00
H336   H     0.57849   0.67948   0.13370   0.00000  Uiso   1.00
H337   H     0.40408   0.87776   0.30485   0.00000  Uiso   1.00
H338   H     0.41825   0.92179   0.34957   0.00000  Uiso   1.00
H339   H     0.44263   0.86417   0.41374   0.00000  Uiso   1.00
H340   H     0.37656   0.85928   0.38479   0.00000  Uiso   1.00
H341   H     0.42453   0.82177   0.36822   0.00000  Uiso   1.00
H342   H     0.43895   0.53185   0.29567   0.00000  Uiso   1.00
H343   H     0.50731   0.96909   0.17299   0.00000  Uiso   1.00
H344   H     0.44250   0.61222   0.29776   0.00000  Uiso   1.00
H345   H     0.50953   0.88907   0.17446   0.00000  Uiso   1.00
H346   H     0.55818   0.53003   0.20249   0.00000  Uiso   1.00
H347   H     0.48779   0.97141   0.32506   0.00000  Uiso   1.00
H348   H     0.42818   0.71331   0.02650   0.00000  Uiso   1.00
N349   N     0.50000   0.75001   0.12934   0.00000  Uiso   1.00
N350   N     0.50000   0.74999   0.37065   0.00000  Uiso   1.00
O351   O     0.50000   0.68573   0.29071   0.00000  Uiso   1.00
O352   O     0.48180   0.88600   0.33462   0.00000  Uiso   1.00
O353   O     0.50000   0.81428   0.20928   0.00000  Uiso   1.00
O354   O     0.50000   0.68573   0.20928   0.00000  Uiso   1.00
O355   O     0.50000   0.81427   0.29072   0.00000  Uiso   1.00
O356   O     0.42495   0.75000   0.28132   0.00000  Uiso   1.00
O357   O     0.57505   0.75001   0.21868   0.00000  Uiso   1.00
O358   O     0.42495   0.75000   0.19988   0.00000  Uiso   1.00
O359   O     0.57505   0.75000   0.30011   0.00000  Uiso   1.00
O360   O     0.56657   0.61648   0.19680   0.00000  Uiso   1.00
C361   C     0.83371   0.66511   0.24992   0.00000  Uiso   1.00
C362   C     0.85831   0.78353   0.44945   0.00000  Uiso   1.00
C363   C     0.83343   0.74982   0.02736   0.00000  Uiso   1.00
C364   C     0.83338   0.74990   0.47265   0.00000  Uiso   1.00
C365   C     0.73455   0.74996   0.23753   0.00000  Uiso   1.00
C366   C     0.93212   0.75003   0.26246   0.00000  Uiso   1.00
C367   C     0.67926   0.74987   0.23065   0.00000  Uiso   1.00
C368   C     0.98740   0.75011   0.26933   0.00000  Uiso   1.00
C369   C     0.79915   0.54862   0.27555   0.00000  Uiso   1.00
C370   C     0.83677   0.95239   0.20676   0.00000  Uiso   1.00
C371   C     0.80087   0.59443   0.27656   0.00000  Uiso   1.00
C372   C     0.83262   0.83516   0.25007   0.00000  Uiso   1.00
C373   C     0.83744   0.90655   0.20750   0.00000  Uiso   1.00
C374   C     0.83365   0.61714   0.24942   0.00000  Uiso   1.00
C375   C     0.83121   0.88364   0.25022   0.00000  Uiso   1.00
C376   C     0.86510   0.59392   0.22101   0.00000  Uiso   1.00
C377   C     0.82299   0.90752   0.29232   0.00000  Uiso   1.00
C378   C     0.86486   0.54778   0.22190   0.00000  Uiso   1.00
C379   C     0.82463   0.95358   0.29177   0.00000  Uiso   1.00
C380   C     0.83150   0.52488   0.24863   0.00000  Uiso   1.00
C381   C     0.83097   0.97629   0.24903   0.00000  Uiso   1.00
C382   C     0.88372   0.61361   0.14612   0.00000  Uiso   1.00
C383   C     0.79373   0.72911   0.04870   0.00000  Uiso   1.00
C384   C     0.91592   0.64531   0.12021   0.00000  Uiso   1.00
C385   C     0.76213   0.88783   0.33927   0.00000  Uiso   1.00
C386   C     0.75086   0.85628   0.37907   0.00000  Uiso   1.00
C387   C     0.80841   0.71633   0.44256   0.00000  Uiso   1.00
C388   C     0.79468   0.72925   0.09955   0.00000  Uiso   1.00
C389   C     0.80846   0.71723   0.39185   0.00000  Uiso   1.00
C390   C     0.87211   0.77058   0.10988   0.00000  Uiso   1.00
C391   C     0.85828   0.78269   0.39872   0.00000  Uiso   1.00
C392   C     0.87316   0.77051   0.05930   0.00000  Uiso   1.00
Cu393  Cu    0.83333   0.75000   0.29821   0.00000  Uiso   1.00
Cu394  Cu    0.83333   0.75001   0.20178   0.00000  Uiso   1.00
H395   H     0.99255   0.74958   0.19356   0.00000  Uiso   1.00
H396   H     0.78940   0.68902   0.45784   0.00000  Uiso   1.00
H397   H     0.76409   0.71282   0.11512   0.00000  Uiso   1.00
H398   H     0.78868   0.69136   0.36947   0.00000  Uiso   1.00
H399   H     0.90275   0.78699   0.13359   0.00000  Uiso   1.00
H400   H     0.87794   0.80863   0.38177   0.00000  Uiso   1.00
H401   H     0.90545   0.78620   0.04569   0.00000  Uiso   1.00
H402   H     0.87727   0.81085   0.46999   0.00000  Uiso   1.00
H403   H     0.84241   0.62302   0.13664   0.00000  Uiso   1.00
H404   H     0.88931   0.57959   0.13259   0.00000  Uiso   1.00
H405   H     0.95720   0.63583   0.12711   0.00000  Uiso   1.00
H406   H     0.67412   0.75040   0.30642   0.00000  Uiso   1.00
H407   H     0.90272   0.64432   0.08037   0.00000  Uiso   1.00
H408   H     0.91182   0.67948   0.13370   0.00000  Uiso   1.00
H409   H     0.73741   0.87776   0.30485   0.00000  Uiso   1.00
H410   H     0.75158   0.92179   0.34957   0.00000  Uiso   1.00
H411   H     0.77596   0.86417   0.41374   0.00000  Uiso   1.00
H412   H     0.70989   0.85928   0.38479   0.00000  Uiso   1.00
H413   H     0.75787   0.82177   0.36822   0.00000  Uiso   1.00
H414   H     0.77228   0.53185   0.29567   0.00000  Uiso   1.00
H415   H     0.84064   0.96909   0.17299   0.00000  Uiso   1.00
H416   H     0.77583   0.61222   0.29776   0.00000  Uiso   1.00
H417   H     0.84286   0.88907   0.17446   0.00000  Uiso   1.00
H418   H     0.89152   0.53003   0.20249   0.00000  Uiso   1.00
H419   H     0.82112   0.97141   0.32506   0.00000  Uiso   1.00
H420   H     0.76151   0.71331   0.02650   0.00000  Uiso   1.00
N421   N     0.83333   0.75001   0.12934   0.00000  Uiso   1.00
N422   N     0.83333   0.74999   0.37065   0.00000  Uiso   1.00
O423   O     0.83334   0.68573   0.29071   0.00000  Uiso   1.00
O424   O     0.81514   0.88600   0.33462   0.00000  Uiso   1.00
O425   O     0.83333   0.81428   0.20928   0.00000  Uiso   1.00
O426   O     0.83334   0.68573   0.20928   0.00000  Uiso   1.00
O427   O     0.83333   0.81427   0.29072   0.00000  Uiso   1.00
O428   O     0.75828   0.75000   0.28132   0.00000  Uiso   1.00
O429   O     0.90839   0.75001   0.21868   0.00000  Uiso   1.00
O430   O     0.75828   0.75000   0.19988   0.00000  Uiso   1.00
O431   O     0.90839   0.75000   0.30011   0.00000  Uiso   1.00
O432   O     0.89991   0.61648   0.19680   0.00000  Uiso   1.00
C433   C     0.16704   0.16511   0.74992   0.00000  Uiso   1.00
C434   C     0.19164   0.28353   0.94945   0.00000  Uiso   1.00
C435   C     0.16677   0.24982   0.52736   0.00000  Uiso   1.00
C436   C     0.16672   0.24990   0.97265   0.00000  Uiso   1.00
C437   C     0.06788   0.24996   0.73753   0.00000  Uiso   1.00
C438   C     0.26545   0.25003   0.76246   0.00000  Uiso   1.00
C439   C     0.01259   0.24987   0.73065   0.00000  Uiso   1.00
C440   C     0.32074   0.25011   0.76933   0.00000  Uiso   1.00
C441   C     0.13249   0.04862   0.77555   0.00000  Uiso   1.00
C442   C     0.17010   0.45239   0.70676   0.00000  Uiso   1.00
C443   C     0.13420   0.09443   0.77656   0.00000  Uiso   1.00
C444   C     0.16595   0.33516   0.75007   0.00000  Uiso   1.00
C445   C     0.17077   0.40655   0.70750   0.00000  Uiso   1.00
C446   C     0.16698   0.11714   0.74942   0.00000  Uiso   1.00
C447   C     0.16455   0.38364   0.75022   0.00000  Uiso   1.00
C448   C     0.19843   0.09392   0.72101   0.00000  Uiso   1.00
C449   C     0.15632   0.40752   0.79232   0.00000  Uiso   1.00
C450   C     0.19820   0.04778   0.72190   0.00000  Uiso   1.00
C451   C     0.15796   0.45358   0.79177   0.00000  Uiso   1.00
C452   C     0.16483   0.02488   0.74863   0.00000  Uiso   1.00
C453   C     0.16431   0.47629   0.74903   0.00000  Uiso   1.00
C454   C     0.21705   0.11361   0.64612   0.00000  Uiso   1.00
C455   C     0.12707   0.22911   0.54870   0.00000  Uiso   1.00
C456   C     0.24926   0.14531   0.62021   0.00000  Uiso   1.00
C457   C     0.09547   0.38783   0.83927   0.00000  Uiso   1.00
C458   C     0.08420   0.35628   0.87907   0.00000  Uiso   1.00
C459   C     0.14174   0.21633   0.94256   0.00000  Uiso   1.00
C460   C     0.12801   0.22925   0.59955   0.00000  Uiso   1.00
C461   C     0.14179   0.21723   0.89185   0.00000  Uiso   1.00
C462   C     0.20545   0.27058   0.60988   0.00000  Uiso   1.00
C463   C     0.19161   0.28269   0.89872   0.00000  Uiso   1.00
C464   C     0.20650   0.27051   0.55930   0.00000  Uiso   1.00
Cu465  Cu    0.16667   0.25000   0.79821   0.00000  Uiso   1.00
Cu466  Cu    0.16667   0.25001   0.70178   0.00000  Uiso   1.00
H467   H     0.32588   0.24958   0.69356   0.00000  Uiso   1.00
H468   H     0.12274   0.18902   0.95784   0.00000  Uiso   1.00
H469   H     0.09743   0.21282   0.61512   0.00000  Uiso   1.00
H470   H     0.12202   0.19136   0.86947   0.00000  Uiso   1.00
H471   H     0.23608   0.28699   0.63359   0.00000  Uiso   1.00
H472   H     0.21127   0.30863   0.88177   0.00000  Uiso   1.00
H473   H     0.23878   0.28620   0.54569   0.00000  Uiso   1.00
H474   H     0.21060   0.31085   0.96999   0.00000  Uiso   1.00
H475   H     0.17575   0.12302   0.63664   0.00000  Uiso   1.00
H476   H     0.22264   0.07959   0.63259   0.00000  Uiso   1.00
H477   H     0.29053   0.13583   0.62711   0.00000  Uiso   1.00
H478   H     0.00745   0.25040   0.80642   0.00000  Uiso   1.00
H479   H     0.23605   0.14432   0.58037   0.00000  Uiso   1.00
H480   H     0.24516   0.17948   0.63370   0.00000  Uiso   1.00
H481   H     0.07074   0.37776   0.80485   0.00000  Uiso   1.00
H482   H     0.08491   0.42179   0.84957   0.00000  Uiso   1.00
H483   H     0.10930   0.36417   0.91374   0.00000  Uiso   1.00
H484   H     0.04323   0.35928   0.88479   0.00000  Uiso   1.00
H485   H     0.09120   0.32177   0.86822   0.00000  Uiso   1.00
H486   H     0.10562   0.03185   0.79567   0.00000  Uiso   1.00
H487   H     0.17397   0.46909   0.67299   0.00000  Uiso   1.00
H488   H     0.10917   0.11222   0.79776   0.00000  Uiso   1.00
H489   H     0.17619   0.38907   0.67446   0.00000  Uiso   1.00
H490   H     0.22485   0.03003   0.70249   0.00000  Uiso   1.00
H491   H     0.15446   0.47141   0.82506   0.00000  Uiso   1.00
H492   H     0.09484   0.21331   0.52650   0.00000  Uiso   1.00
N493   N     0.16667   0.25001   0.62934   0.00000  Uiso   1.00
N494   N     0.16667   0.24999   0.87065   0.00000  Uiso   1.00
O495   O     0.16667   0.18573   0.79071   0.00000  Uiso   1.00
O496   O     0.14847   0.38600   0.83462   0.00000  Uiso   1.00
O497   O     0.16666   0.31428   0.70928   0.00000  Uiso   1.00
O498   O     0.16667   0.18573   0.70928   0.00000  Uiso   1.00
O499   O     0.16666   0.31427   0.79072   0.00000  Uiso   1.00
O500   O     0.09161   0.25000   0.78132   0.00000  Uiso   1.00
O501   O     0.24172   0.25001   0.71868   0.00000  Uiso   1.00
O502   O     0.09161   0.25000   0.69988   0.00000  Uiso   1.00
O503   O     0.24172   0.25000   0.80011   0.00000  Uiso   1.00
O504   O     0.23324   0.11648   0.69680   0.00000  Uiso   1.00
C505   C     0.50037   0.16511   0.74992   0.00000  Uiso   1.00
C506   C     0.52498   0.28353   0.94945   0.00000  Uiso   1.00
C507   C     0.50010   0.24982   0.52736   0.00000  Uiso   1.00
C508   C     0.50005   0.24990   0.97265   0.00000  Uiso   1.00
C509   C     0.40121   0.24996   0.73753   0.00000  Uiso   1.00
C510   C     0.59878   0.25003   0.76246   0.00000  Uiso   1.00
C511   C     0.34593   0.24987   0.73065   0.00000  Uiso   1.00
C512   C     0.65407   0.25011   0.76933   0.00000  Uiso   1.00
C513   C     0.46582   0.04862   0.77555   0.00000  Uiso   1.00
C514   C     0.50344   0.45239   0.70676   0.00000  Uiso   1.00
C515   C     0.46754   0.09443   0.77656   0.00000  Uiso   1.00
C516   C     0.49929   0.33516   0.75007   0.00000  Uiso   1.00
C517   C     0.50411   0.40655   0.70750   0.00000  Uiso   1.00
C518   C     0.50031   0.11714   0.74942   0.00000  Uiso   1.00
C519   C     0.49788   0.38364   0.75022   0.00000  Uiso   1.00
C520   C     0.53177   0.09392   0.72101   0.00000  Uiso   1.00
C521   C     0.48965   0.40752   0.79232   0.00000  Uiso   1.00
C522   C     0.53153   0.04778   0.72190   0.00000  Uiso   1.00
C523   C     0.49130   0.45358   0.79177   0.00000  Uiso   1.00
C524   C     0.49816   0.02488   0.74863   0.00000  Uiso   1.00
C525   C     0.49764   0.47629   0.74903   0.00000  Uiso   1.00
C526   C     0.55039   0.11361   0.64612   0.00000  Uiso   1.00
C527   C     0.46040   0.22911   0.54870   0.00000  Uiso   1.00
C528   C     0.58259   0.14531   0.62021   0.00000  Uiso   1.00
C529   C     0.42880   0.38783   0.83927   0.00000  Uiso   1.00
C530   C     0.41753   0.35628   0.87907   0.00000  Uiso   1.00
C531   C     0.47508   0.21633   0.94256   0.00000  Uiso   1.00
C532   C     0.46134   0.22925   0.59955   0.00000  Uiso   1.00
C533   C     0.47513   0.21723   0.89185   0.00000  Uiso   1.00
C534   C     0.53878   0.27058   0.60988   0.00000  Uiso   1.00
C535   C     0.52495   0.28269   0.89872   0.00000  Uiso   1.00
C536   C     0.53983   0.27051   0.55930   0.00000  Uiso   1.00
Cu537  Cu    0.50000   0.25000   0.79821   0.00000  Uiso   1.00
Cu538  Cu    0.50000   0.25001   0.70178   0.00000  Uiso   1.00
H539   H     0.65922   0.24958   0.69356   0.00000  Uiso   1.00
H540   H     0.45607   0.18902   0.95784   0.00000  Uiso   1.00
H541   H     0.43076   0.21282   0.61512   0.00000  Uiso   1.00
H542   H     0.45535   0.19136   0.86947   0.00000  Uiso   1.00
H543   H     0.56941   0.28699   0.63359   0.00000  Uiso   1.00
H544   H     0.54460   0.30863   0.88177   0.00000  Uiso   1.00
H545   H     0.57211   0.28620   0.54569   0.00000  Uiso   1.00
H546   H     0.54393   0.31085   0.96999   0.00000  Uiso   1.00
H547   H     0.50908   0.12302   0.63664   0.00000  Uiso   1.00
H548   H     0.55598   0.07959   0.63259   0.00000  Uiso   1.00
H549   H     0.62386   0.13583   0.62711   0.00000  Uiso   1.00
H550   H     0.34079   0.25040   0.80642   0.00000  Uiso   1.00
H551   H     0.56939   0.14432   0.58037   0.00000  Uiso   1.00
H552   H     0.57849   0.17948   0.63370   0.00000  Uiso   1.00
H553   H     0.40408   0.37776   0.80485   0.00000  Uiso   1.00
H554   H     0.41825   0.42179   0.84957   0.00000  Uiso   1.00
H555   H     0.44263   0.36417   0.91374   0.00000  Uiso   1.00
H556   H     0.37656   0.35928   0.88479   0.00000  Uiso   1.00
H557   H     0.42453   0.32177   0.86822   0.00000  Uiso   1.00
H558   H     0.43895   0.03185   0.79567   0.00000  Uiso   1.00
H559   H     0.50731   0.46909   0.67299   0.00000  Uiso   1.00
H560   H     0.44250   0.11222   0.79776   0.00000  Uiso   1.00
H561   H     0.50953   0.38907   0.67446   0.00000  Uiso   1.00
H562   H     0.55818   0.03003   0.70249   0.00000  Uiso   1.00
H563   H     0.48779   0.47141   0.82506   0.00000  Uiso   1.00
H564   H     0.42818   0.21331   0.52650   0.00000  Uiso   1.00
N565   N     0.50000   0.25001   0.62934   0.00000  Uiso   1.00
N566   N     0.50000   0.24999   0.87065   0.00000  Uiso   1.00
O567   O     0.50000   0.18573   0.79071   0.00000  Uiso   1.00
O568   O     0.48180   0.38600   0.83462   0.00000  Uiso   1.00
O569   O     0.50000   0.31428   0.70928   0.00000  Uiso   1.00
O570   O     0.50000   0.18573   0.70928   0.00000  Uiso   1.00
O571   O     0.50000   0.31427   0.79072   0.00000  Uiso   1.00
O572   O     0.42495   0.25000   0.78132   0.00000  Uiso   1.00
O573   O     0.57505   0.25001   0.71868   0.00000  Uiso   1.00
O574   O     0.42495   0.25000   0.69988   0.00000  Uiso   1.00
O575   O     0.57505   0.25000   0.80011   0.00000  Uiso   1.00
O576   O     0.56657   0.11648   0.69680   0.00000  Uiso   1.00
C577   C     0.83371   0.16511   0.74992   0.00000  Uiso   1.00
C578   C     0.85831   0.28353   0.94945   0.00000  Uiso   1.00
C579   C     0.83343   0.24982   0.52736   0.00000  Uiso   1.00
C580   C     0.83338   0.24990   0.97265   0.00000  Uiso   1.00
C581   C     0.73455   0.24996   0.73753   0.00000  Uiso   1.00
C582   C     0.93212   0.25003   0.76246   0.00000  Uiso   1.00
C583   C     0.67926   0.24987   0.73065   0.00000  Uiso   1.00
C584   C     0.98740   0.25011   0.76933   0.00000  Uiso   1.00
C585   C     0.79915   0.04862   0.77555   0.00000  Uiso   1.00
C586   C     0.83677   0.45239   0.70676   0.00000  Uiso   1.00
C587   C     0.80087   0.09443   0.77656   0.00000  Uiso   1.00
C588   C     0.83262   0.33516   0.75007   0.00000  Uiso   1.00
C589   C     0.83744   0.40655   0.70750   0.00000  Uiso   1.00
C590   C     0.83365   0.11714   0.74942   0.00000  Uiso   1.00
C591   C     0.83121   0.38364   0.75022   0.00000  Uiso   1.00
C592   C     0.86510   0.09392   0.72101   0.00000  Uiso   1.00
C593   C     0.82299   0.40752   0.79232   0.00000  Uiso   1.00
C594   C     0.86486   0.04778   0.72190   0.00000  Uiso   1.00
C595   C     0.82463   0.45358   0.79177   0.00000  Uiso   1.00
C596   C     0.83150   0.02488   0.74863   0.00000  Uiso   1.00
C597   C     0.83097   0.47629   0.74903   0.00000  Uiso   1.00
C598   C     0.88372   0.11361   0.64612   0.00000  Uiso   1.00
C599   C     0.79373   0.22911   0.54870   0.00000  Uiso   1.00
C600   C     0.91592   0.14531   0.62021   0.00000  Uiso   1.00
C601   C     0.76213   0.38783   0.83927   0.00000  Uiso   1.00
C602   C     0.75086   0.35628   0.87907   0.00000  Uiso   1.00
C603   C     0.80841   0.21633   0.94256   0.00000  Uiso   1.00
C604   C     0.79468   0.22925   0.59955   0.00000  Uiso   1.00
C605   C     0.80846   0.21723   0.89185   0.00000  Uiso   1.00
C606   C     0.87211   0.27058   0.60988   0.00000  Uiso   1.00
C607   C     0.85828   0.28269   0.89872   0.00000  Uiso   1.00
C608   C     0.87316   0.27051   0.55930   0.00000  Uiso   1.00
Cu609  Cu    0.83333   0.25000   0.79821   0.00000  Uiso   1.00
Cu610  Cu    0.83333   0.25001   0.70178   0.00000  Uiso   1.00
H611   H     0.99255   0.24958   0.69356   0.00000  Uiso   1.00
H612   H     0.78940   0.18902   0.95784   0.00000  Uiso   1.00
H613   H     0.76409   0.21282   0.61512   0.00000  Uiso   1.00
H614   H     0.78868   0.19136   0.86947   0.00000  Uiso   1.00
H615   H     0.90275   0.28699   0.63359   0.00000  Uiso   1.00
H616   H     0.87794   0.30863   0.88177   0.00000  Uiso   1.00
H617   H     0.90545   0.28620   0.54569   0.00000  Uiso   1.00
H618   H     0.87727   0.31085   0.96999   0.00000  Uiso   1.00
H619   H     0.84241   0.12302   0.63664   0.00000  Uiso   1.00
H620   H     0.88931   0.07959   0.63259   0.00000  Uiso   1.00
H621   H     0.95720   0.13583   0.62711   0.00000  Uiso   1.00
H622   H     0.67412   0.25040   0.80642   0.00000  Uiso   1.00
H623   H     0.90272   0.14432   0.58037   0.00000  Uiso   1.00
H624   H     0.91182   0.17948   0.63370   0.00000  Uiso   1.00
H625   H     0.73741   0.37776   0.80485   0.00000  Uiso   1.00
H626   H     0.75158   0.42179   0.84957   0.00000  Uiso   1.00
H627   H     0.77596   0.36417   0.91374   0.00000  Uiso   1.00
H628   H     0.70989   0.35928   0.88479   0.00000  Uiso   1.00
H629   H     0.75787   0.32177   0.86822   0.00000  Uiso   1.00
H630   H     0.77228   0.03185   0.79567   0.00000  Uiso   1.00
H631   H     0.84064   0.46909   0.67299   0.00000  Uiso   1.00
H632   H     0.77583   0.11222   0.79776   0.00000  Uiso   1.00
H633   H     0.84286   0.38907   0.67446   0.00000  Uiso   1.00
H634   H     0.89152   0.03003   0.70249   0.00000  Uiso   1.00
H635   H     0.82112   0.47141   0.82506   0.00000  Uiso   1.00
H636   H     0.76151   0.21331   0.52650   0.00000  Uiso   1.00
N637   N     0.83333   0.25001   0.62934   0.00000  Uiso   1.00
N638   N     0.83333   0.24999   0.87065   0.00000  Uiso   1.00
O639   O     0.83334   0.18573   0.79071   0.00000  Uiso   1.00
O640   O     0.81514   0.38600   0.83462   0.00000  Uiso   1.00
O641   O     0.83333   0.31428   0.70928   0.00000  Uiso   1.00
O642   O     0.83334   0.18573   0.70928   0.00000  Uiso   1.00
O643   O     0.83333   0.31427   0.79072   0.00000  Uiso   1.00
O644   O     0.75828   0.25000   0.78132   0.00000  Uiso   1.00
O645   O     0.90839   0.25001   0.71868   0.00000  Uiso   1.00
O646   O     0.75828   0.25000   0.69988   0.00000  Uiso   1.00
O647   O     0.90839   0.25000   0.80011   0.00000  Uiso   1.00
O648   O     0.89991   0.11648   0.69680   0.00000  Uiso   1.00
C649   C     0.16704   0.66511   0.74992   0.00000  Uiso   1.00
C650   C     0.19164   0.78353   0.94945   0.00000  Uiso   1.00
C651   C     0.16677   0.74982   0.52736   0.00000  Uiso   1.00
C652   C     0.16672   0.74990   0.97265   0.00000  Uiso   1.00
C653   C     0.06788   0.74996   0.73753   0.00000  Uiso   1.00
C654   C     0.26545   0.75003   0.76246   0.00000  Uiso   1.00
C655   C     0.01259   0.74987   0.73065   0.00000  Uiso   1.00
C656   C     0.32074   0.75011   0.76933   0.00000  Uiso   1.00
C657   C     0.13249   0.54862   0.77555   0.00000  Uiso   1.00
C658   C     0.17010   0.95239   0.70676   0.00000  Uiso   1.00
C659   C     0.13420   0.59443   0.77656   0.00000  Uiso   1.00
C660   C     0.16595   0.83516   0.75007   0.00000  Uiso   1.00
C661   C     0.17077   0.90655   0.70750   0.00000  Uiso   1.00
C662   C     0.16698   0.61714   0.74942   0.00000  Uiso   1.00
C663   C     0.16455   0.88364   0.75022   0.00000  Uiso   1.00
C664   C     0.19843   0.59392   0.72101   0.00000  Uiso   1.00
C665   C     0.15632   0.90752   0.79232   0.00000  Uiso   1.00
C666   C     0.19820   0.54778   0.72190   0.00000  Uiso   1.00
C667   C     0.15796   0.95358   0.79177   0.00000  Uiso   1.00
C668   C     0.16483   0.52488   0.74863   0.00000  Uiso   1.00
C669   C     0.16431   0.97629   0.74903   0.00000  Uiso   1.00
C670   C     0.21705   0.61361   0.64612   0.00000  Uiso   1.00
C671   C     0.12707   0.72911   0.54870   0.00000  Uiso   1.00
C672   C     0.24926   0.64531   0.62021   0.00000  Uiso   1.00
C673   C     0.09547   0.88783   0.83927   0.00000  Uiso   1.00
C674   C     0.08420   0.85628   0.87907   0.00000  Uiso   1.00
C675   C     0.14174   0.71633   0.94256   0.00000  Uiso   1.00
C676   C     0.12801   0.72925   0.59955   0.00000  Uiso   1.00
C677   C     0.14179   0.71723   0.89185   0.00000  Uiso   1.00
C678   C     0.20545   0.77058   0.60988   0.00000  Uiso   1.00
C679   C     0.19161   0.78269   0.89872   0.00000  Uiso   1.00
C680   C     0.20650   0.77051   0.55930   0.00000  Uiso   1.00
Cu681  Cu    0.16667   0.75000   0.79821   0.00000  Uiso   1.00
Cu682  Cu    0.16667   0.75001   0.70178   0.00000  Uiso   1.00
H683   H     0.32588   0.74958   0.69356   0.00000  Uiso   1.00
H684   H     0.12274   0.68902   0.95784   0.00000  Uiso   1.00
H685   H     0.09743   0.71282   0.61512   0.00000  Uiso   1.00
H686   H     0.12202   0.69136   0.86947   0.00000  Uiso   1.00
H687   H     0.23608   0.78699   0.63359   0.00000  Uiso   1.00
H688   H     0.21127   0.80863   0.88177   0.00000  Uiso   1.00
H689   H     0.23878   0.78620   0.54569   0.00000  Uiso   1.00
H690   H     0.21060   0.81085   0.96999   0.00000  Uiso   1.00
H691   H     0.17575   0.62302   0.63664   0.00000  Uiso   1.00
H692   H     0.22264   0.57959   0.63259   0.00000  Uiso   1.00
H693   H     0.29053   0.63583   0.62711   0.00000  Uiso   1.00
H694   H     0.00745   0.75040   0.80642   0.00000  Uiso   1.00
H695   H     0.23605   0.64432   0.58037   0.00000  Uiso   1.00
H696   H     0.24516   0.67948   0.63370   0.00000  Uiso   1.00
H697   H     0.07074   0.87776   0.80485   0.00000  Uiso   1.00
H698   H     0.08491   0.92179   0.84957   0.00000  Uiso   1.00
H699   H     0.10930   0.86417   0.91374   0.00000  Uiso   1.00
H700   H     0.04323   0.85928   0.88479   0.00000  Uiso   1.00
H701   H     0.09120   0.82177   0.86822   0.00000  Uiso   1.00
H702   H     0.10562   0.53185   0.79567   0.00000  Uiso   1.00
H703   H     0.17397   0.96909   0.67299   0.00000  Uiso   1.00
H704   H     0.10917   0.61222   0.79776   0.00000  Uiso   1.00
H705   H     0.17619   0.88907   0.67446   0.00000  Uiso   1.00
H706   H     0.22485   0.53003   0.70249   0.00000  Uiso   1.00
H707   H     0.15446   0.97141   0.82506   0.00000  Uiso   1.00
H708   H     0.09484   0.71331   0.52650   0.00000  Uiso   1.00
N709   N     0.16667   0.75001   0.62934   0.00000  Uiso   1.00
N710   N     0.16667   0.74999   0.87065   0.00000  Uiso   1.00
O711   O     0.16667   0.68573   0.79071   0.00000  Uiso   1.00
O712   O     0.14847   0.88600   0.83462   0.00000  Uiso   1.00
O713   O     0.16666   0.81428   0.70928   0.00000  Uiso   1.00
O714   O     0.16667   0.68573   0.70928   0.00000  Uiso   1.00
O715   O     0.16666   0.81427   0.79072   0.00000  Uiso   1.00
O716   O     0.09161   0.75000   0.78132   0.00000  Uiso   1.00
O717   O     0.24172   0.75001   0.71868   0.00000  Uiso   1.00
O718   O     0.09161   0.75000   0.69988   0.00000  Uiso   1.00
O719   O     0.24172   0.75000   0.80011   0.00000  Uiso   1.00
O720   O     0.23324   0.61648   0.69680   0.00000  Uiso   1.00
C721   C     0.50037   0.66511   0.74992   0.00000  Uiso   1.00
C722   C     0.52498   0.78353   0.94945   0.00000  Uiso   1.00
C723   C     0.50010   0.74982   0.52736   0.00000  Uiso   1.00
C724   C     0.50005   0.74990   0.97265   0.00000  Uiso   1.00
C725   C     0.40121   0.74996   0.73753   0.00000  Uiso   1.00
C726   C     0.59878   0.75003   0.76246   0.00000  Uiso   1.00
C727   C     0.34593   0.74987   0.73065   0.00000  Uiso   1.00
C728   C     0.65407   0.75011   0.76933   0.00000  Uiso   1.00
C729   C     0.46582   0.54862   0.77555   0.00000  Uiso   1.00
C730   C     0.50344   0.95239   0.70676   0.00000  Uiso   1.00
C731   C     0.46754   0.59443   0.77656   0.00000  Uiso   1.00
C732   C     0.49929   0.83516   0.75007   0.00000  Uiso   1.00
C733   C     0.50411   0.90655   0.70750   0.00000  Uiso   1.00
C734   C     0.50031   0.61714   0.74942   0.00000  Uiso   1.00
C735   C     0.49788   0.88364   0.75022   0.00000  Uiso   1.00
C736   C     0.53177   0.59392   0.72101   0.00000  Uiso   1.00
C737   C     0.48965   0.90752   0.79232   0.00000  Uiso   1.00
C738   C     0.53153   0.54778   0.72190   0.00000  Uiso   1.00
C739   C     0.49130   0.95358   0.79177   0.00000  Uiso   1.00
C740   C     0.49816   0.52488   0.74863   0.00000  Uiso   1.00
C741   C     0.49764   0.97629   0.74903   0.00000  Uiso   1.00
C742   C     0.55039   0.61361   0.64612   0.00000  Uiso   1.00
C743   C     0.46040   0.72911   0.54870   0.00000  Uiso   1.00
C744   C     0.58259   0.64531   0.62021   0.00000  Uiso   1.00
C745   C     0.42880   0.88783   0.83927   0.00000  Uiso   1.00
C746   C     0.41753   0.85628   0.87907   0.00000  Uiso   1.00
C747   C     0.47508   0.71633   0.94256   0.00000  Uiso   1.00
C748   C     0.46134   0.72925   0.59955   0.00000  Uiso   1.00
C749   C     0.47513   0.71723   0.89185   0.00000  Uiso   1.00
C750   C     0.53878   0.77058   0.60988   0.00000  Uiso   1.00
C751   C     0.52495   0.78269   0.89872   0.00000  Uiso   1.00
C752   C     0.53983   0.77051   0.55930   0.00000  Uiso   1.00
Cu753  Cu    0.50000   0.75000   0.79821   0.00000  Uiso   1.00
Cu754  Cu    0.50000   0.75001   0.70178   0.00000  Uiso   1.00
H755   H     0.65922   0.74958   0.69356   0.00000  Uiso   1.00
H756   H     0.45607   0.68902   0.95784   0.00000  Uiso   1.00
H757   H     0.43076   0.71282   0.61512   0.00000  Uiso   1.00
H758   H     0.45535   0.69136   0.86947   0.00000  Uiso   1.00
H759   H     0.56941   0.78699   0.63359   0.00000  Uiso   1.00
H760   H     0.54460   0.80863   0.88177   0.00000  Uiso   1.00
H761   H     0.57211   0.78620   0.54569   0.00000  Uiso   1.00
H762   H     0.54393   0.81085   0.96999   0.00000  Uiso   1.00
H763   H     0.50908   0.62302   0.63664   0.00000  Uiso   1.00
H764   H     0.55598   0.57959   0.63259   0.00000  Uiso   1.00
H765   H     0.62386   0.63583   0.62711   0.00000  Uiso   1.00
H766   H     0.34079   0.75040   0.80642   0.00000  Uiso   1.00
H767   H     0.56939   0.64432   0.58037   0.00000  Uiso   1.00
H768   H     0.57849   0.67948   0.63370   0.00000  Uiso   1.00
H769   H     0.40408   0.87776   0.80485   0.00000  Uiso   1.00
H770   H     0.41825   0.92179   0.84957   0.00000  Uiso   1.00
H771   H     0.44263   0.86417   0.91374   0.00000  Uiso   1.00
H772   H     0.37656   0.85928   0.88479   0.00000  Uiso   1.00
H773   H     0.42453   0.82177   0.86822   0.00000  Uiso   1.00
H774   H     0.43895   0.53185   0.79567   0.00000  Uiso   1.00
H775   H     0.50731   0.96909   0.67299   0.00000  Uiso   1.00
H776   H     0.44250   0.61222   0.79776   0.00000  Uiso   1.00
H777   H     0.50953   0.88907   0.67446   0.00000  Uiso   1.00
H778   H     0.55818   0.53003   0.70249   0.00000  Uiso   1.00
H779   H     0.48779   0.97141   0.82506   0.00000  Uiso   1.00
H780   H     0.42818   0.71331   0.52650   0.00000  Uiso   1.00
N781   N     0.50000   0.75001   0.62934   0.00000  Uiso   1.00
N782   N     0.50000   0.74999   0.87065   0.00000  Uiso   1.00
O783   O     0.50000   0.68573   0.79071   0.00000  Uiso   1.00
O784   O     0.48180   0.88600   0.83462   0.00000  Uiso   1.00
O785   O     0.50000   0.81428   0.70928   0.00000  Uiso   1.00
O786   O     0.50000   0.68573   0.70928   0.00000  Uiso   1.00
O787   O     0.50000   0.81427   0.79072   0.00000  Uiso   1.00
O788   O     0.42495   0.75000   0.78132   0.00000  Uiso   1.00
O789   O     0.57505   0.75001   0.71868   0.00000  Uiso   1.00
O790   O     0.42495   0.75000   0.69988   0.00000  Uiso   1.00
O791   O     0.57505   0.75000   0.80011   0.00000  Uiso   1.00
O792   O     0.56657   0.61648   0.69680   0.00000  Uiso   1.00
C793   C     0.83371   0.66511   0.74992   0.00000  Uiso   1.00
C794   C     0.85831   0.78353   0.94945   0.00000  Uiso   1.00
C795   C     0.83343   0.74982   0.52736   0.00000  Uiso   1.00
C796   C     0.83338   0.74990   0.97265   0.00000  Uiso   1.00
C797   C     0.73455   0.74996   0.73753   0.00000  Uiso   1.00
C798   C     0.93212   0.75003   0.76246   0.00000  Uiso   1.00
C799   C     0.67926   0.74987   0.73065   0.00000  Uiso   1.00
C800   C     0.98740   0.75011   0.76933   0.00000  Uiso   1.00
C801   C     0.79915   0.54862   0.77555   0.00000  Uiso   1.00
C802   C     0.83677   0.95239   0.70676   0.00000  Uiso   1.00
C803   C     0.80087   0.59443   0.77656   0.00000  Uiso   1.00
C804   C     0.83262   0.83516   0.75007   0.00000  Uiso   1.00
C805   C     0.83744   0.90655   0.70750   0.00000  Uiso   1.00
C806   C     0.83365   0.61714   0.74942   0.00000  Uiso   1.00
C807   C     0.83121   0.88364   0.75022   0.00000  Uiso   1.00
C808   C     0.86510   0.59392   0.72101   0.00000  Uiso   1.00
C809   C     0.82299   0.90752   0.79232   0.00000  Uiso   1.00
C810   C     0.86486   0.54778   0.72190   0.00000  Uiso   1.00
C811   C     0.82463   0.95358   0.79177   0.00000  Uiso   1.00
C812   C     0.83150   0.52488   0.74863   0.00000  Uiso   1.00
C813   C     0.83097   0.97629   0.74903   0.00000  Uiso   1.00
C814   C     0.88372   0.61361   0.64612   0.00000  Uiso   1.00
C815   C     0.79373   0.72911   0.54870   0.00000  Uiso   1.00
C816   C     0.91592   0.64531   0.62021   0.00000  Uiso   1.00
C817   C     0.76213   0.88783   0.83927   0.00000  Uiso   1.00
C818   C     0.75086   0.85628   0.87907   0.00000  Uiso   1.00
C819   C     0.80841   0.71633   0.94256   0.00000  Uiso   1.00
C820   C     0.79468   0.72925   0.59955   0.00000  Uiso   1.00
C821   C     0.80846   0.71723   0.89185   0.00000  Uiso   1.00
C822   C     0.87211   0.77058   0.60988   0.00000  Uiso   1.00
C823   C     0.85828   0.78269   0.89872   0.00000  Uiso   1.00
C824   C     0.87316   0.77051   0.55930   0.00000  Uiso   1.00
Cu825  Cu    0.83333   0.75000   0.79821   0.00000  Uiso   1.00
Cu826  Cu    0.83333   0.75001   0.70178   0.00000  Uiso   1.00
H827   H     0.99255   0.74958   0.69356   0.00000  Uiso   1.00
H828   H     0.78940   0.68902   0.95784   0.00000  Uiso   1.00
H829   H     0.76409   0.71282   0.61512   0.00000  Uiso   1.00
H830   H     0.78868   0.69136   0.86947   0.00000  Uiso   1.00
H831   H     0.90275   0.78699   0.63359   0.00000  Uiso   1.00
H832   H     0.87794   0.80863   0.88177   0.00000  Uiso   1.00
H833   H     0.90545   0.78620   0.54569   0.00000  Uiso   1.00
H834   H     0.87727   0.81085   0.96999   0.00000  Uiso   1.00
H835   H     0.84241   0.62302   0.63664   0.00000  Uiso   1.00
H836   H     0.88931   0.57959   0.63259   0.00000  Uiso   1.00
H837   H     0.95720   0.63583   0.62711   0.00000  Uiso   1.00
H838   H     0.67412   0.75040   0.80642   0.00000  Uiso   1.00
H839   H     0.90272   0.64432   0.58037   0.00000  Uiso   1.00
H840   H     0.91182   0.67948   0.63370   0.00000  Uiso   1.00
H841   H     0.73741   0.87776   0.80485   0.00000  Uiso   1.00
H842   H     0.75158   0.92179   0.84957   0.00000  Uiso   1.00
H843   H     0.77596   0.86417   0.91374   0.00000  Uiso   1.00
H844   H     0.70989   0.85928   0.88479   0.00000  Uiso   1.00
H845   H     0.75787   0.82177   0.86822   0.00000  Uiso   1.00
H846   H     0.77228   0.53185   0.79567   0.00000  Uiso   1.00
H847   H     0.84064   0.96909   0.67299   0.00000  Uiso   1.00
H848   H     0.77583   0.61222   0.79776   0.00000  Uiso   1.00
H849   H     0.84286   0.88907   0.67446   0.00000  Uiso   1.00
H850   H     0.89152   0.53003   0.70249   0.00000  Uiso   1.00
H851   H     0.82112   0.97141   0.82506   0.00000  Uiso   1.00
H852   H     0.76151   0.71331   0.52650   0.00000  Uiso   1.00
N853   N     0.83333   0.75001   0.62934   0.00000  Uiso   1.00
N854   N     0.83333   0.74999   0.87065   0.00000  Uiso   1.00
O855   O     0.83334   0.68573   0.79071   0.00000  Uiso   1.00
O856   O     0.81514   0.88600   0.83462   0.00000  Uiso   1.00
O857   O     0.83333   0.81428   0.70928   0.00000  Uiso   1.00
O858   O     0.83334   0.68573   0.70928   0.00000  Uiso   1.00
O859   O     0.83333   0.81427   0.79072   0.00000  Uiso   1.00
O860   O     0.75828   0.75000   0.78132   0.00000  Uiso   1.00
O861   O     0.90839   0.75001   0.71868   0.00000  Uiso   1.00
O862   O     0.75828   0.75000   0.69988   0.00000  Uiso   1.00
O863   O     0.90839   0.75000   0.80011   0.00000  Uiso   1.00
O864   O     0.89991   0.61648   0.69680   0.00000  Uiso   1.00
loop_
_geom_bond_atom_site_label_1
_geom_bond_atom_site_label_2
_geom_bond_distance
_geom_bond_site_symmetry_2
_ccdc_geom_bond_type
C1     C14     1.453   .     S
C1     O63     1.291   .     A
C1     O66     1.289   .     A
C2     C4      1.412   .     A
C2     H42     1.081   .     S
C2     C31     1.407   .     A
C3     C23     1.411   .     A
C3     C32     1.411   .     A
C3     C436    1.517   1_554 S
C4     C27     1.411   .     A
C4     C435    1.517   .     S
C5     O70     1.287   .     A
C5     C7      1.434   .     S
C5     O68     1.284   .     A
C6     O69     1.284   .     A
C6     O71     1.287   .     A
C6     C8      1.434   .     S
C7     C152    1.335   1_455 S
C7     H179    1.087   1_455 S
C8     C79     1.335   .     S
C8     H118    1.087   .     S
C9     C20     1.404   .     A
C9     C11     1.388   .     A
C9     H54     1.083   .     S
C10    C13     1.389   .     A
C10    H55     1.083   .     S
C10    C21     1.402   .     A
C11    C14     1.398   .     A
C11    H56     1.084   .     S
C12    O65     1.296   .     A
C12    C15     1.469   .     S
C12    O67     1.293   .     A
C13    C15     1.404   .     A
C13    H57     1.083   .     S
C14    C16     1.406   .     A
C15    C17     1.413   .     A
C16    O72     1.384   .     S
C16    C18     1.398   .     A
C17    O64     1.383   .     S
C17    C19     1.396   .     A
C18    C20     1.404   .     A
C18    H58     1.083   .     S
C19    H59     1.083   .     S
C19    C21     1.402   .     A
C20    C237    1.472   1_545 S
C21    C236    1.472   .     S
C22    H43     1.116   .     S
C22    O72     1.412   .     S
C22    C24     1.521   .     S
C22    H44     1.113   .     S
C23    C28     1.407   .     A
C23    H60     1.081   .     S
C24    H45     1.111   .     S
C24    H48     1.110   .     S
C24    H47     1.111   .     S
C25    H49     1.116   .     S
C25    C26     1.521   .     S
C25    H50     1.113   .     S
C25    O64     1.413   .     S
C26    H52     1.110   .     S
C26    H53     1.110   .     S
C26    H51     1.111   .     S
C27    H36     1.081   .     S
C27    C29     1.407   .     A
C28    N61     1.363   .     A
C28    H37     1.081   .     S
C29    H38     1.081   .     S
C29    N62     1.363   .     A
C30    C32     1.406   .     A
C30    H39     1.081   .     S
C30    N61     1.364   .     A
C31    H40     1.081   .     S
C31    N62     1.363   .     A
C32    H41     1.081   .     S
Cu33   O63     1.957   .     S
Cu33   Cu34    2.674   .     S
Cu33   O71     1.959   .     S
Cu33   O67     1.959   .     S
Cu33   O68     1.956   .     S
Cu33   N62     2.008   .     S
Cu34   O70     1.959   .     S
Cu34   O66     1.959   .     S
Cu34   O69     1.956   .     S
Cu34   O65     1.957   .     S
Cu34   N61     2.008   .     S
H35    C79     1.087   .     S
H46    C152    1.087   1_455 S
C73    C86     1.453   .     S
C73    O135    1.291   .     A
C73    O138    1.289   .     A
C74    C76     1.412   .     A
C74    H114    1.081   .     S
C74    C103    1.407   .     A
C75    C95     1.411   .     A
C75    C104    1.411   .     A
C75    C508    1.517   1_554 S
C76    C99     1.411   .     A
C76    C507    1.517   .     S
C77    O142    1.287   .     A
C77    C79     1.434   .     S
C77    O140    1.284   .     A
C78    O141    1.284   .     A
C78    O143    1.287   .     A
C78    C80     1.434   .     S
C80    C151    1.335   .     S
C80    H190    1.087   .     S
C81    C92     1.404   .     A
C81    C83     1.388   .     A
C81    H126    1.083   .     S
C82    C85     1.389   .     A
C82    H127    1.083   .     S
C82    C93     1.402   .     A
C83    C86     1.398   .     A
C83    H128    1.084   .     S
C84    O137    1.296   .     A
C84    C87     1.469   .     S
C84    O139    1.293   .     A
C85    C87     1.404   .     A
C85    H129    1.083   .     S
C86    C88     1.406   .     A
C87    C89     1.413   .     A
C88    O144    1.384   .     S
C88    C90     1.398   .     A
C89    O136    1.383   .     S
C89    C91     1.396   .     A
C90    C92     1.404   .     A
C90    H130    1.083   .     S
C91    H131    1.083   .     S
C91    C93     1.402   .     A
C92    C309    1.472   1_545 S
C93    C308    1.472   .     S
C94    H115    1.116   .     S
C94    O144    1.412   .     S
C94    C96     1.521   .     S
C94    H116    1.113   .     S
C95    C100    1.407   .     A
C95    H132    1.081   .     S
C96    H117    1.111   .     S
C96    H120    1.110   .     S
C96    H119    1.111   .     S
C97    H121    1.116   .     S
C97    C98     1.521   .     S
C97    H122    1.113   .     S
C97    O136    1.413   .     S
C98    H124    1.110   .     S
C98    H125    1.110   .     S
C98    H123    1.111   .     S
C99    H108    1.081   .     S
C99    C101    1.407   .     A
C100   N133    1.363   .     A
C100   H109    1.081   .     S
C101   H110    1.081   .     S
C101   N134    1.363   .     A
C102   C104    1.406   .     A
C102   H111    1.081   .     S
C102   N133    1.364   .     A
C103   H112    1.081   .     S
C103   N134    1.363   .     A
C104   H113    1.081   .     S
Cu105  O135    1.957   .     S
Cu105  Cu106   2.674   .     S
Cu105  O143    1.959   .     S
Cu105  O139    1.959   .     S
Cu105  O140    1.956   .     S
Cu105  N134    2.008   .     S
Cu106  O142    1.959   .     S
Cu106  O138    1.959   .     S
Cu106  O141    1.956   .     S
Cu106  O137    1.957   .     S
Cu106  N133    2.008   .     S
H107   C151    1.087   .     S
C145   C158    1.453   .     S
C145   O207    1.291   .     A
C145   O210    1.289   .     A
C146   C148    1.412   .     A
C146   H186    1.081   .     S
C146   C175    1.407   .     A
C147   C167    1.411   .     A
C147   C176    1.411   .     A
C147   C580    1.517   1_554 S
C148   C171    1.411   .     A
C148   C579    1.517   .     S
C149   O214    1.287   .     A
C149   C151    1.434   .     S
C149   O212    1.284   .     A
C150   O213    1.284   .     A
C150   O215    1.287   .     A
C150   C152    1.434   .     S
C152   C7      1.335   1_655 S
C152   H46     1.087   1_655 S
C153   C164    1.404   .     A
C153   C155    1.388   .     A
C153   H198    1.083   .     S
C154   C157    1.389   .     A
C154   H199    1.083   .     S
C154   C165    1.402   .     A
C155   C158    1.398   .     A
C155   H200    1.084   .     S
C156   O209    1.296   .     A
C156   C159    1.469   .     S
C156   O211    1.293   .     A
C157   C159    1.404   .     A
C157   H201    1.083   .     S
C158   C160    1.406   .     A
C159   C161    1.413   .     A
C160   O216    1.384   .     S
C160   C162    1.398   .     A
C161   O208    1.383   .     S
C161   C163    1.396   .     A
C162   C164    1.404   .     A
C162   H202    1.083   .     S
C163   H203    1.083   .     S
C163   C165    1.402   .     A
C164   C381    1.472   1_545 S
C165   C380    1.472   .     S
C166   H187    1.116   .     S
C166   O216    1.412   .     S
C166   C168    1.521   .     S
C166   H188    1.113   .     S
C167   C172    1.407   .     A
C167   H204    1.081   .     S
C168   H189    1.111   .     S
C168   H192    1.110   .     S
C168   H191    1.111   .     S
C169   H193    1.116   .     S
C169   C170    1.521   .     S
C169   H194    1.113   .     S
C169   O208    1.413   .     S
C170   H196    1.110   .     S
C170   H197    1.110   .     S
C170   H195    1.111   .     S
C171   H180    1.081   .     S
C171   C173    1.407   .     A
C172   N205    1.363   .     A
C172   H181    1.081   .     S
C173   H182    1.081   .     S
C173   N206    1.363   .     A
C174   C176    1.406   .     A
C174   H183    1.081   .     S
C174   N205    1.364   .     A
C175   H184    1.081   .     S
C175   N206    1.363   .     A
C176   H185    1.081   .     S
Cu177  O207    1.957   .     S
Cu177  Cu178   2.674   .     S
Cu177  O215    1.959   .     S
Cu177  O211    1.959   .     S
Cu177  O212    1.956   .     S
Cu177  N206    2.008   .     S
Cu178  O214    1.959   .     S
Cu178  O210    1.959   .     S
Cu178  O213    1.956   .     S
Cu178  O209    1.957   .     S
Cu178  N205    2.008   .     S
H179   C7      1.087   1_655 S
C217   C230    1.453   .     S
C217   O279    1.291   .     A
C217   O282    1.289   .     A
C218   C220    1.412   .     A
C218   H258    1.081   .     S
C218   C247    1.407   .     A
C219   C239    1.411   .     A
C219   C248    1.411   .     A
C219   C652    1.517   1_554 S
C220   C243    1.411   .     A
C220   C651    1.517   .     S
C221   O286    1.287   .     A
C221   C223    1.434   .     S
C221   O284    1.284   .     A
C222   O285    1.284   .     A
C222   O287    1.287   .     A
C222   C224    1.434   .     S
C223   C368    1.335   1_455 S
C223   H395    1.087   1_455 S
C224   C295    1.335   .     S
C224   H334    1.087   .     S
C225   C236    1.404   .     A
C225   C227    1.388   .     A
C225   H270    1.083   .     S
C226   C229    1.389   .     A
C226   H271    1.083   .     S
C226   C237    1.402   .     A
C227   C230    1.398   .     A
C227   H272    1.084   .     S
C228   O281    1.296   .     A
C228   C231    1.469   .     S
C228   O283    1.293   .     A
C229   C231    1.404   .     A
C229   H273    1.083   .     S
C230   C232    1.406   .     A
C231   C233    1.413   .     A
C232   O288    1.384   .     S
C232   C234    1.398   .     A
C233   O280    1.383   .     S
C233   C235    1.396   .     A
C234   C236    1.404   .     A
C234   H274    1.083   .     S
C235   H275    1.083   .     S
C235   C237    1.402   .     A
C237   C20     1.472   1_565 S
C238   H259    1.116   .     S
C238   O288    1.412   .     S
C238   C240    1.521   .     S
C238   H260    1.113   .     S
C239   C244    1.407   .     A
C239   H276    1.081   .     S
C240   H261    1.111   .     S
C240   H264    1.110   .     S
C240   H263    1.111   .     S
C241   H265    1.116   .     S
C241   C242    1.521   .     S
C241   H266    1.113   .     S
C241   O280    1.413   .     S
C242   H268    1.110   .     S
C242   H269    1.110   .     S
C242   H267    1.111   .     S
C243   H252    1.081   .     S
C243   C245    1.407   .     A
C244   N277    1.363   .     A
C244   H253    1.081   .     S
C245   H254    1.081   .     S
C245   N278    1.363   .     A
C246   C248    1.406   .     A
C246   H255    1.081   .     S
C246   N277    1.364   .     A
C247   H256    1.081   .     S
C247   N278    1.363   .     A
C248   H257    1.081   .     S
Cu249  O279    1.957   .     S
Cu249  Cu250   2.674   .     S
Cu249  O287    1.959   .     S
Cu249  O283    1.959   .     S
Cu249  O284    1.956   .     S
Cu249  N278    2.008   .     S
Cu250  O286    1.959   .     S
Cu250  O282    1.959   .     S
Cu250  O285    1.956   .     S
Cu250  O281    1.957   .     S
Cu250  N277    2.008   .     S
H251   C295    1.087   .     S
H262   C368    1.087   1_455 S
C289   C302    1.453   .     S
C289   O351    1.291   .     A
C289   O354    1.289   .     A
C290   C292    1.412   .     A
C290   H330    1.081   .     S
C290   C319    1.407   .     A
C291   C311    1.411   .     A
C291   C320    1.411   .     A
C291   C724    1.517   1_554 S
C292   C315    1.411   .     A
C292   C723    1.517   .     S
C293   O358    1.287   .     A
C293   C295    1.434   .     S
C293   O356    1.284   .     A
C294   O357    1.284   .     A
C294   O359    1.287   .     A
C294   C296    1.434   .     S
C296   C367    1.335   .     S
C296   H406    1.087   .     S
C297   C308    1.404   .     A
C297   C299    1.388   .     A
C297   H342    1.083   .     S
C298   C301    1.389   .     A
C298   H343    1.083   .     S
C298   C309    1.402   .     A
C299   C302    1.398   .     A
C299   H344    1.084   .     S
C300   O353    1.296   .     A
C300   C303    1.469   .     S
C300   O355    1.293   .     A
C301   C303    1.404   .     A
C301   H345    1.083   .     S
C302   C304    1.406   .     A
C303   C305    1.413   .     A
C304   O360    1.384   .     S
C304   C306    1.398   .     A
C305   O352    1.383   .     S
C305   C307    1.396   .     A
C306   C308    1.404   .     A
C306   H346    1.083   .     S
C307   H347    1.083   .     S
C307   C309    1.402   .     A
C309   C92     1.472   1_565 S
C310   H331    1.116   .     S
C310   O360    1.412   .     S
C310   C312    1.521   .     S
C310   H332    1.113   .     S
C311   C316    1.407   .     A
C311   H348    1.081   .     S
C312   H333    1.111   .     S
C312   H336    1.110   .     S
C312   H335    1.111   .     S
C313   H337    1.116   .     S
C313   C314    1.521   .     S
C313   H338    1.113   .     S
C313   O352    1.413   .     S
C314   H340    1.110   .     S
C314   H341    1.110   .     S
C314   H339    1.111   .     S
C315   H324    1.081   .     S
C315   C317    1.407   .     A
C316   N349    1.363   .     A
C316   H325    1.081   .     S
C317   H326    1.081   .     S
C317   N350    1.363   .     A
C318   C320    1.406   .     A
C318   H327    1.081   .     S
C318   N349    1.364   .     A
C319   H328    1.081   .     S
C319   N350    1.363   .     A
C320   H329    1.081   .     S
Cu321  O351    1.957   .     S
Cu321  Cu322   2.674   .     S
Cu321  O359    1.959   .     S
Cu321  O355    1.959   .     S
Cu321  O356    1.956   .     S
Cu321  N350    2.008   .     S
Cu322  O358    1.959   .     S
Cu322  O354    1.959   .     S
Cu322  O357    1.956   .     S
Cu322  O353    1.957   .     S
Cu322  N349    2.008   .     S
H323   C367    1.087   .     S
C361   C374    1.453   .     S
C361   O423    1.291   .     A
C361   O426    1.289   .     A
C362   C364    1.412   .     A
C362   H402    1.081   .     S
C362   C391    1.407   .     A
C363   C383    1.411   .     A
C363   C392    1.411   .     A
C363   C796    1.517   1_554 S
C364   C387    1.411   .     A
C364   C795    1.517   .     S
C365   O430    1.287   .     A
C365   C367    1.434   .     S
C365   O428    1.284   .     A
C366   O429    1.284   .     A
C366   O431    1.287   .     A
C366   C368    1.434   .     S
C368   C223    1.335   1_655 S
C368   H262    1.087   1_655 S
C369   C380    1.404   .     A
C369   C371    1.388   .     A
C369   H414    1.083   .     S
C370   C373    1.389   .     A
C370   H415    1.083   .     S
C370   C381    1.402   .     A
C371   C374    1.398   .     A
C371   H416    1.084   .     S
C372   O425    1.296   .     A
C372   C375    1.469   .     S
C372   O427    1.293   .     A
C373   C375    1.404   .     A
C373   H417    1.083   .     S
C374   C376    1.406   .     A
C375   C377    1.413   .     A
C376   O432    1.384   .     S
C376   C378    1.398   .     A
C377   O424    1.383   .     S
C377   C379    1.396   .     A
C378   C380    1.404   .     A
C378   H418    1.083   .     S
C379   H419    1.083   .     S
C379   C381    1.402   .     A
C381   C164    1.472   1_565 S
C382   H403    1.116   .     S
C382   O432    1.412   .     S
C382   C384    1.521   .     S
C382   H404    1.113   .     S
C383   C388    1.407   .     A
C383   H420    1.081   .     S
C384   H405    1.111   .     S
C384   H408    1.110   .     S
C384   H407    1.111   .     S
C385   H409    1.116   .     S
C385   C386    1.521   .     S
C385   H410    1.113   .     S
C385   O424    1.413   .     S
C386   H412    1.110   .     S
C386   H413    1.110   .     S
C386   H411    1.111   .     S
C387   H396    1.081   .     S
C387   C389    1.407   .     A
C388   N421    1.363   .     A
C388   H397    1.081   .     S
C389   H398    1.081   .     S
C389   N422    1.363   .     A
C390   C392    1.406   .     A
C390   H399    1.081   .     S
C390   N421    1.364   .     A
C391   H400    1.081   .     S
C391   N422    1.363   .     A
C392   H401    1.081   .     S
Cu393  O423    1.957   .     S
Cu393  Cu394   2.674   .     S
Cu393  O431    1.959   .     S
Cu393  O427    1.959   .     S
Cu393  O428    1.956   .     S
Cu393  N422    2.008   .     S
Cu394  O430    1.959   .     S
Cu394  O426    1.959   .     S
Cu394  O429    1.956   .     S
Cu394  O425    1.957   .     S
Cu394  N421    2.008   .     S
H395   C223    1.087   1_655 S
C433   C446    1.453   .     S
C433   O495    1.291   .     A
C433   O498    1.289   .     A
C434   C436    1.412   .     A
C434   H474    1.081   .     S
C434   C463    1.407   .     A
C435   C455    1.411   .     A
C435   C464    1.411   .     A
C436   C459    1.411   .     A
C436   C3      1.517   1_556 S
C437   O502    1.287   .     A
C437   C439    1.434   .     S
C437   O500    1.284   .     A
C438   O501    1.284   .     A
C438   O503    1.287   .     A
C438   C440    1.434   .     S
C439   C584    1.335   1_455 S
C439   H611    1.087   1_455 S
C440   C511    1.335   .     S
C440   H550    1.087   .     S
C441   C452    1.404   .     A
C441   C443    1.388   .     A
C441   H486    1.083   .     S
C442   C445    1.389   .     A
C442   H487    1.083   .     S
C442   C453    1.402   .     A
C443   C446    1.398   .     A
C443   H488    1.084   .     S
C444   O497    1.296   .     A
C444   C447    1.469   .     S
C444   O499    1.293   .     A
C445   C447    1.404   .     A
C445   H489    1.083   .     S
C446   C448    1.406   .     A
C447   C449    1.413   .     A
C448   O504    1.384   .     S
C448   C450    1.398   .     A
C449   O496    1.383   .     S
C449   C451    1.396   .     A
C450   C452    1.404   .     A
C450   H490    1.083   .     S
C451   H491    1.083   .     S
C451   C453    1.402   .     A
C452   C669    1.472   1_545 S
C453   C668    1.472   .     S
C454   H475    1.116   .     S
C454   O504    1.412   .     S
C454   C456    1.521   .     S
C454   H476    1.113   .     S
C455   C460    1.407   .     A
C455   H492    1.081   .     S
C456   H477    1.111   .     S
C456   H480    1.110   .     S
C456   H479    1.111   .     S
C457   H481    1.116   .     S
C457   C458    1.521   .     S
C457   H482    1.113   .     S
C457   O496    1.413   .     S
C458   H484    1.110   .     S
C458   H485    1.110   .     S
C458   H483    1.111   .     S
C459   H468    1.081   .     S
C459   C461    1.407   .     A
C460   N493    1.363   .     A
C460   H469    1.081   .     S
C461   H470    1.081   .     S
C461   N494    1.363   .     A
C462   C464    1.406   .     A
C462   H471    1.081   .     S
C462   N493    1.364   .     A
C463   H472    1.081   .     S
C463   N494    1.363   .     A
C464   H473    1.081   .     S
Cu465  O495    1.957   .     S
Cu465  Cu466   2.674   .     S
Cu465  O503    1.959   .     S
Cu465  O499    1.959   .     S
Cu465  O500    1.956   .     S
Cu465  N494    2.008   .     S
Cu466  O502    1.959   .     S
Cu466  O498    1.959   .     S
Cu466  O501    1.956   .     S
Cu466  O497    1.957   .     S
Cu466  N493    2.008   .     S
H467   C511    1.087   .     S
H478   C584    1.087   1_455 S
C505   C518    1.453   .     S
C505   O567    1.291   .     A
C505   O570    1.289   .     A
C506   C508    1.412   .     A
C506   H546    1.081   .     S
C506   C535    1.407   .     A
C507   C527    1.411   .     A
C507   C536    1.411   .     A
C508   C531    1.411   .     A
C508   C75     1.517   1_556 S
C509   O574    1.287   .     A
C509   C511    1.434   .     S
C509   O572    1.284   .     A
C510   O573    1.284   .     A
C510   O575    1.287   .     A
C510   C512    1.434   .     S
C512   C583    1.335   .     S
C512   H622    1.087   .     S
C513   C524    1.404   .     A
C513   C515    1.388   .     A
C513   H558    1.083   .     S
C514   C517    1.389   .     A
C514   H559    1.083   .     S
C514   C525    1.402   .     A
C515   C518    1.398   .     A
C515   H560    1.084   .     S
C516   O569    1.296   .     A
C516   C519    1.469   .     S
C516   O571    1.293   .     A
C517   C519    1.404   .     A
C517   H561    1.083   .     S
C518   C520    1.406   .     A
C519   C521    1.413   .     A
C520   O576    1.384   .     S
C520   C522    1.398   .     A
C521   O568    1.383   .     S
C521   C523    1.396   .     A
C522   C524    1.404   .     A
C522   H562    1.083   .     S
C523   H563    1.083   .     S
C523   C525    1.402   .     A
C524   C741    1.472   1_545 S
C525   C740    1.472   .     S
C526   H547    1.116   .     S
C526   O576    1.412   .     S
C526   C528    1.521   .     S
C526   H548    1.113   .     S
C527   C532    1.407   .     A
C527   H564    1.081   .     S
C528   H549    1.111   .     S
C528   H552    1.110   .     S
C528   H551    1.111   .     S
C529   H553    1.116   .     S
C529   C530    1.521   .     S
C529   H554    1.113   .     S
C529   O568    1.413   .     S
C530   H556    1.110   .     S
C530   H557    1.110   .     S
C530   H555    1.111   .     S
C531   H540    1.081   .     S
C531   C533    1.407   .     A
C532   N565    1.363   .     A
C532   H541    1.081   .     S
C533   H542    1.081   .     S
C533   N566    1.363   .     A
C534   C536    1.406   .     A
C534   H543    1.081   .     S
C534   N565    1.364   .     A
C535   H544    1.081   .     S
C535   N566    1.363   .     A
C536   H545    1.081   .     S
Cu537  O567    1.957   .     S
Cu537  Cu538   2.674   .     S
Cu537  O575    1.959   .     S
Cu537  O571    1.959   .     S
Cu537  O572    1.956   .     S
Cu537  N566    2.008   .     S
Cu538  O574    1.959   .     S
Cu538  O570    1.959   .     S
Cu538  O573    1.956   .     S
Cu538  O569    1.957   .     S
Cu538  N565    2.008   .     S
H539   C583    1.087   .     S
C577   C590    1.453   .     S
C577   O639    1.291   .     A
C577   O642    1.289   .     A
C578   C580    1.412   .     A
C578   H618    1.081   .     S
C578   C607    1.407   .     A
C579   C599    1.411   .     A
C579   C608    1.411   .     A
C580   C603    1.411   .     A
C580   C147    1.517   1_556 S
C581   O646    1.287   .     A
C581   C583    1.434   .     S
C581   O644    1.284   .     A
C582   O645    1.284   .     A
C582   O647    1.287   .     A
C582   C584    1.434   .     S
C584   C439    1.335   1_655 S
C584   H478    1.087   1_655 S
C585   C596    1.404   .     A
C585   C587    1.388   .     A
C585   H630    1.083   .     S
C586   C589    1.389   .     A
C586   H631    1.083   .     S
C586   C597    1.402   .     A
C587   C590    1.398   .     A
C587   H632    1.084   .     S
C588   O641    1.296   .     A
C588   C591    1.469   .     S
C588   O643    1.293   .     A
C589   C591    1.404   .     A
C589   H633    1.083   .     S
C590   C592    1.406   .     A
C591   C593    1.413   .     A
C592   O648    1.384   .     S
C592   C594    1.398   .     A
C593   O640    1.383   .     S
C593   C595    1.396   .     A
C594   C596    1.404   .     A
C594   H634    1.083   .     S
C595   H635    1.083   .     S
C595   C597    1.402   .     A
C596   C813    1.472   1_545 S
C597   C812    1.472   .     S
C598   H619    1.116   .     S
C598   O648    1.412   .     S
C598   C600    1.521   .     S
C598   H620    1.113   .     S
C599   C604    1.407   .     A
C599   H636    1.081   .     S
C600   H621    1.111   .     S
C600   H624    1.110   .     S
C600   H623    1.111   .     S
C601   H625    1.116   .     S
C601   C602    1.521   .     S
C601   H626    1.113   .     S
C601   O640    1.413   .     S
C602   H628    1.110   .     S
C602   H629    1.110   .     S
C602   H627    1.111   .     S
C603   H612    1.081   .     S
C603   C605    1.407   .     A
C604   N637    1.363   .     A
C604   H613    1.081   .     S
C605   H614    1.081   .     S
C605   N638    1.363   .     A
C606   C608    1.406   .     A
C606   H615    1.081   .     S
C606   N637    1.364   .     A
C607   H616    1.081   .     S
C607   N638    1.363   .     A
C608   H617    1.081   .     S
Cu609  O639    1.957   .     S
Cu609  Cu610   2.674   .     S
Cu609  O647    1.959   .     S
Cu609  O643    1.959   .     S
Cu609  O644    1.956   .     S
Cu609  N638    2.008   .     S
Cu610  O646    1.959   .     S
Cu610  O642    1.959   .     S
Cu610  O645    1.956   .     S
Cu610  O641    1.957   .     S
Cu610  N637    2.008   .     S
H611   C439    1.087   1_655 S
C649   C662    1.453   .     S
C649   O711    1.291   .     A
C649   O714    1.289   .     A
C650   C652    1.412   .     A
C650   H690    1.081   .     S
C650   C679    1.407   .     A
C651   C671    1.411   .     A
C651   C680    1.411   .     A
C652   C675    1.411   .     A
C652   C219    1.517   1_556 S
C653   O718    1.287   .     A
C653   C655    1.434   .     S
C653   O716    1.284   .     A
C654   O717    1.284   .     A
C654   O719    1.287   .     A
C654   C656    1.434   .     S
C655   C800    1.335   1_455 S
C655   H827    1.087   1_455 S
C656   C727    1.335   .     S
C656   H766    1.087   .     S
C657   C668    1.404   .     A
C657   C659    1.388   .     A
C657   H702    1.083   .     S
C658   C661    1.389   .     A
C658   H703    1.083   .     S
C658   C669    1.402   .     A
C659   C662    1.398   .     A
C659   H704    1.084   .     S
C660   O713    1.296   .     A
C660   C663    1.469   .     S
C660   O715    1.293   .     A
C661   C663    1.404   .     A
C661   H705    1.083   .     S
C662   C664    1.406   .     A
C663   C665    1.413   .     A
C664   O720    1.384   .     S
C664   C666    1.398   .     A
C665   O712    1.383   .     S
C665   C667    1.396   .     A
C666   C668    1.404   .     A
C666   H706    1.083   .     S
C667   H707    1.083   .     S
C667   C669    1.402   .     A
C669   C452    1.472   1_565 S
C670   H691    1.116   .     S
C670   O720    1.412   .     S
C670   C672    1.521   .     S
C670   H692    1.113   .     S
C671   C676    1.407   .     A
C671   H708    1.081   .     S
C672   H693    1.111   .     S
C672   H696    1.110   .     S
C672   H695    1.111   .     S
C673   H697    1.116   .     S
C673   C674    1.521   .     S
C673   H698    1.113   .     S
C673   O712    1.413   .     S
C674   H700    1.110   .     S
C674   H701    1.110   .     S
C674   H699    1.111   .     S
C675   H684    1.081   .     S
C675   C677    1.407   .     A
C676   N709    1.363   .     A
C676   H685    1.081   .     S
C677   H686    1.081   .     S
C677   N710    1.363   .     A
C678   C680    1.406   .     A
C678   H687    1.081   .     S
C678   N709    1.364   .     A
C679   H688    1.081   .     S
C679   N710    1.363   .     A
C680   H689    1.081   .     S
Cu681  O711    1.957   .     S
Cu681  Cu682   2.674   .     S
Cu681  O719    1.959   .     S
Cu681  O715    1.959   .     S
Cu681  O716    1.956   .     S
Cu681  N710    2.008   .     S
Cu682  O718    1.959   .     S
Cu682  O714    1.959   .     S
Cu682  O717    1.956   .     S
Cu682  O713    1.957   .     S
Cu682  N709    2.008   .     S
H683   C727    1.087   .     S
H694   C800    1.087   1_455 S
C721   C734    1.453   .     S
C721   O783    1.291   .     A
C721   O786    1.289   .     A
C722   C724    1.412   .     A
C722   H762    1.081   .     S
C722   C751    1.407   .     A
C723   C743    1.411   .     A
C723   C752    1.411   .     A
C724   C747    1.411   .     A
C724   C291    1.517   1_556 S
C725   O790    1.287   .     A
C725   C727    1.434   .     S
C725   O788    1.284   .     A
C726   O789    1.284   .     A
C726   O791    1.287   .     A
C726   C728    1.434   .     S
C728   C799    1.335   .     S
C728   H838    1.087   .     S
C729   C740    1.404   .     A
C729   C731    1.388   .     A
C729   H774    1.083   .     S
C730   C733    1.389   .     A
C730   H775    1.083   .     S
C730   C741    1.402   .     A
C731   C734    1.398   .     A
C731   H776    1.084   .     S
C732   O785    1.296   .     A
C732   C735    1.469   .     S
C732   O787    1.293   .     A
C733   C735    1.404   .     A
C733   H777    1.083   .     S
C734   C736    1.406   .     A
C735   C737    1.413   .     A
C736   O792    1.384   .     S
C736   C738    1.398   .     A
C737   O784    1.383   .     S
C737   C739    1.396   .     A
C738   C740    1.404   .     A
C738   H778    1.083   .     S
C739   H779    1.083   .     S
C739   C741    1.402   .     A
C741   C524    1.472   1_565 S
C742   H763    1.116   .     S
C742   O792    1.412   .     S
C742   C744    1.521   .     S
C742   H764    1.113   .     S
C743   C748    1.407   .     A
C743   H780    1.081   .     S
C744   H765    1.111   .     S
C744   H768    1.110   .     S
C744   H767    1.111   .     S
C745   H769    1.116   .     S
C745   C746    1.521   .     S
C745   H770    1.113   .     S
C745   O784    1.413   .     S
C746   H772    1.110   .     S
C746   H773    1.110   .     S
C746   H771    1.111   .     S
C747   H756    1.081   .     S
C747   C749    1.407   .     A
C748   N781    1.363   .     A
C748   H757    1.081   .     S
C749   H758    1.081   .     S
C749   N782    1.363   .     A
C750   C752    1.406   .     A
C750   H759    1.081   .     S
C750   N781    1.364   .     A
C751   H760    1.081   .     S
C751   N782    1.363   .     A
C752   H761    1.081   .     S
Cu753  O783    1.957   .     S
Cu753  Cu754   2.674   .     S
Cu753  O791    1.959   .     S
Cu753  O787    1.959   .     S
Cu753  O788    1.956   .     S
Cu753  N782    2.008   .     S
Cu754  O790    1.959   .     S
Cu754  O786    1.959   .     S
Cu754  O789    1.956   .     S
Cu754  O785    1.957   .     S
Cu754  N781    2.008   .     S
H755   C799    1.087   .     S
C793   C806    1.453   .     S
C793   O855    1.291   .     A
C793   O858    1.289   .     A
C794   C796    1.412   .     A
C794   H834    1.081   .     S
C794   C823    1.407   .     A
C795   C815    1.411   .     A
C795   C824    1.411   .     A
C796   C819    1.411   .     A
C796   C363    1.517   1_556 S
C797   O862    1.287   .     A
C797   C799    1.434   .     S
C797   O860    1.284   .     A
C798   O861    1.284   .     A
C798   O863    1.287   .     A
C798   C800    1.434   .     S
C800   C655    1.335   1_655 S
C800   H694    1.087   1_655 S
C801   C812    1.404   .     A
C801   C803    1.388   .     A
C801   H846    1.083   .     S
C802   C805    1.389   .     A
C802   H847    1.083   .     S
C802   C813    1.402   .     A
C803   C806    1.398   .     A
C803   H848    1.084   .     S
C804   O857    1.296   .     A
C804   C807    1.469   .     S
C804   O859    1.293   .     A
C805   C807    1.404   .     A
C805   H849    1.083   .     S
C806   C808    1.406   .     A
C807   C809    1.413   .     A
C808   O864    1.384   .     S
C808   C810    1.398   .     A
C809   O856    1.383   .     S
C809   C811    1.396   .     A
C810   C812    1.404   .     A
C810   H850    1.083   .     S
C811   H851    1.083   .     S
C811   C813    1.402   .     A
C813   C596    1.472   1_565 S
C814   H835    1.116   .     S
C814   O864    1.412   .     S
C814   C816    1.521   .     S
C814   H836    1.113   .     S
C815   C820    1.407   .     A
C815   H852    1.081   .     S
C816   H837    1.111   .     S
C816   H840    1.110   .     S
C816   H839    1.111   .     S
C817   H841    1.116   .     S
C817   C818    1.521   .     S
C817   H842    1.113   .     S
C817   O856    1.413   .     S
C818   H844    1.110   .     S
C818   H845    1.110   .     S
C818   H843    1.111   .     S
C819   H828    1.081   .     S
C819   C821    1.407   .     A
C820   N853    1.363   .     A
C820   H829    1.081   .     S
C821   H830    1.081   .     S
C821   N854    1.363   .     A
C822   C824    1.406   .     A
C822   H831    1.081   .     S
C822   N853    1.364   .     A
C823   H832    1.081   .     S
C823   N854    1.363   .     A
C824   H833    1.081   .     S
Cu825  O855    1.957   .     S
Cu825  Cu826   2.674   .     S
Cu825  O863    1.959   .     S
Cu825  O859    1.959   .     S
Cu825  O860    1.956   .     S
Cu825  N854    2.008   .     S
Cu826  O862    1.959   .     S
Cu826  O858    1.959   .     S
Cu826  O861    1.956   .     S
Cu826  O857    1.957   .     S
Cu826  N853    2.008   .     S
H827   C655    1.087   1_655 S
