data_str_m2_o2_o10_pcu_sym.218
_audit_creation_date              2020-01-03
_audit_creation_method            'Materials Studio'
_symmetry_space_group_name_H-M    'P1'
_symmetry_Int_Tables_number       1
_symmetry_cell_setting            triclinic
loop_
_symmetry_equiv_pos_as_xyz
  x,y,z
_cell_length_a                    26.4800
_cell_length_b                    30.2264
_cell_length_c                    27.7440
_cell_angle_alpha                 90.5628
_cell_angle_beta                  96.6599
_cell_angle_gamma                 88.6740
loop_
_atom_site_label
_atom_site_type_symbol
_atom_site_fract_x
_atom_site_fract_y
_atom_site_fract_z
_atom_site_U_iso_or_equiv
_atom_site_adp_type
_atom_site_occupancy
C1     C     0.16982   0.16503   0.24990   0.00000  Uiso   1.00
C2     C     0.16310   0.33514   0.24992   0.00000  Uiso   1.00
C3     C     0.19510   0.28065   0.05774   0.00000  Uiso   1.00
C4     C     0.14989   0.21345   0.44375   0.00000  Uiso   1.00
C5     C     0.19368   0.28057   0.10814   0.00000  Uiso   1.00
C6     C     0.14960   0.21430   0.39314   0.00000  Uiso   1.00
C7     C     0.13823   0.22037   0.10139   0.00000  Uiso   1.00
C8     C     0.18516   0.28518   0.39762   0.00000  Uiso   1.00
C9     C     0.13703   0.22028   0.05062   0.00000  Uiso   1.00
C10    C     0.18445   0.28640   0.44814   0.00000  Uiso   1.00
C11    C     0.16638   0.25029   0.02743   0.00000  Uiso   1.00
C12    C     0.16679   0.25012   0.47268   0.00000  Uiso   1.00
C13    C     0.06825   0.25035   0.23834   0.00000  Uiso   1.00
C14    C     0.26514   0.24945   0.26205   0.00000  Uiso   1.00
C15    C     0.01434   0.25844   0.23398   0.00000  Uiso   1.00
C16    C     0.31950   0.24347   0.26839   0.00000  Uiso   1.00
C17    C     0.12255   0.05042   0.25231   0.00000  Uiso   1.00
C18    C     0.17676   0.45250   0.21293   0.00000  Uiso   1.00
C19    C     0.12480   0.09608   0.25292   0.00000  Uiso   1.00
C20    C     0.17700   0.40675   0.21271   0.00000  Uiso   1.00
C21    C     0.17062   0.11672   0.24859   0.00000  Uiso   1.00
C22    C     0.15821   0.38381   0.25015   0.00000  Uiso   1.00
C23    C     0.21524   0.09102   0.24289   0.00000  Uiso   1.00
C24    C     0.13626   0.40786   0.28719   0.00000  Uiso   1.00
C25    C     0.21453   0.04470   0.25088   0.00000  Uiso   1.00
C26    C     0.14413   0.45399   0.29164   0.00000  Uiso   1.00
C27    C     0.16704   0.02458   0.25256   0.00000  Uiso   1.00
C28    C     0.16251   0.47625   0.25284   0.00000  Uiso   1.00
Cu29   Cu    0.16667   0.24999   0.29822   0.00000  Uiso   1.00
Cu30   Cu    0.16667   0.25000   0.20179   0.00000  Uiso   1.00
H31    H     0.08607   0.03506   0.25299   0.00000  Uiso   1.00
H32    H     0.19021   0.46953   0.18284   0.00000  Uiso   1.00
H33    H     0.09022   0.11547   0.25520   0.00000  Uiso   1.00
H34    H     0.19210   0.38926   0.18306   0.00000  Uiso   1.00
H35    H     0.21915   0.30439   0.04340   0.00000  Uiso   1.00
H36    H     0.13737   0.18371   0.45953   0.00000  Uiso   1.00
H37    H     0.21454   0.30506   0.13037   0.00000  Uiso   1.00
H38    H     0.13585   0.18594   0.37204   0.00000  Uiso   1.00
H39    H     0.11575   0.19694   0.11842   0.00000  Uiso   1.00
H40    H     0.20034   0.31283   0.38001   0.00000  Uiso   1.00
H41    H     0.11252   0.19699   0.03021   0.00000  Uiso   1.00
H42    H     0.19742   0.31610   0.46713   0.00000  Uiso   1.00
N43    N     0.16667   0.25001   0.12935   0.00000  Uiso   1.00
N44    N     0.16667   0.24999   0.37066   0.00000  Uiso   1.00
O45    O     0.16667   0.18572   0.29072   0.00000  Uiso   1.00
O46    O     0.16666   0.31427   0.20929   0.00000  Uiso   1.00
O47    O     0.16667   0.18573   0.20928   0.00000  Uiso   1.00
O48    O     0.16666   0.31427   0.29072   0.00000  Uiso   1.00
O49    O     0.09161   0.24999   0.28132   0.00000  Uiso   1.00
O50    O     0.24172   0.25000   0.21868   0.00000  Uiso   1.00
O51    O     0.09161   0.25000   0.19989   0.00000  Uiso   1.00
O52    O     0.24172   0.25000   0.30012   0.00000  Uiso   1.00
S53    S     0.32482   0.29615   0.18684   0.00000  Uiso   1.00
O54    O     0.30439   0.26987   0.14293   0.00000  Uiso   1.00
O55    O     0.28414   0.32679   0.20249   0.00000  Uiso   1.00
O56    O     0.03949   0.32704   0.17225   0.00000  Uiso   1.00
H57    H     0.02448   0.34527   0.14451   0.00000  Uiso   1.00
S58    S     0.01129   0.21370   0.32216   0.00000  Uiso   1.00
O59    O     0.04992   0.17914   0.31066   0.00000  Uiso   1.00
O60    O     0.03638   0.24596   0.35847   0.00000  Uiso   1.00
O61    O     0.29847   0.18798   0.34742   0.00000  Uiso   1.00
H62    H     0.29325   0.20533   0.37698   0.00000  Uiso   1.00
S63    S     0.27017   0.11557   0.22370   0.00000  Uiso   1.00
O64    O     0.30437   0.12906   0.26790   0.00000  Uiso   1.00
O65    O     0.29869   0.08307   0.19502   0.00000  Uiso   1.00
O66    O     0.25617   0.16023   0.18878   0.00000  Uiso   1.00
H67    H     0.23949   0.14845   0.15763   0.00000  Uiso   1.00
S68    S     0.09149   0.38254   0.32088   0.00000  Uiso   1.00
O69    O     0.11819   0.36385   0.36714   0.00000  Uiso   1.00
O70    O     0.05164   0.41576   0.33287   0.00000  Uiso   1.00
O71    O     0.06201   0.34179   0.28803   0.00000  Uiso   1.00
H72    H     0.03539   0.33192   0.30757   0.00000  Uiso   1.00
S73    S     0.27196   0.01223   0.26337   0.00000  Uiso   1.00
O74    O     0.28731   0.49399   0.21646   0.00000  Uiso   1.00
O75    O     0.31426   0.03954   0.28794   0.00000  Uiso   1.00
O76    O     0.26328   0.46990   0.30031   0.00000  Uiso   1.00
H77    H     0.28719   0.44615   0.29189   0.00000  Uiso   1.00
S78    S     0.13641   0.48308   0.34681   0.00000  Uiso   1.00
O79    O     0.08384   0.00351   0.34343   0.00000  Uiso   1.00
O80    O     0.14395   0.45232   0.38938   0.00000  Uiso   1.00
O81    O     0.17929   0.02338   0.35642   0.00000  Uiso   1.00
H82    H     0.16733   0.04215   0.38246   0.00000  Uiso   1.00
C83    C     0.50315   0.16503   0.24990   0.00000  Uiso   1.00
C84    C     0.49644   0.33514   0.24992   0.00000  Uiso   1.00
C85    C     0.52843   0.28065   0.05774   0.00000  Uiso   1.00
C86    C     0.48323   0.21345   0.44375   0.00000  Uiso   1.00
C87    C     0.52701   0.28057   0.10814   0.00000  Uiso   1.00
C88    C     0.48294   0.21430   0.39314   0.00000  Uiso   1.00
C89    C     0.47157   0.22037   0.10139   0.00000  Uiso   1.00
C90    C     0.51849   0.28518   0.39762   0.00000  Uiso   1.00
C91    C     0.47036   0.22028   0.05062   0.00000  Uiso   1.00
C92    C     0.51779   0.28640   0.44814   0.00000  Uiso   1.00
C93    C     0.49971   0.25029   0.02743   0.00000  Uiso   1.00
C94    C     0.50012   0.25012   0.47268   0.00000  Uiso   1.00
C95    C     0.40158   0.25035   0.23834   0.00000  Uiso   1.00
C96    C     0.59847   0.24945   0.26205   0.00000  Uiso   1.00
C97    C     0.34767   0.25844   0.23398   0.00000  Uiso   1.00
C98    C     0.65284   0.24347   0.26839   0.00000  Uiso   1.00
C99    C     0.45588   0.05042   0.25231   0.00000  Uiso   1.00
C100   C     0.51010   0.45250   0.21293   0.00000  Uiso   1.00
C101   C     0.45813   0.09608   0.25292   0.00000  Uiso   1.00
C102   C     0.51034   0.40675   0.21271   0.00000  Uiso   1.00
C103   C     0.50395   0.11672   0.24859   0.00000  Uiso   1.00
C104   C     0.49154   0.38381   0.25015   0.00000  Uiso   1.00
C105   C     0.54857   0.09102   0.24289   0.00000  Uiso   1.00
C106   C     0.46960   0.40786   0.28719   0.00000  Uiso   1.00
C107   C     0.54787   0.04470   0.25088   0.00000  Uiso   1.00
C108   C     0.47746   0.45399   0.29164   0.00000  Uiso   1.00
C109   C     0.50037   0.02458   0.25256   0.00000  Uiso   1.00
C110   C     0.49585   0.47625   0.25284   0.00000  Uiso   1.00
Cu111  Cu    0.50000   0.24999   0.29822   0.00000  Uiso   1.00
Cu112  Cu    0.50000   0.25000   0.20179   0.00000  Uiso   1.00
H113   H     0.41940   0.03506   0.25299   0.00000  Uiso   1.00
H114   H     0.52354   0.46953   0.18284   0.00000  Uiso   1.00
H115   H     0.42355   0.11547   0.25520   0.00000  Uiso   1.00
H116   H     0.52543   0.38926   0.18306   0.00000  Uiso   1.00
H117   H     0.55248   0.30439   0.04340   0.00000  Uiso   1.00
H118   H     0.47070   0.18371   0.45953   0.00000  Uiso   1.00
H119   H     0.54788   0.30506   0.13037   0.00000  Uiso   1.00
H120   H     0.46918   0.18594   0.37204   0.00000  Uiso   1.00
H121   H     0.44909   0.19694   0.11842   0.00000  Uiso   1.00
H122   H     0.53367   0.31283   0.38001   0.00000  Uiso   1.00
H123   H     0.44585   0.19699   0.03021   0.00000  Uiso   1.00
H124   H     0.53075   0.31610   0.46713   0.00000  Uiso   1.00
N125   N     0.50000   0.25001   0.12935   0.00000  Uiso   1.00
N126   N     0.50000   0.24999   0.37066   0.00000  Uiso   1.00
O127   O     0.50000   0.18572   0.29072   0.00000  Uiso   1.00
O128   O     0.50000   0.31427   0.20929   0.00000  Uiso   1.00
O129   O     0.50000   0.18573   0.20928   0.00000  Uiso   1.00
O130   O     0.50000   0.31427   0.29072   0.00000  Uiso   1.00
O131   O     0.42495   0.24999   0.28132   0.00000  Uiso   1.00
O132   O     0.57505   0.25000   0.21868   0.00000  Uiso   1.00
O133   O     0.42495   0.25000   0.19989   0.00000  Uiso   1.00
O134   O     0.57505   0.25000   0.30012   0.00000  Uiso   1.00
S135   S     0.65815   0.29615   0.18684   0.00000  Uiso   1.00
O136   O     0.63772   0.26987   0.14293   0.00000  Uiso   1.00
O137   O     0.61748   0.32679   0.20249   0.00000  Uiso   1.00
O138   O     0.37283   0.32704   0.17225   0.00000  Uiso   1.00
H139   H     0.35782   0.34527   0.14451   0.00000  Uiso   1.00
S140   S     0.34462   0.21370   0.32216   0.00000  Uiso   1.00
O141   O     0.38326   0.17914   0.31066   0.00000  Uiso   1.00
O142   O     0.36971   0.24596   0.35847   0.00000  Uiso   1.00
O143   O     0.63180   0.18798   0.34742   0.00000  Uiso   1.00
H144   H     0.62659   0.20533   0.37698   0.00000  Uiso   1.00
S145   S     0.60351   0.11557   0.22370   0.00000  Uiso   1.00
O146   O     0.63770   0.12906   0.26790   0.00000  Uiso   1.00
O147   O     0.63202   0.08307   0.19502   0.00000  Uiso   1.00
O148   O     0.58951   0.16023   0.18878   0.00000  Uiso   1.00
H149   H     0.57282   0.14845   0.15763   0.00000  Uiso   1.00
S150   S     0.42482   0.38254   0.32088   0.00000  Uiso   1.00
O151   O     0.45152   0.36385   0.36714   0.00000  Uiso   1.00
O152   O     0.38498   0.41576   0.33287   0.00000  Uiso   1.00
O153   O     0.39535   0.34179   0.28803   0.00000  Uiso   1.00
H154   H     0.36873   0.33192   0.30757   0.00000  Uiso   1.00
S155   S     0.60530   0.01223   0.26337   0.00000  Uiso   1.00
O156   O     0.62065   0.49399   0.21646   0.00000  Uiso   1.00
O157   O     0.64760   0.03954   0.28794   0.00000  Uiso   1.00
O158   O     0.59661   0.46990   0.30031   0.00000  Uiso   1.00
H159   H     0.62052   0.44615   0.29189   0.00000  Uiso   1.00
S160   S     0.46975   0.48308   0.34681   0.00000  Uiso   1.00
O161   O     0.41717   0.00351   0.34343   0.00000  Uiso   1.00
O162   O     0.47729   0.45232   0.38938   0.00000  Uiso   1.00
O163   O     0.51262   0.02338   0.35642   0.00000  Uiso   1.00
H164   H     0.50067   0.04215   0.38246   0.00000  Uiso   1.00
C165   C     0.83648   0.16503   0.24990   0.00000  Uiso   1.00
C166   C     0.82977   0.33514   0.24992   0.00000  Uiso   1.00
C167   C     0.86176   0.28065   0.05774   0.00000  Uiso   1.00
C168   C     0.81656   0.21345   0.44375   0.00000  Uiso   1.00
C169   C     0.86034   0.28057   0.10814   0.00000  Uiso   1.00
C170   C     0.81627   0.21430   0.39314   0.00000  Uiso   1.00
C171   C     0.80490   0.22037   0.10139   0.00000  Uiso   1.00
C172   C     0.85183   0.28518   0.39762   0.00000  Uiso   1.00
C173   C     0.80369   0.22028   0.05062   0.00000  Uiso   1.00
C174   C     0.85112   0.28640   0.44814   0.00000  Uiso   1.00
C175   C     0.83304   0.25029   0.02743   0.00000  Uiso   1.00
C176   C     0.83345   0.25012   0.47268   0.00000  Uiso   1.00
C177   C     0.73492   0.25035   0.23834   0.00000  Uiso   1.00
C178   C     0.93181   0.24945   0.26205   0.00000  Uiso   1.00
C179   C     0.68101   0.25844   0.23398   0.00000  Uiso   1.00
C180   C     0.98617   0.24347   0.26839   0.00000  Uiso   1.00
C181   C     0.78921   0.05042   0.25231   0.00000  Uiso   1.00
C182   C     0.84343   0.45250   0.21293   0.00000  Uiso   1.00
C183   C     0.79147   0.09608   0.25292   0.00000  Uiso   1.00
C184   C     0.84367   0.40675   0.21271   0.00000  Uiso   1.00
C185   C     0.83729   0.11672   0.24859   0.00000  Uiso   1.00
C186   C     0.82487   0.38381   0.25015   0.00000  Uiso   1.00
C187   C     0.88191   0.09102   0.24289   0.00000  Uiso   1.00
C188   C     0.80293   0.40786   0.28719   0.00000  Uiso   1.00
C189   C     0.88120   0.04470   0.25088   0.00000  Uiso   1.00
C190   C     0.81079   0.45399   0.29164   0.00000  Uiso   1.00
C191   C     0.83370   0.02458   0.25256   0.00000  Uiso   1.00
C192   C     0.82918   0.47625   0.25284   0.00000  Uiso   1.00
Cu193  Cu    0.83333   0.24999   0.29822   0.00000  Uiso   1.00
Cu194  Cu    0.83333   0.25000   0.20179   0.00000  Uiso   1.00
H195   H     0.75274   0.03506   0.25299   0.00000  Uiso   1.00
H196   H     0.85687   0.46953   0.18284   0.00000  Uiso   1.00
H197   H     0.75689   0.11547   0.25520   0.00000  Uiso   1.00
H198   H     0.85877   0.38926   0.18306   0.00000  Uiso   1.00
H199   H     0.88581   0.30439   0.04340   0.00000  Uiso   1.00
H200   H     0.80403   0.18371   0.45953   0.00000  Uiso   1.00
H201   H     0.88121   0.30506   0.13037   0.00000  Uiso   1.00
H202   H     0.80251   0.18594   0.37204   0.00000  Uiso   1.00
H203   H     0.78242   0.19694   0.11842   0.00000  Uiso   1.00
H204   H     0.86700   0.31283   0.38001   0.00000  Uiso   1.00
H205   H     0.77918   0.19699   0.03021   0.00000  Uiso   1.00
H206   H     0.86409   0.31610   0.46713   0.00000  Uiso   1.00
N207   N     0.83333   0.25001   0.12935   0.00000  Uiso   1.00
N208   N     0.83333   0.24999   0.37066   0.00000  Uiso   1.00
O209   O     0.83334   0.18572   0.29072   0.00000  Uiso   1.00
O210   O     0.83333   0.31427   0.20929   0.00000  Uiso   1.00
O211   O     0.83334   0.18573   0.20928   0.00000  Uiso   1.00
O212   O     0.83333   0.31427   0.29072   0.00000  Uiso   1.00
O213   O     0.75828   0.24999   0.28132   0.00000  Uiso   1.00
O214   O     0.90839   0.25000   0.21868   0.00000  Uiso   1.00
O215   O     0.75828   0.25000   0.19989   0.00000  Uiso   1.00
O216   O     0.90839   0.25000   0.30012   0.00000  Uiso   1.00
S217   S     0.99149   0.29615   0.18684   0.00000  Uiso   1.00
O218   O     0.97105   0.26987   0.14293   0.00000  Uiso   1.00
O219   O     0.95081   0.32679   0.20249   0.00000  Uiso   1.00
O220   O     0.70616   0.32704   0.17225   0.00000  Uiso   1.00
H221   H     0.69115   0.34527   0.14451   0.00000  Uiso   1.00
S222   S     0.67796   0.21370   0.32216   0.00000  Uiso   1.00
O223   O     0.71659   0.17914   0.31066   0.00000  Uiso   1.00
O224   O     0.70304   0.24596   0.35847   0.00000  Uiso   1.00
O225   O     0.96514   0.18798   0.34742   0.00000  Uiso   1.00
H226   H     0.95992   0.20533   0.37698   0.00000  Uiso   1.00
S227   S     0.93684   0.11557   0.22370   0.00000  Uiso   1.00
O228   O     0.97104   0.12906   0.26790   0.00000  Uiso   1.00
O229   O     0.96536   0.08307   0.19502   0.00000  Uiso   1.00
O230   O     0.92284   0.16023   0.18878   0.00000  Uiso   1.00
H231   H     0.90615   0.14845   0.15763   0.00000  Uiso   1.00
S232   S     0.75815   0.38254   0.32088   0.00000  Uiso   1.00
O233   O     0.78486   0.36385   0.36714   0.00000  Uiso   1.00
O234   O     0.71831   0.41576   0.33287   0.00000  Uiso   1.00
O235   O     0.72868   0.34179   0.28803   0.00000  Uiso   1.00
H236   H     0.70206   0.33192   0.30757   0.00000  Uiso   1.00
S237   S     0.93863   0.01223   0.26337   0.00000  Uiso   1.00
O238   O     0.95398   0.49399   0.21646   0.00000  Uiso   1.00
O239   O     0.98093   0.03954   0.28794   0.00000  Uiso   1.00
O240   O     0.92994   0.46990   0.30031   0.00000  Uiso   1.00
H241   H     0.95385   0.44615   0.29189   0.00000  Uiso   1.00
S242   S     0.80308   0.48308   0.34681   0.00000  Uiso   1.00
O243   O     0.75051   0.00351   0.34343   0.00000  Uiso   1.00
O244   O     0.81062   0.45232   0.38938   0.00000  Uiso   1.00
O245   O     0.84596   0.02338   0.35642   0.00000  Uiso   1.00
H246   H     0.83400   0.04215   0.38246   0.00000  Uiso   1.00
C247   C     0.16982   0.66503   0.24990   0.00000  Uiso   1.00
C248   C     0.16310   0.83514   0.24992   0.00000  Uiso   1.00
C249   C     0.19510   0.78065   0.05774   0.00000  Uiso   1.00
C250   C     0.14989   0.71345   0.44375   0.00000  Uiso   1.00
C251   C     0.19368   0.78057   0.10814   0.00000  Uiso   1.00
C252   C     0.14960   0.71430   0.39314   0.00000  Uiso   1.00
C253   C     0.13823   0.72037   0.10139   0.00000  Uiso   1.00
C254   C     0.18516   0.78518   0.39762   0.00000  Uiso   1.00
C255   C     0.13703   0.72028   0.05062   0.00000  Uiso   1.00
C256   C     0.18445   0.78640   0.44814   0.00000  Uiso   1.00
C257   C     0.16638   0.75029   0.02743   0.00000  Uiso   1.00
C258   C     0.16679   0.75012   0.47268   0.00000  Uiso   1.00
C259   C     0.06825   0.75035   0.23834   0.00000  Uiso   1.00
C260   C     0.26514   0.74945   0.26205   0.00000  Uiso   1.00
C261   C     0.01434   0.75844   0.23398   0.00000  Uiso   1.00
C262   C     0.31950   0.74347   0.26839   0.00000  Uiso   1.00
C263   C     0.12255   0.55042   0.25231   0.00000  Uiso   1.00
C264   C     0.17676   0.95250   0.21293   0.00000  Uiso   1.00
C265   C     0.12480   0.59608   0.25292   0.00000  Uiso   1.00
C266   C     0.17700   0.90675   0.21271   0.00000  Uiso   1.00
C267   C     0.17062   0.61672   0.24859   0.00000  Uiso   1.00
C268   C     0.15821   0.88381   0.25015   0.00000  Uiso   1.00
C269   C     0.21524   0.59102   0.24289   0.00000  Uiso   1.00
C270   C     0.13626   0.90786   0.28719   0.00000  Uiso   1.00
C271   C     0.21453   0.54470   0.25088   0.00000  Uiso   1.00
C272   C     0.14413   0.95399   0.29164   0.00000  Uiso   1.00
C273   C     0.16704   0.52458   0.25256   0.00000  Uiso   1.00
C274   C     0.16251   0.97625   0.25284   0.00000  Uiso   1.00
Cu275  Cu    0.16667   0.74999   0.29822   0.00000  Uiso   1.00
Cu276  Cu    0.16667   0.75000   0.20179   0.00000  Uiso   1.00
H277   H     0.08607   0.53506   0.25299   0.00000  Uiso   1.00
H278   H     0.19021   0.96953   0.18284   0.00000  Uiso   1.00
H279   H     0.09022   0.61547   0.25520   0.00000  Uiso   1.00
H280   H     0.19210   0.88926   0.18306   0.00000  Uiso   1.00
H281   H     0.21915   0.80439   0.04340   0.00000  Uiso   1.00
H282   H     0.13737   0.68371   0.45953   0.00000  Uiso   1.00
H283   H     0.21454   0.80506   0.13037   0.00000  Uiso   1.00
H284   H     0.13585   0.68594   0.37204   0.00000  Uiso   1.00
H285   H     0.11575   0.69694   0.11842   0.00000  Uiso   1.00
H286   H     0.20034   0.81283   0.38001   0.00000  Uiso   1.00
H287   H     0.11252   0.69699   0.03021   0.00000  Uiso   1.00
H288   H     0.19742   0.81610   0.46713   0.00000  Uiso   1.00
N289   N     0.16667   0.75001   0.12935   0.00000  Uiso   1.00
N290   N     0.16667   0.74999   0.37066   0.00000  Uiso   1.00
O291   O     0.16667   0.68572   0.29072   0.00000  Uiso   1.00
O292   O     0.16666   0.81427   0.20929   0.00000  Uiso   1.00
O293   O     0.16667   0.68573   0.20928   0.00000  Uiso   1.00
O294   O     0.16666   0.81427   0.29072   0.00000  Uiso   1.00
O295   O     0.09161   0.74999   0.28132   0.00000  Uiso   1.00
O296   O     0.24172   0.75000   0.21868   0.00000  Uiso   1.00
O297   O     0.09161   0.75000   0.19989   0.00000  Uiso   1.00
O298   O     0.24172   0.75000   0.30012   0.00000  Uiso   1.00
S299   S     0.32482   0.79615   0.18684   0.00000  Uiso   1.00
O300   O     0.30439   0.76987   0.14293   0.00000  Uiso   1.00
O301   O     0.28414   0.82679   0.20249   0.00000  Uiso   1.00
O302   O     0.03949   0.82704   0.17225   0.00000  Uiso   1.00
H303   H     0.02448   0.84527   0.14451   0.00000  Uiso   1.00
S304   S     0.01129   0.71370   0.32216   0.00000  Uiso   1.00
O305   O     0.04992   0.67914   0.31066   0.00000  Uiso   1.00
O306   O     0.03638   0.74596   0.35847   0.00000  Uiso   1.00
O307   O     0.29847   0.68798   0.34742   0.00000  Uiso   1.00
H308   H     0.29325   0.70533   0.37698   0.00000  Uiso   1.00
S309   S     0.27017   0.61557   0.22370   0.00000  Uiso   1.00
O310   O     0.30437   0.62906   0.26790   0.00000  Uiso   1.00
O311   O     0.29869   0.58307   0.19502   0.00000  Uiso   1.00
O312   O     0.25617   0.66023   0.18878   0.00000  Uiso   1.00
H313   H     0.23949   0.64845   0.15763   0.00000  Uiso   1.00
S314   S     0.09149   0.88254   0.32088   0.00000  Uiso   1.00
O315   O     0.11819   0.86385   0.36714   0.00000  Uiso   1.00
O316   O     0.05164   0.91576   0.33287   0.00000  Uiso   1.00
O317   O     0.06201   0.84179   0.28803   0.00000  Uiso   1.00
H318   H     0.03539   0.83192   0.30757   0.00000  Uiso   1.00
S319   S     0.27196   0.51223   0.26337   0.00000  Uiso   1.00
O320   O     0.28731   0.99399   0.21646   0.00000  Uiso   1.00
O321   O     0.31426   0.53954   0.28794   0.00000  Uiso   1.00
O322   O     0.26328   0.96990   0.30031   0.00000  Uiso   1.00
H323   H     0.28719   0.94615   0.29189   0.00000  Uiso   1.00
S324   S     0.13641   0.98308   0.34681   0.00000  Uiso   1.00
O325   O     0.08384   0.50351   0.34343   0.00000  Uiso   1.00
O326   O     0.14395   0.95232   0.38938   0.00000  Uiso   1.00
O327   O     0.17929   0.52338   0.35642   0.00000  Uiso   1.00
H328   H     0.16733   0.54215   0.38246   0.00000  Uiso   1.00
C329   C     0.50315   0.66503   0.24990   0.00000  Uiso   1.00
C330   C     0.49644   0.83514   0.24992   0.00000  Uiso   1.00
C331   C     0.52843   0.78065   0.05774   0.00000  Uiso   1.00
C332   C     0.48323   0.71345   0.44375   0.00000  Uiso   1.00
C333   C     0.52701   0.78057   0.10814   0.00000  Uiso   1.00
C334   C     0.48294   0.71430   0.39314   0.00000  Uiso   1.00
C335   C     0.47157   0.72037   0.10139   0.00000  Uiso   1.00
C336   C     0.51849   0.78518   0.39762   0.00000  Uiso   1.00
C337   C     0.47036   0.72028   0.05062   0.00000  Uiso   1.00
C338   C     0.51779   0.78640   0.44814   0.00000  Uiso   1.00
C339   C     0.49971   0.75029   0.02743   0.00000  Uiso   1.00
C340   C     0.50012   0.75012   0.47268   0.00000  Uiso   1.00
C341   C     0.40158   0.75035   0.23834   0.00000  Uiso   1.00
C342   C     0.59847   0.74945   0.26205   0.00000  Uiso   1.00
C343   C     0.34767   0.75844   0.23398   0.00000  Uiso   1.00
C344   C     0.65284   0.74347   0.26839   0.00000  Uiso   1.00
C345   C     0.45588   0.55042   0.25231   0.00000  Uiso   1.00
C346   C     0.51010   0.95250   0.21293   0.00000  Uiso   1.00
C347   C     0.45813   0.59608   0.25292   0.00000  Uiso   1.00
C348   C     0.51034   0.90675   0.21271   0.00000  Uiso   1.00
C349   C     0.50395   0.61672   0.24859   0.00000  Uiso   1.00
C350   C     0.49154   0.88381   0.25015   0.00000  Uiso   1.00
C351   C     0.54857   0.59102   0.24289   0.00000  Uiso   1.00
C352   C     0.46960   0.90786   0.28719   0.00000  Uiso   1.00
C353   C     0.54787   0.54470   0.25088   0.00000  Uiso   1.00
C354   C     0.47746   0.95399   0.29164   0.00000  Uiso   1.00
C355   C     0.50037   0.52458   0.25256   0.00000  Uiso   1.00
C356   C     0.49585   0.97625   0.25284   0.00000  Uiso   1.00
Cu357  Cu    0.50000   0.74999   0.29822   0.00000  Uiso   1.00
Cu358  Cu    0.50000   0.75000   0.20179   0.00000  Uiso   1.00
H359   H     0.41940   0.53506   0.25299   0.00000  Uiso   1.00
H360   H     0.52354   0.96953   0.18284   0.00000  Uiso   1.00
H361   H     0.42355   0.61547   0.25520   0.00000  Uiso   1.00
H362   H     0.52543   0.88926   0.18306   0.00000  Uiso   1.00
H363   H     0.55248   0.80439   0.04340   0.00000  Uiso   1.00
H364   H     0.47070   0.68371   0.45953   0.00000  Uiso   1.00
H365   H     0.54788   0.80506   0.13037   0.00000  Uiso   1.00
H366   H     0.46918   0.68594   0.37204   0.00000  Uiso   1.00
H367   H     0.44909   0.69694   0.11842   0.00000  Uiso   1.00
H368   H     0.53367   0.81283   0.38001   0.00000  Uiso   1.00
H369   H     0.44585   0.69699   0.03021   0.00000  Uiso   1.00
H370   H     0.53075   0.81610   0.46713   0.00000  Uiso   1.00
N371   N     0.50000   0.75001   0.12935   0.00000  Uiso   1.00
N372   N     0.50000   0.74999   0.37066   0.00000  Uiso   1.00
O373   O     0.50000   0.68572   0.29072   0.00000  Uiso   1.00
O374   O     0.50000   0.81427   0.20929   0.00000  Uiso   1.00
O375   O     0.50000   0.68573   0.20928   0.00000  Uiso   1.00
O376   O     0.50000   0.81427   0.29072   0.00000  Uiso   1.00
O377   O     0.42495   0.74999   0.28132   0.00000  Uiso   1.00
O378   O     0.57505   0.75000   0.21868   0.00000  Uiso   1.00
O379   O     0.42495   0.75000   0.19989   0.00000  Uiso   1.00
O380   O     0.57505   0.75000   0.30012   0.00000  Uiso   1.00
S381   S     0.65815   0.79615   0.18684   0.00000  Uiso   1.00
O382   O     0.63772   0.76987   0.14293   0.00000  Uiso   1.00
O383   O     0.61748   0.82679   0.20249   0.00000  Uiso   1.00
O384   O     0.37283   0.82704   0.17225   0.00000  Uiso   1.00
H385   H     0.35782   0.84527   0.14451   0.00000  Uiso   1.00
S386   S     0.34462   0.71370   0.32216   0.00000  Uiso   1.00
O387   O     0.38326   0.67914   0.31066   0.00000  Uiso   1.00
O388   O     0.36971   0.74596   0.35847   0.00000  Uiso   1.00
O389   O     0.63180   0.68798   0.34742   0.00000  Uiso   1.00
H390   H     0.62659   0.70533   0.37698   0.00000  Uiso   1.00
S391   S     0.60351   0.61557   0.22370   0.00000  Uiso   1.00
O392   O     0.63770   0.62906   0.26790   0.00000  Uiso   1.00
O393   O     0.63202   0.58307   0.19502   0.00000  Uiso   1.00
O394   O     0.58951   0.66023   0.18878   0.00000  Uiso   1.00
H395   H     0.57282   0.64845   0.15763   0.00000  Uiso   1.00
S396   S     0.42482   0.88254   0.32088   0.00000  Uiso   1.00
O397   O     0.45152   0.86385   0.36714   0.00000  Uiso   1.00
O398   O     0.38498   0.91576   0.33287   0.00000  Uiso   1.00
O399   O     0.39535   0.84179   0.28803   0.00000  Uiso   1.00
H400   H     0.36873   0.83192   0.30757   0.00000  Uiso   1.00
S401   S     0.60530   0.51223   0.26337   0.00000  Uiso   1.00
O402   O     0.62065   0.99399   0.21646   0.00000  Uiso   1.00
O403   O     0.64760   0.53954   0.28794   0.00000  Uiso   1.00
O404   O     0.59661   0.96990   0.30031   0.00000  Uiso   1.00
H405   H     0.62052   0.94615   0.29189   0.00000  Uiso   1.00
S406   S     0.46975   0.98308   0.34681   0.00000  Uiso   1.00
O407   O     0.41717   0.50351   0.34343   0.00000  Uiso   1.00
O408   O     0.47729   0.95232   0.38938   0.00000  Uiso   1.00
O409   O     0.51262   0.52338   0.35642   0.00000  Uiso   1.00
H410   H     0.50067   0.54215   0.38246   0.00000  Uiso   1.00
C411   C     0.83648   0.66503   0.24990   0.00000  Uiso   1.00
C412   C     0.82977   0.83514   0.24992   0.00000  Uiso   1.00
C413   C     0.86176   0.78065   0.05774   0.00000  Uiso   1.00
C414   C     0.81656   0.71345   0.44375   0.00000  Uiso   1.00
C415   C     0.86034   0.78057   0.10814   0.00000  Uiso   1.00
C416   C     0.81627   0.71430   0.39314   0.00000  Uiso   1.00
C417   C     0.80490   0.72037   0.10139   0.00000  Uiso   1.00
C418   C     0.85183   0.78518   0.39762   0.00000  Uiso   1.00
C419   C     0.80369   0.72028   0.05062   0.00000  Uiso   1.00
C420   C     0.85112   0.78640   0.44814   0.00000  Uiso   1.00
C421   C     0.83304   0.75029   0.02743   0.00000  Uiso   1.00
C422   C     0.83345   0.75012   0.47268   0.00000  Uiso   1.00
C423   C     0.73492   0.75035   0.23834   0.00000  Uiso   1.00
C424   C     0.93181   0.74945   0.26205   0.00000  Uiso   1.00
C425   C     0.68101   0.75844   0.23398   0.00000  Uiso   1.00
C426   C     0.98617   0.74347   0.26839   0.00000  Uiso   1.00
C427   C     0.78921   0.55042   0.25231   0.00000  Uiso   1.00
C428   C     0.84343   0.95250   0.21293   0.00000  Uiso   1.00
C429   C     0.79147   0.59608   0.25292   0.00000  Uiso   1.00
C430   C     0.84367   0.90675   0.21271   0.00000  Uiso   1.00
C431   C     0.83729   0.61672   0.24859   0.00000  Uiso   1.00
C432   C     0.82487   0.88381   0.25015   0.00000  Uiso   1.00
C433   C     0.88191   0.59102   0.24289   0.00000  Uiso   1.00
C434   C     0.80293   0.90786   0.28719   0.00000  Uiso   1.00
C435   C     0.88120   0.54470   0.25088   0.00000  Uiso   1.00
C436   C     0.81079   0.95399   0.29164   0.00000  Uiso   1.00
C437   C     0.83370   0.52458   0.25256   0.00000  Uiso   1.00
C438   C     0.82918   0.97625   0.25284   0.00000  Uiso   1.00
Cu439  Cu    0.83333   0.74999   0.29822   0.00000  Uiso   1.00
Cu440  Cu    0.83333   0.75000   0.20179   0.00000  Uiso   1.00
H441   H     0.75274   0.53506   0.25299   0.00000  Uiso   1.00
H442   H     0.85687   0.96953   0.18284   0.00000  Uiso   1.00
H443   H     0.75689   0.61547   0.25520   0.00000  Uiso   1.00
H444   H     0.85877   0.88926   0.18306   0.00000  Uiso   1.00
H445   H     0.88581   0.80439   0.04340   0.00000  Uiso   1.00
H446   H     0.80403   0.68371   0.45953   0.00000  Uiso   1.00
H447   H     0.88121   0.80506   0.13037   0.00000  Uiso   1.00
H448   H     0.80251   0.68594   0.37204   0.00000  Uiso   1.00
H449   H     0.78242   0.69694   0.11842   0.00000  Uiso   1.00
H450   H     0.86700   0.81283   0.38001   0.00000  Uiso   1.00
H451   H     0.77918   0.69699   0.03021   0.00000  Uiso   1.00
H452   H     0.86409   0.81610   0.46713   0.00000  Uiso   1.00
N453   N     0.83333   0.75001   0.12935   0.00000  Uiso   1.00
N454   N     0.83333   0.74999   0.37066   0.00000  Uiso   1.00
O455   O     0.83334   0.68572   0.29072   0.00000  Uiso   1.00
O456   O     0.83333   0.81427   0.20929   0.00000  Uiso   1.00
O457   O     0.83334   0.68573   0.20928   0.00000  Uiso   1.00
O458   O     0.83333   0.81427   0.29072   0.00000  Uiso   1.00
O459   O     0.75828   0.74999   0.28132   0.00000  Uiso   1.00
O460   O     0.90839   0.75000   0.21868   0.00000  Uiso   1.00
O461   O     0.75828   0.75000   0.19989   0.00000  Uiso   1.00
O462   O     0.90839   0.75000   0.30012   0.00000  Uiso   1.00
S463   S     0.99149   0.79615   0.18684   0.00000  Uiso   1.00
O464   O     0.97105   0.76987   0.14293   0.00000  Uiso   1.00
O465   O     0.95081   0.82679   0.20249   0.00000  Uiso   1.00
O466   O     0.70616   0.82704   0.17225   0.00000  Uiso   1.00
H467   H     0.69115   0.84527   0.14451   0.00000  Uiso   1.00
S468   S     0.67796   0.71370   0.32216   0.00000  Uiso   1.00
O469   O     0.71659   0.67914   0.31066   0.00000  Uiso   1.00
O470   O     0.70304   0.74596   0.35847   0.00000  Uiso   1.00
O471   O     0.96514   0.68798   0.34742   0.00000  Uiso   1.00
H472   H     0.95992   0.70533   0.37698   0.00000  Uiso   1.00
S473   S     0.93684   0.61557   0.22370   0.00000  Uiso   1.00
O474   O     0.97104   0.62906   0.26790   0.00000  Uiso   1.00
O475   O     0.96536   0.58307   0.19502   0.00000  Uiso   1.00
O476   O     0.92284   0.66023   0.18878   0.00000  Uiso   1.00
H477   H     0.90615   0.64845   0.15763   0.00000  Uiso   1.00
S478   S     0.75815   0.88254   0.32088   0.00000  Uiso   1.00
O479   O     0.78486   0.86385   0.36714   0.00000  Uiso   1.00
O480   O     0.71831   0.91576   0.33287   0.00000  Uiso   1.00
O481   O     0.72868   0.84179   0.28803   0.00000  Uiso   1.00
H482   H     0.70206   0.83192   0.30757   0.00000  Uiso   1.00
S483   S     0.93863   0.51223   0.26337   0.00000  Uiso   1.00
O484   O     0.95398   0.99399   0.21646   0.00000  Uiso   1.00
O485   O     0.98093   0.53954   0.28794   0.00000  Uiso   1.00
O486   O     0.92994   0.96990   0.30031   0.00000  Uiso   1.00
H487   H     0.95385   0.94615   0.29189   0.00000  Uiso   1.00
S488   S     0.80308   0.98308   0.34681   0.00000  Uiso   1.00
O489   O     0.75051   0.50351   0.34343   0.00000  Uiso   1.00
O490   O     0.81062   0.95232   0.38938   0.00000  Uiso   1.00
O491   O     0.84596   0.52338   0.35642   0.00000  Uiso   1.00
H492   H     0.83400   0.54215   0.38246   0.00000  Uiso   1.00
C493   C     0.16982   0.16503   0.74990   0.00000  Uiso   1.00
C494   C     0.16310   0.33514   0.74992   0.00000  Uiso   1.00
C495   C     0.19510   0.28065   0.55774   0.00000  Uiso   1.00
C496   C     0.14989   0.21345   0.94375   0.00000  Uiso   1.00
C497   C     0.19368   0.28057   0.60814   0.00000  Uiso   1.00
C498   C     0.14960   0.21430   0.89314   0.00000  Uiso   1.00
C499   C     0.13823   0.22037   0.60139   0.00000  Uiso   1.00
C500   C     0.18516   0.28518   0.89762   0.00000  Uiso   1.00
C501   C     0.13703   0.22028   0.55062   0.00000  Uiso   1.00
C502   C     0.18445   0.28640   0.94814   0.00000  Uiso   1.00
C503   C     0.16638   0.25029   0.52743   0.00000  Uiso   1.00
C504   C     0.16679   0.25012   0.97268   0.00000  Uiso   1.00
C505   C     0.06825   0.25035   0.73834   0.00000  Uiso   1.00
C506   C     0.26514   0.24945   0.76205   0.00000  Uiso   1.00
C507   C     0.01434   0.25844   0.73398   0.00000  Uiso   1.00
C508   C     0.31950   0.24347   0.76839   0.00000  Uiso   1.00
C509   C     0.12255   0.05042   0.75231   0.00000  Uiso   1.00
C510   C     0.17676   0.45250   0.71293   0.00000  Uiso   1.00
C511   C     0.12480   0.09608   0.75292   0.00000  Uiso   1.00
C512   C     0.17700   0.40675   0.71271   0.00000  Uiso   1.00
C513   C     0.17062   0.11672   0.74859   0.00000  Uiso   1.00
C514   C     0.15821   0.38381   0.75015   0.00000  Uiso   1.00
C515   C     0.21524   0.09102   0.74289   0.00000  Uiso   1.00
C516   C     0.13626   0.40786   0.78719   0.00000  Uiso   1.00
C517   C     0.21453   0.04470   0.75088   0.00000  Uiso   1.00
C518   C     0.14413   0.45399   0.79164   0.00000  Uiso   1.00
C519   C     0.16704   0.02458   0.75256   0.00000  Uiso   1.00
C520   C     0.16251   0.47625   0.75284   0.00000  Uiso   1.00
Cu521  Cu    0.16667   0.24999   0.79822   0.00000  Uiso   1.00
Cu522  Cu    0.16667   0.25000   0.70179   0.00000  Uiso   1.00
H523   H     0.08607   0.03506   0.75299   0.00000  Uiso   1.00
H524   H     0.19021   0.46953   0.68284   0.00000  Uiso   1.00
H525   H     0.09022   0.11547   0.75520   0.00000  Uiso   1.00
H526   H     0.19210   0.38926   0.68306   0.00000  Uiso   1.00
H527   H     0.21915   0.30439   0.54340   0.00000  Uiso   1.00
H528   H     0.13737   0.18371   0.95953   0.00000  Uiso   1.00
H529   H     0.21454   0.30506   0.63037   0.00000  Uiso   1.00
H530   H     0.13585   0.18594   0.87204   0.00000  Uiso   1.00
H531   H     0.11575   0.19694   0.61842   0.00000  Uiso   1.00
H532   H     0.20034   0.31283   0.88001   0.00000  Uiso   1.00
H533   H     0.11252   0.19699   0.53021   0.00000  Uiso   1.00
H534   H     0.19742   0.31610   0.96713   0.00000  Uiso   1.00
N535   N     0.16667   0.25001   0.62935   0.00000  Uiso   1.00
N536   N     0.16667   0.24999   0.87066   0.00000  Uiso   1.00
O537   O     0.16667   0.18572   0.79072   0.00000  Uiso   1.00
O538   O     0.16666   0.31427   0.70929   0.00000  Uiso   1.00
O539   O     0.16667   0.18573   0.70928   0.00000  Uiso   1.00
O540   O     0.16666   0.31427   0.79072   0.00000  Uiso   1.00
O541   O     0.09161   0.24999   0.78132   0.00000  Uiso   1.00
O542   O     0.24172   0.25000   0.71868   0.00000  Uiso   1.00
O543   O     0.09161   0.25000   0.69989   0.00000  Uiso   1.00
O544   O     0.24172   0.25000   0.80012   0.00000  Uiso   1.00
S545   S     0.32482   0.29615   0.68684   0.00000  Uiso   1.00
O546   O     0.30439   0.26987   0.64293   0.00000  Uiso   1.00
O547   O     0.28414   0.32679   0.70249   0.00000  Uiso   1.00
O548   O     0.03949   0.32704   0.67225   0.00000  Uiso   1.00
H549   H     0.02448   0.34527   0.64451   0.00000  Uiso   1.00
S550   S     0.01129   0.21370   0.82216   0.00000  Uiso   1.00
O551   O     0.04992   0.17914   0.81066   0.00000  Uiso   1.00
O552   O     0.03638   0.24596   0.85847   0.00000  Uiso   1.00
O553   O     0.29847   0.18798   0.84742   0.00000  Uiso   1.00
H554   H     0.29325   0.20533   0.87698   0.00000  Uiso   1.00
S555   S     0.27017   0.11557   0.72370   0.00000  Uiso   1.00
O556   O     0.30437   0.12906   0.76790   0.00000  Uiso   1.00
O557   O     0.29869   0.08307   0.69502   0.00000  Uiso   1.00
O558   O     0.25617   0.16023   0.68878   0.00000  Uiso   1.00
H559   H     0.23949   0.14845   0.65763   0.00000  Uiso   1.00
S560   S     0.09149   0.38254   0.82088   0.00000  Uiso   1.00
O561   O     0.11819   0.36385   0.86714   0.00000  Uiso   1.00
O562   O     0.05164   0.41576   0.83287   0.00000  Uiso   1.00
O563   O     0.06201   0.34179   0.78803   0.00000  Uiso   1.00
H564   H     0.03539   0.33192   0.80757   0.00000  Uiso   1.00
S565   S     0.27196   0.01223   0.76337   0.00000  Uiso   1.00
O566   O     0.28731   0.49399   0.71646   0.00000  Uiso   1.00
O567   O     0.31426   0.03954   0.78794   0.00000  Uiso   1.00
O568   O     0.26328   0.46990   0.80031   0.00000  Uiso   1.00
H569   H     0.28719   0.44615   0.79189   0.00000  Uiso   1.00
S570   S     0.13641   0.48308   0.84681   0.00000  Uiso   1.00
O571   O     0.08384   0.00351   0.84343   0.00000  Uiso   1.00
O572   O     0.14395   0.45232   0.88938   0.00000  Uiso   1.00
O573   O     0.17929   0.02338   0.85642   0.00000  Uiso   1.00
H574   H     0.16733   0.04215   0.88246   0.00000  Uiso   1.00
C575   C     0.50315   0.16503   0.74990   0.00000  Uiso   1.00
C576   C     0.49644   0.33514   0.74992   0.00000  Uiso   1.00
C577   C     0.52843   0.28065   0.55774   0.00000  Uiso   1.00
C578   C     0.48323   0.21345   0.94375   0.00000  Uiso   1.00
C579   C     0.52701   0.28057   0.60814   0.00000  Uiso   1.00
C580   C     0.48294   0.21430   0.89314   0.00000  Uiso   1.00
C581   C     0.47157   0.22037   0.60139   0.00000  Uiso   1.00
C582   C     0.51849   0.28518   0.89762   0.00000  Uiso   1.00
C583   C     0.47036   0.22028   0.55062   0.00000  Uiso   1.00
C584   C     0.51779   0.28640   0.94814   0.00000  Uiso   1.00
C585   C     0.49971   0.25029   0.52743   0.00000  Uiso   1.00
C586   C     0.50012   0.25012   0.97268   0.00000  Uiso   1.00
C587   C     0.40158   0.25035   0.73834   0.00000  Uiso   1.00
C588   C     0.59847   0.24945   0.76205   0.00000  Uiso   1.00
C589   C     0.34767   0.25844   0.73398   0.00000  Uiso   1.00
C590   C     0.65284   0.24347   0.76839   0.00000  Uiso   1.00
C591   C     0.45588   0.05042   0.75231   0.00000  Uiso   1.00
C592   C     0.51010   0.45250   0.71293   0.00000  Uiso   1.00
C593   C     0.45813   0.09608   0.75292   0.00000  Uiso   1.00
C594   C     0.51034   0.40675   0.71271   0.00000  Uiso   1.00
C595   C     0.50395   0.11672   0.74859   0.00000  Uiso   1.00
C596   C     0.49154   0.38381   0.75015   0.00000  Uiso   1.00
C597   C     0.54857   0.09102   0.74289   0.00000  Uiso   1.00
C598   C     0.46960   0.40786   0.78719   0.00000  Uiso   1.00
C599   C     0.54787   0.04470   0.75088   0.00000  Uiso   1.00
C600   C     0.47746   0.45399   0.79164   0.00000  Uiso   1.00
C601   C     0.50037   0.02458   0.75256   0.00000  Uiso   1.00
C602   C     0.49585   0.47625   0.75284   0.00000  Uiso   1.00
Cu603  Cu    0.50000   0.24999   0.79822   0.00000  Uiso   1.00
Cu604  Cu    0.50000   0.25000   0.70179   0.00000  Uiso   1.00
H605   H     0.41940   0.03506   0.75299   0.00000  Uiso   1.00
H606   H     0.52354   0.46953   0.68284   0.00000  Uiso   1.00
H607   H     0.42355   0.11547   0.75520   0.00000  Uiso   1.00
H608   H     0.52543   0.38926   0.68306   0.00000  Uiso   1.00
H609   H     0.55248   0.30439   0.54340   0.00000  Uiso   1.00
H610   H     0.47070   0.18371   0.95953   0.00000  Uiso   1.00
H611   H     0.54788   0.30506   0.63037   0.00000  Uiso   1.00
H612   H     0.46918   0.18594   0.87204   0.00000  Uiso   1.00
H613   H     0.44909   0.19694   0.61842   0.00000  Uiso   1.00
H614   H     0.53367   0.31283   0.88001   0.00000  Uiso   1.00
H615   H     0.44585   0.19699   0.53021   0.00000  Uiso   1.00
H616   H     0.53075   0.31610   0.96713   0.00000  Uiso   1.00
N617   N     0.50000   0.25001   0.62935   0.00000  Uiso   1.00
N618   N     0.50000   0.24999   0.87066   0.00000  Uiso   1.00
O619   O     0.50000   0.18572   0.79072   0.00000  Uiso   1.00
O620   O     0.50000   0.31427   0.70929   0.00000  Uiso   1.00
O621   O     0.50000   0.18573   0.70928   0.00000  Uiso   1.00
O622   O     0.50000   0.31427   0.79072   0.00000  Uiso   1.00
O623   O     0.42495   0.24999   0.78132   0.00000  Uiso   1.00
O624   O     0.57505   0.25000   0.71868   0.00000  Uiso   1.00
O625   O     0.42495   0.25000   0.69989   0.00000  Uiso   1.00
O626   O     0.57505   0.25000   0.80012   0.00000  Uiso   1.00
S627   S     0.65815   0.29615   0.68684   0.00000  Uiso   1.00
O628   O     0.63772   0.26987   0.64293   0.00000  Uiso   1.00
O629   O     0.61748   0.32679   0.70249   0.00000  Uiso   1.00
O630   O     0.37283   0.32704   0.67225   0.00000  Uiso   1.00
H631   H     0.35782   0.34527   0.64451   0.00000  Uiso   1.00
S632   S     0.34462   0.21370   0.82216   0.00000  Uiso   1.00
O633   O     0.38326   0.17914   0.81066   0.00000  Uiso   1.00
O634   O     0.36971   0.24596   0.85847   0.00000  Uiso   1.00
O635   O     0.63180   0.18798   0.84742   0.00000  Uiso   1.00
H636   H     0.62659   0.20533   0.87698   0.00000  Uiso   1.00
S637   S     0.60351   0.11557   0.72370   0.00000  Uiso   1.00
O638   O     0.63770   0.12906   0.76790   0.00000  Uiso   1.00
O639   O     0.63202   0.08307   0.69502   0.00000  Uiso   1.00
O640   O     0.58951   0.16023   0.68878   0.00000  Uiso   1.00
H641   H     0.57282   0.14845   0.65763   0.00000  Uiso   1.00
S642   S     0.42482   0.38254   0.82088   0.00000  Uiso   1.00
O643   O     0.45152   0.36385   0.86714   0.00000  Uiso   1.00
O644   O     0.38498   0.41576   0.83287   0.00000  Uiso   1.00
O645   O     0.39535   0.34179   0.78803   0.00000  Uiso   1.00
H646   H     0.36873   0.33192   0.80757   0.00000  Uiso   1.00
S647   S     0.60530   0.01223   0.76337   0.00000  Uiso   1.00
O648   O     0.62065   0.49399   0.71646   0.00000  Uiso   1.00
O649   O     0.64760   0.03954   0.78794   0.00000  Uiso   1.00
O650   O     0.59661   0.46990   0.80031   0.00000  Uiso   1.00
H651   H     0.62052   0.44615   0.79189   0.00000  Uiso   1.00
S652   S     0.46975   0.48308   0.84681   0.00000  Uiso   1.00
O653   O     0.41717   0.00351   0.84343   0.00000  Uiso   1.00
O654   O     0.47729   0.45232   0.88938   0.00000  Uiso   1.00
O655   O     0.51262   0.02338   0.85642   0.00000  Uiso   1.00
H656   H     0.50067   0.04215   0.88246   0.00000  Uiso   1.00
C657   C     0.83648   0.16503   0.74990   0.00000  Uiso   1.00
C658   C     0.82977   0.33514   0.74992   0.00000  Uiso   1.00
C659   C     0.86176   0.28065   0.55774   0.00000  Uiso   1.00
C660   C     0.81656   0.21345   0.94375   0.00000  Uiso   1.00
C661   C     0.86034   0.28057   0.60814   0.00000  Uiso   1.00
C662   C     0.81627   0.21430   0.89314   0.00000  Uiso   1.00
C663   C     0.80490   0.22037   0.60139   0.00000  Uiso   1.00
C664   C     0.85183   0.28518   0.89762   0.00000  Uiso   1.00
C665   C     0.80369   0.22028   0.55062   0.00000  Uiso   1.00
C666   C     0.85112   0.28640   0.94814   0.00000  Uiso   1.00
C667   C     0.83304   0.25029   0.52743   0.00000  Uiso   1.00
C668   C     0.83345   0.25012   0.97268   0.00000  Uiso   1.00
C669   C     0.73492   0.25035   0.73834   0.00000  Uiso   1.00
C670   C     0.93181   0.24945   0.76205   0.00000  Uiso   1.00
C671   C     0.68101   0.25844   0.73398   0.00000  Uiso   1.00
C672   C     0.98617   0.24347   0.76839   0.00000  Uiso   1.00
C673   C     0.78921   0.05042   0.75231   0.00000  Uiso   1.00
C674   C     0.84343   0.45250   0.71293   0.00000  Uiso   1.00
C675   C     0.79147   0.09608   0.75292   0.00000  Uiso   1.00
C676   C     0.84367   0.40675   0.71271   0.00000  Uiso   1.00
C677   C     0.83729   0.11672   0.74859   0.00000  Uiso   1.00
C678   C     0.82487   0.38381   0.75015   0.00000  Uiso   1.00
C679   C     0.88191   0.09102   0.74289   0.00000  Uiso   1.00
C680   C     0.80293   0.40786   0.78719   0.00000  Uiso   1.00
C681   C     0.88120   0.04470   0.75088   0.00000  Uiso   1.00
C682   C     0.81079   0.45399   0.79164   0.00000  Uiso   1.00
C683   C     0.83370   0.02458   0.75256   0.00000  Uiso   1.00
C684   C     0.82918   0.47625   0.75284   0.00000  Uiso   1.00
Cu685  Cu    0.83333   0.24999   0.79822   0.00000  Uiso   1.00
Cu686  Cu    0.83333   0.25000   0.70179   0.00000  Uiso   1.00
H687   H     0.75274   0.03506   0.75299   0.00000  Uiso   1.00
H688   H     0.85687   0.46953   0.68284   0.00000  Uiso   1.00
H689   H     0.75689   0.11547   0.75520   0.00000  Uiso   1.00
H690   H     0.85877   0.38926   0.68306   0.00000  Uiso   1.00
H691   H     0.88581   0.30439   0.54340   0.00000  Uiso   1.00
H692   H     0.80403   0.18371   0.95953   0.00000  Uiso   1.00
H693   H     0.88121   0.30506   0.63037   0.00000  Uiso   1.00
H694   H     0.80251   0.18594   0.87204   0.00000  Uiso   1.00
H695   H     0.78242   0.19694   0.61842   0.00000  Uiso   1.00
H696   H     0.86700   0.31283   0.88001   0.00000  Uiso   1.00
H697   H     0.77918   0.19699   0.53021   0.00000  Uiso   1.00
H698   H     0.86409   0.31610   0.96713   0.00000  Uiso   1.00
N699   N     0.83333   0.25001   0.62935   0.00000  Uiso   1.00
N700   N     0.83333   0.24999   0.87066   0.00000  Uiso   1.00
O701   O     0.83334   0.18572   0.79072   0.00000  Uiso   1.00
O702   O     0.83333   0.31427   0.70929   0.00000  Uiso   1.00
O703   O     0.83334   0.18573   0.70928   0.00000  Uiso   1.00
O704   O     0.83333   0.31427   0.79072   0.00000  Uiso   1.00
O705   O     0.75828   0.24999   0.78132   0.00000  Uiso   1.00
O706   O     0.90839   0.25000   0.71868   0.00000  Uiso   1.00
O707   O     0.75828   0.25000   0.69989   0.00000  Uiso   1.00
O708   O     0.90839   0.25000   0.80012   0.00000  Uiso   1.00
S709   S     0.99149   0.29615   0.68684   0.00000  Uiso   1.00
O710   O     0.97105   0.26987   0.64293   0.00000  Uiso   1.00
O711   O     0.95081   0.32679   0.70249   0.00000  Uiso   1.00
O712   O     0.70616   0.32704   0.67225   0.00000  Uiso   1.00
H713   H     0.69115   0.34527   0.64451   0.00000  Uiso   1.00
S714   S     0.67796   0.21370   0.82216   0.00000  Uiso   1.00
O715   O     0.71659   0.17914   0.81066   0.00000  Uiso   1.00
O716   O     0.70304   0.24596   0.85847   0.00000  Uiso   1.00
O717   O     0.96514   0.18798   0.84742   0.00000  Uiso   1.00
H718   H     0.95992   0.20533   0.87698   0.00000  Uiso   1.00
S719   S     0.93684   0.11557   0.72370   0.00000  Uiso   1.00
O720   O     0.97104   0.12906   0.76790   0.00000  Uiso   1.00
O721   O     0.96536   0.08307   0.69502   0.00000  Uiso   1.00
O722   O     0.92284   0.16023   0.68878   0.00000  Uiso   1.00
H723   H     0.90615   0.14845   0.65763   0.00000  Uiso   1.00
S724   S     0.75815   0.38254   0.82088   0.00000  Uiso   1.00
O725   O     0.78486   0.36385   0.86714   0.00000  Uiso   1.00
O726   O     0.71831   0.41576   0.83287   0.00000  Uiso   1.00
O727   O     0.72868   0.34179   0.78803   0.00000  Uiso   1.00
H728   H     0.70206   0.33192   0.80757   0.00000  Uiso   1.00
S729   S     0.93863   0.01223   0.76337   0.00000  Uiso   1.00
O730   O     0.95398   0.49399   0.71646   0.00000  Uiso   1.00
O731   O     0.98093   0.03954   0.78794   0.00000  Uiso   1.00
O732   O     0.92994   0.46990   0.80031   0.00000  Uiso   1.00
H733   H     0.95385   0.44615   0.79189   0.00000  Uiso   1.00
S734   S     0.80308   0.48308   0.84681   0.00000  Uiso   1.00
O735   O     0.75051   0.00351   0.84343   0.00000  Uiso   1.00
O736   O     0.81062   0.45232   0.88938   0.00000  Uiso   1.00
O737   O     0.84596   0.02338   0.85642   0.00000  Uiso   1.00
H738   H     0.83400   0.04215   0.88246   0.00000  Uiso   1.00
C739   C     0.16982   0.66503   0.74990   0.00000  Uiso   1.00
C740   C     0.16310   0.83514   0.74992   0.00000  Uiso   1.00
C741   C     0.19510   0.78065   0.55774   0.00000  Uiso   1.00
C742   C     0.14989   0.71345   0.94375   0.00000  Uiso   1.00
C743   C     0.19368   0.78057   0.60814   0.00000  Uiso   1.00
C744   C     0.14960   0.71430   0.89314   0.00000  Uiso   1.00
C745   C     0.13823   0.72037   0.60139   0.00000  Uiso   1.00
C746   C     0.18516   0.78518   0.89762   0.00000  Uiso   1.00
C747   C     0.13703   0.72028   0.55062   0.00000  Uiso   1.00
C748   C     0.18445   0.78640   0.94814   0.00000  Uiso   1.00
C749   C     0.16638   0.75029   0.52743   0.00000  Uiso   1.00
C750   C     0.16679   0.75012   0.97268   0.00000  Uiso   1.00
C751   C     0.06825   0.75035   0.73834   0.00000  Uiso   1.00
C752   C     0.26514   0.74945   0.76205   0.00000  Uiso   1.00
C753   C     0.01434   0.75844   0.73398   0.00000  Uiso   1.00
C754   C     0.31950   0.74347   0.76839   0.00000  Uiso   1.00
C755   C     0.12255   0.55042   0.75231   0.00000  Uiso   1.00
C756   C     0.17676   0.95250   0.71293   0.00000  Uiso   1.00
C757   C     0.12480   0.59608   0.75292   0.00000  Uiso   1.00
C758   C     0.17700   0.90675   0.71271   0.00000  Uiso   1.00
C759   C     0.17062   0.61672   0.74859   0.00000  Uiso   1.00
C760   C     0.15821   0.88381   0.75015   0.00000  Uiso   1.00
C761   C     0.21524   0.59102   0.74289   0.00000  Uiso   1.00
C762   C     0.13626   0.90786   0.78719   0.00000  Uiso   1.00
C763   C     0.21453   0.54470   0.75088   0.00000  Uiso   1.00
C764   C     0.14413   0.95399   0.79164   0.00000  Uiso   1.00
C765   C     0.16704   0.52458   0.75256   0.00000  Uiso   1.00
C766   C     0.16251   0.97625   0.75284   0.00000  Uiso   1.00
Cu767  Cu    0.16667   0.74999   0.79822   0.00000  Uiso   1.00
Cu768  Cu    0.16667   0.75000   0.70179   0.00000  Uiso   1.00
H769   H     0.08607   0.53506   0.75299   0.00000  Uiso   1.00
H770   H     0.19021   0.96953   0.68284   0.00000  Uiso   1.00
H771   H     0.09022   0.61547   0.75520   0.00000  Uiso   1.00
H772   H     0.19210   0.88926   0.68306   0.00000  Uiso   1.00
H773   H     0.21915   0.80439   0.54340   0.00000  Uiso   1.00
H774   H     0.13737   0.68371   0.95953   0.00000  Uiso   1.00
H775   H     0.21454   0.80506   0.63037   0.00000  Uiso   1.00
H776   H     0.13585   0.68594   0.87204   0.00000  Uiso   1.00
H777   H     0.11575   0.69694   0.61842   0.00000  Uiso   1.00
H778   H     0.20034   0.81283   0.88001   0.00000  Uiso   1.00
H779   H     0.11252   0.69699   0.53021   0.00000  Uiso   1.00
H780   H     0.19742   0.81610   0.96713   0.00000  Uiso   1.00
N781   N     0.16667   0.75001   0.62935   0.00000  Uiso   1.00
N782   N     0.16667   0.74999   0.87066   0.00000  Uiso   1.00
O783   O     0.16667   0.68572   0.79072   0.00000  Uiso   1.00
O784   O     0.16666   0.81427   0.70929   0.00000  Uiso   1.00
O785   O     0.16667   0.68573   0.70928   0.00000  Uiso   1.00
O786   O     0.16666   0.81427   0.79072   0.00000  Uiso   1.00
O787   O     0.09161   0.74999   0.78132   0.00000  Uiso   1.00
O788   O     0.24172   0.75000   0.71868   0.00000  Uiso   1.00
O789   O     0.09161   0.75000   0.69989   0.00000  Uiso   1.00
O790   O     0.24172   0.75000   0.80012   0.00000  Uiso   1.00
S791   S     0.32482   0.79615   0.68684   0.00000  Uiso   1.00
O792   O     0.30439   0.76987   0.64293   0.00000  Uiso   1.00
O793   O     0.28414   0.82679   0.70249   0.00000  Uiso   1.00
O794   O     0.03949   0.82704   0.67225   0.00000  Uiso   1.00
H795   H     0.02448   0.84527   0.64451   0.00000  Uiso   1.00
S796   S     0.01129   0.71370   0.82216   0.00000  Uiso   1.00
O797   O     0.04992   0.67914   0.81066   0.00000  Uiso   1.00
O798   O     0.03638   0.74596   0.85847   0.00000  Uiso   1.00
O799   O     0.29847   0.68798   0.84742   0.00000  Uiso   1.00
H800   H     0.29325   0.70533   0.87698   0.00000  Uiso   1.00
S801   S     0.27017   0.61557   0.72370   0.00000  Uiso   1.00
O802   O     0.30437   0.62906   0.76790   0.00000  Uiso   1.00
O803   O     0.29869   0.58307   0.69502   0.00000  Uiso   1.00
O804   O     0.25617   0.66023   0.68878   0.00000  Uiso   1.00
H805   H     0.23949   0.64845   0.65763   0.00000  Uiso   1.00
S806   S     0.09149   0.88254   0.82088   0.00000  Uiso   1.00
O807   O     0.11819   0.86385   0.86714   0.00000  Uiso   1.00
O808   O     0.05164   0.91576   0.83287   0.00000  Uiso   1.00
O809   O     0.06201   0.84179   0.78803   0.00000  Uiso   1.00
H810   H     0.03539   0.83192   0.80757   0.00000  Uiso   1.00
S811   S     0.27196   0.51223   0.76337   0.00000  Uiso   1.00
O812   O     0.28731   0.99399   0.71646   0.00000  Uiso   1.00
O813   O     0.31426   0.53954   0.78794   0.00000  Uiso   1.00
O814   O     0.26328   0.96990   0.80031   0.00000  Uiso   1.00
H815   H     0.28719   0.94615   0.79189   0.00000  Uiso   1.00
S816   S     0.13641   0.98308   0.84681   0.00000  Uiso   1.00
O817   O     0.08384   0.50351   0.84343   0.00000  Uiso   1.00
O818   O     0.14395   0.95232   0.88938   0.00000  Uiso   1.00
O819   O     0.17929   0.52338   0.85642   0.00000  Uiso   1.00
H820   H     0.16733   0.54215   0.88246   0.00000  Uiso   1.00
C821   C     0.50315   0.66503   0.74990   0.00000  Uiso   1.00
C822   C     0.49644   0.83514   0.74992   0.00000  Uiso   1.00
C823   C     0.52843   0.78065   0.55774   0.00000  Uiso   1.00
C824   C     0.48323   0.71345   0.94375   0.00000  Uiso   1.00
C825   C     0.52701   0.78057   0.60814   0.00000  Uiso   1.00
C826   C     0.48294   0.71430   0.89314   0.00000  Uiso   1.00
C827   C     0.47157   0.72037   0.60139   0.00000  Uiso   1.00
C828   C     0.51849   0.78518   0.89762   0.00000  Uiso   1.00
C829   C     0.47036   0.72028   0.55062   0.00000  Uiso   1.00
C830   C     0.51779   0.78640   0.94814   0.00000  Uiso   1.00
C831   C     0.49971   0.75029   0.52743   0.00000  Uiso   1.00
C832   C     0.50012   0.75012   0.97268   0.00000  Uiso   1.00
C833   C     0.40158   0.75035   0.73834   0.00000  Uiso   1.00
C834   C     0.59847   0.74945   0.76205   0.00000  Uiso   1.00
C835   C     0.34767   0.75844   0.73398   0.00000  Uiso   1.00
C836   C     0.65284   0.74347   0.76839   0.00000  Uiso   1.00
C837   C     0.45588   0.55042   0.75231   0.00000  Uiso   1.00
C838   C     0.51010   0.95250   0.71293   0.00000  Uiso   1.00
C839   C     0.45813   0.59608   0.75292   0.00000  Uiso   1.00
C840   C     0.51034   0.90675   0.71271   0.00000  Uiso   1.00
C841   C     0.50395   0.61672   0.74859   0.00000  Uiso   1.00
C842   C     0.49154   0.88381   0.75015   0.00000  Uiso   1.00
C843   C     0.54857   0.59102   0.74289   0.00000  Uiso   1.00
C844   C     0.46960   0.90786   0.78719   0.00000  Uiso   1.00
C845   C     0.54787   0.54470   0.75088   0.00000  Uiso   1.00
C846   C     0.47746   0.95399   0.79164   0.00000  Uiso   1.00
C847   C     0.50037   0.52458   0.75256   0.00000  Uiso   1.00
C848   C     0.49585   0.97625   0.75284   0.00000  Uiso   1.00
Cu849  Cu    0.50000   0.74999   0.79822   0.00000  Uiso   1.00
Cu850  Cu    0.50000   0.75000   0.70179   0.00000  Uiso   1.00
H851   H     0.41940   0.53506   0.75299   0.00000  Uiso   1.00
H852   H     0.52354   0.96953   0.68284   0.00000  Uiso   1.00
H853   H     0.42355   0.61547   0.75520   0.00000  Uiso   1.00
H854   H     0.52543   0.88926   0.68306   0.00000  Uiso   1.00
H855   H     0.55248   0.80439   0.54340   0.00000  Uiso   1.00
H856   H     0.47070   0.68371   0.95953   0.00000  Uiso   1.00
H857   H     0.54788   0.80506   0.63037   0.00000  Uiso   1.00
H858   H     0.46918   0.68594   0.87204   0.00000  Uiso   1.00
H859   H     0.44909   0.69694   0.61842   0.00000  Uiso   1.00
H860   H     0.53367   0.81283   0.88001   0.00000  Uiso   1.00
H861   H     0.44585   0.69699   0.53021   0.00000  Uiso   1.00
H862   H     0.53075   0.81610   0.96713   0.00000  Uiso   1.00
N863   N     0.50000   0.75001   0.62935   0.00000  Uiso   1.00
N864   N     0.50000   0.74999   0.87066   0.00000  Uiso   1.00
O865   O     0.50000   0.68572   0.79072   0.00000  Uiso   1.00
O866   O     0.50000   0.81427   0.70929   0.00000  Uiso   1.00
O867   O     0.50000   0.68573   0.70928   0.00000  Uiso   1.00
O868   O     0.50000   0.81427   0.79072   0.00000  Uiso   1.00
O869   O     0.42495   0.74999   0.78132   0.00000  Uiso   1.00
O870   O     0.57505   0.75000   0.71868   0.00000  Uiso   1.00
O871   O     0.42495   0.75000   0.69989   0.00000  Uiso   1.00
O872   O     0.57505   0.75000   0.80012   0.00000  Uiso   1.00
S873   S     0.65815   0.79615   0.68684   0.00000  Uiso   1.00
O874   O     0.63772   0.76987   0.64293   0.00000  Uiso   1.00
O875   O     0.61748   0.82679   0.70249   0.00000  Uiso   1.00
O876   O     0.37283   0.82704   0.67225   0.00000  Uiso   1.00
H877   H     0.35782   0.84527   0.64451   0.00000  Uiso   1.00
S878   S     0.34462   0.71370   0.82216   0.00000  Uiso   1.00
O879   O     0.38326   0.67914   0.81066   0.00000  Uiso   1.00
O880   O     0.36971   0.74596   0.85847   0.00000  Uiso   1.00
O881   O     0.63180   0.68798   0.84742   0.00000  Uiso   1.00
H882   H     0.62659   0.70533   0.87698   0.00000  Uiso   1.00
S883   S     0.60351   0.61557   0.72370   0.00000  Uiso   1.00
O884   O     0.63770   0.62906   0.76790   0.00000  Uiso   1.00
O885   O     0.63202   0.58307   0.69502   0.00000  Uiso   1.00
O886   O     0.58951   0.66023   0.68878   0.00000  Uiso   1.00
H887   H     0.57282   0.64845   0.65763   0.00000  Uiso   1.00
S888   S     0.42482   0.88254   0.82088   0.00000  Uiso   1.00
O889   O     0.45152   0.86385   0.86714   0.00000  Uiso   1.00
O890   O     0.38498   0.91576   0.83287   0.00000  Uiso   1.00
O891   O     0.39535   0.84179   0.78803   0.00000  Uiso   1.00
H892   H     0.36873   0.83192   0.80757   0.00000  Uiso   1.00
S893   S     0.60530   0.51223   0.76337   0.00000  Uiso   1.00
O894   O     0.62065   0.99399   0.71646   0.00000  Uiso   1.00
O895   O     0.64760   0.53954   0.78794   0.00000  Uiso   1.00
O896   O     0.59661   0.96990   0.80031   0.00000  Uiso   1.00
H897   H     0.62052   0.94615   0.79189   0.00000  Uiso   1.00
S898   S     0.46975   0.98308   0.84681   0.00000  Uiso   1.00
O899   O     0.41717   0.50351   0.84343   0.00000  Uiso   1.00
O900   O     0.47729   0.95232   0.88938   0.00000  Uiso   1.00
O901   O     0.51262   0.52338   0.85642   0.00000  Uiso   1.00
H902   H     0.50067   0.54215   0.88246   0.00000  Uiso   1.00
C903   C     0.83648   0.66503   0.74990   0.00000  Uiso   1.00
C904   C     0.82977   0.83514   0.74992   0.00000  Uiso   1.00
C905   C     0.86176   0.78065   0.55774   0.00000  Uiso   1.00
C906   C     0.81656   0.71345   0.94375   0.00000  Uiso   1.00
C907   C     0.86034   0.78057   0.60814   0.00000  Uiso   1.00
C908   C     0.81627   0.71430   0.89314   0.00000  Uiso   1.00
C909   C     0.80490   0.72037   0.60139   0.00000  Uiso   1.00
C910   C     0.85183   0.78518   0.89762   0.00000  Uiso   1.00
C911   C     0.80369   0.72028   0.55062   0.00000  Uiso   1.00
C912   C     0.85112   0.78640   0.94814   0.00000  Uiso   1.00
C913   C     0.83304   0.75029   0.52743   0.00000  Uiso   1.00
C914   C     0.83345   0.75012   0.97268   0.00000  Uiso   1.00
C915   C     0.73492   0.75035   0.73834   0.00000  Uiso   1.00
C916   C     0.93181   0.74945   0.76205   0.00000  Uiso   1.00
C917   C     0.68101   0.75844   0.73398   0.00000  Uiso   1.00
C918   C     0.98617   0.74347   0.76839   0.00000  Uiso   1.00
C919   C     0.78921   0.55042   0.75231   0.00000  Uiso   1.00
C920   C     0.84343   0.95250   0.71293   0.00000  Uiso   1.00
C921   C     0.79147   0.59608   0.75292   0.00000  Uiso   1.00
C922   C     0.84367   0.90675   0.71271   0.00000  Uiso   1.00
C923   C     0.83729   0.61672   0.74859   0.00000  Uiso   1.00
C924   C     0.82487   0.88381   0.75015   0.00000  Uiso   1.00
C925   C     0.88191   0.59102   0.74289   0.00000  Uiso   1.00
C926   C     0.80293   0.90786   0.78719   0.00000  Uiso   1.00
C927   C     0.88120   0.54470   0.75088   0.00000  Uiso   1.00
C928   C     0.81079   0.95399   0.79164   0.00000  Uiso   1.00
C929   C     0.83370   0.52458   0.75256   0.00000  Uiso   1.00
C930   C     0.82918   0.97625   0.75284   0.00000  Uiso   1.00
Cu931  Cu    0.83333   0.74999   0.79822   0.00000  Uiso   1.00
Cu932  Cu    0.83333   0.75000   0.70179   0.00000  Uiso   1.00
H933   H     0.75274   0.53506   0.75299   0.00000  Uiso   1.00
H934   H     0.85687   0.96953   0.68284   0.00000  Uiso   1.00
H935   H     0.75689   0.61547   0.75520   0.00000  Uiso   1.00
H936   H     0.85877   0.88926   0.68306   0.00000  Uiso   1.00
H937   H     0.88581   0.80439   0.54340   0.00000  Uiso   1.00
H938   H     0.80403   0.68371   0.95953   0.00000  Uiso   1.00
H939   H     0.88121   0.80506   0.63037   0.00000  Uiso   1.00
H940   H     0.80251   0.68594   0.87204   0.00000  Uiso   1.00
H941   H     0.78242   0.69694   0.61842   0.00000  Uiso   1.00
H942   H     0.86700   0.81283   0.88001   0.00000  Uiso   1.00
H943   H     0.77918   0.69699   0.53021   0.00000  Uiso   1.00
H944   H     0.86409   0.81610   0.96713   0.00000  Uiso   1.00
N945   N     0.83333   0.75001   0.62935   0.00000  Uiso   1.00
N946   N     0.83333   0.74999   0.87066   0.00000  Uiso   1.00
O947   O     0.83334   0.68572   0.79072   0.00000  Uiso   1.00
O948   O     0.83333   0.81427   0.70929   0.00000  Uiso   1.00
O949   O     0.83334   0.68573   0.70928   0.00000  Uiso   1.00
O950   O     0.83333   0.81427   0.79072   0.00000  Uiso   1.00
O951   O     0.75828   0.74999   0.78132   0.00000  Uiso   1.00
O952   O     0.90839   0.75000   0.71868   0.00000  Uiso   1.00
O953   O     0.75828   0.75000   0.69989   0.00000  Uiso   1.00
O954   O     0.90839   0.75000   0.80012   0.00000  Uiso   1.00
S955   S     0.99149   0.79615   0.68684   0.00000  Uiso   1.00
O956   O     0.97105   0.76987   0.64293   0.00000  Uiso   1.00
O957   O     0.95081   0.82679   0.70249   0.00000  Uiso   1.00
O958   O     0.70616   0.82704   0.67225   0.00000  Uiso   1.00
H959   H     0.69115   0.84527   0.64451   0.00000  Uiso   1.00
S960   S     0.67796   0.71370   0.82216   0.00000  Uiso   1.00
O961   O     0.71659   0.67914   0.81066   0.00000  Uiso   1.00
O962   O     0.70304   0.74596   0.85847   0.00000  Uiso   1.00
O963   O     0.96514   0.68798   0.84742   0.00000  Uiso   1.00
H964   H     0.95992   0.70533   0.87698   0.00000  Uiso   1.00
S965   S     0.93684   0.61557   0.72370   0.00000  Uiso   1.00
O966   O     0.97104   0.62906   0.76790   0.00000  Uiso   1.00
O967   O     0.96536   0.58307   0.69502   0.00000  Uiso   1.00
O968   O     0.92284   0.66023   0.68878   0.00000  Uiso   1.00
H969   H     0.90615   0.64845   0.65763   0.00000  Uiso   1.00
S970   S     0.75815   0.88254   0.82088   0.00000  Uiso   1.00
O971   O     0.78486   0.86385   0.86714   0.00000  Uiso   1.00
O972   O     0.71831   0.91576   0.83287   0.00000  Uiso   1.00
O973   O     0.72868   0.84179   0.78803   0.00000  Uiso   1.00
H974   H     0.70206   0.83192   0.80757   0.00000  Uiso   1.00
S975   S     0.93863   0.51223   0.76337   0.00000  Uiso   1.00
O976   O     0.95398   0.99399   0.71646   0.00000  Uiso   1.00
O977   O     0.98093   0.53954   0.78794   0.00000  Uiso   1.00
O978   O     0.92994   0.96990   0.80031   0.00000  Uiso   1.00
H979   H     0.95385   0.94615   0.79189   0.00000  Uiso   1.00
S980   S     0.80308   0.98308   0.84681   0.00000  Uiso   1.00
O981   O     0.75051   0.50351   0.84343   0.00000  Uiso   1.00
O982   O     0.81062   0.95232   0.88938   0.00000  Uiso   1.00
O983   O     0.84596   0.52338   0.85642   0.00000  Uiso   1.00
H984   H     0.83400   0.54215   0.88246   0.00000  Uiso   1.00
loop_
_geom_bond_atom_site_label_1
_geom_bond_atom_site_label_2
_geom_bond_distance
_geom_bond_site_symmetry_2
_ccdc_geom_bond_type
C1     C21     1.460   .     S
C1     O47     1.288   .     A
C1     O45     1.299   .     A
C2     O46     1.298   .     A
C2     C22     1.474   .     S
C2     O48     1.294   .     A
C3     H35     1.079   .     S
C3     C5      1.403   .     A
C3     C11     1.413   .     A
C4     H36     1.079   .     S
C4     C12     1.412   .     A
C4     C6      1.404   .     A
C5     H37     1.079   .     S
C5     N43     1.360   .     A
C6     H38     1.080   .     S
C6     N44     1.363   .     A
C7     N43     1.361   .     A
C7     C9      1.405   .     A
C7     H39     1.082   .     S
C8     C10     1.404   .     A
C8     N44     1.362   .     A
C8     H40     1.081   .     S
C9     C11     1.414   .     A
C9     H41     1.079   .     S
C10    H42     1.079   .     S
C10    C12     1.413   .     A
C11    C504    1.520   1_554 S
C12    C503    1.520   .     S
C13    O51     1.294   .     A
C13    O49     1.278   .     A
C13    C15     1.434   .     S
C14    O52     1.285   .     A
C14    C16     1.437   .     S
C14    O50     1.288   .     A
C15    C180    1.365   1_455 S
C15    S217    1.786   1_455 S
C16    C97     1.365   .     S
C16    S140    1.802   .     S
C17    C27     1.398   .     A
C17    H31     1.084   .     S
C17    C19     1.383   .     A
C18    C28     1.398   .     A
C18    H32     1.084   .     S
C18    C20     1.383   .     A
C19    C21     1.395   .     A
C19    H33     1.083   .     S
C20    H34     1.083   .     S
C20    C22     1.399   .     A
C21    C23     1.422   .     A
C22    C24     1.424   .     A
C23    S63     1.785   .     S
C23    C25     1.420   .     A
C24    C26     1.417   .     A
C24    S68     1.783   .     S
C25    S73     1.792   .     S
C25    C27     1.416   .     A
C26    S78     1.787   .     S
C26    C28     1.414   .     A
C27    C274    1.469   1_545 S
C28    C273    1.469   .     S
Cu29   O49     1.988   .     S
Cu29   O48     1.956   .     S
Cu29   O45     1.952   .     S
Cu29   Cu30    2.675   .     S
Cu29   N44     2.010   .     S
Cu29   O52     1.982   .     S
Cu30   O51     1.982   .     S
Cu30   O47     1.956   .     S
Cu30   N43     2.010   .     S
Cu30   O46     1.952   .     S
Cu30   O50     1.988   .     S
S53    O54     1.502   .     D
S53    O55     1.504   .     D
S53    C97     1.786   .     S
S53    O138    1.683   .     S
O56    H57     0.990   .     S
O56    S217    1.683   1_455 S
S58    O60     1.504   .     D
S58    O59     1.503   .     D
S58    C180    1.802   1_455 S
S58    O225    1.686   1_455 S
O61    H62     0.991   .     S
O61    S140    1.686   .     S
S63    O65     1.503   .     D
S63    O66     1.678   .     S
S63    O64     1.497   .     D
O66    H67     0.991   .     S
S68    O69     1.501   .     D
S68    O71     1.677   .     S
S68    O70     1.503   .     D
O71    H72     0.991   .     S
S73    O75     1.502   .     D
S73    O320    1.504   1_545 S
S73    O322    1.683   1_545 S
O74    S319    1.504   .     S
O76    H77     0.990   .     S
O76    S319    1.683   .     S
S78    O80     1.502   .     D
S78    O325    1.503   .     S
S78    O327    1.683   .     S
O79    S324    1.503   1_545 S
O81    H82     0.990   .     S
O81    S324    1.683   1_545 S
C83    C103    1.460   .     S
C83    O129    1.288   .     A
C83    O127    1.299   .     A
C84    O128    1.298   .     A
C84    C104    1.474   .     S
C84    O130    1.294   .     A
C85    H117    1.079   .     S
C85    C87     1.403   .     A
C85    C93     1.413   .     A
C86    H118    1.079   .     S
C86    C94     1.412   .     A
C86    C88     1.404   .     A
C87    H119    1.079   .     S
C87    N125    1.360   .     A
C88    H120    1.080   .     S
C88    N126    1.363   .     A
C89    N125    1.361   .     A
C89    C91     1.405   .     A
C89    H121    1.082   .     S
C90    C92     1.404   .     A
C90    N126    1.362   .     A
C90    H122    1.081   .     S
C91    C93     1.414   .     A
C91    H123    1.079   .     S
C92    H124    1.079   .     S
C92    C94     1.413   .     A
C93    C586    1.520   1_554 S
C94    C585    1.520   .     S
C95    O133    1.294   .     A
C95    O131    1.278   .     A
C95    C97     1.434   .     S
C96    O134    1.285   .     A
C96    C98     1.437   .     S
C96    O132    1.288   .     A
C98    C179    1.365   .     S
C98    S222    1.802   .     S
C99    C109    1.398   .     A
C99    H113    1.084   .     S
C99    C101    1.383   .     A
C100   C110    1.398   .     A
C100   H114    1.084   .     S
C100   C102    1.383   .     A
C101   C103    1.395   .     A
C101   H115    1.083   .     S
C102   H116    1.083   .     S
C102   C104    1.399   .     A
C103   C105    1.422   .     A
C104   C106    1.424   .     A
C105   S145    1.785   .     S
C105   C107    1.420   .     A
C106   C108    1.417   .     A
C106   S150    1.783   .     S
C107   S155    1.792   .     S
C107   C109    1.416   .     A
C108   S160    1.787   .     S
C108   C110    1.414   .     A
C109   C356    1.469   1_545 S
C110   C355    1.469   .     S
Cu111  O131    1.988   .     S
Cu111  O130    1.956   .     S
Cu111  O127    1.952   .     S
Cu111  Cu112   2.675   .     S
Cu111  N126    2.010   .     S
Cu111  O134    1.982   .     S
Cu112  O133    1.982   .     S
Cu112  O129    1.956   .     S
Cu112  N125    2.010   .     S
Cu112  O128    1.952   .     S
Cu112  O132    1.988   .     S
S135   O136    1.502   .     D
S135   O137    1.504   .     D
S135   C179    1.786   .     S
S135   O220    1.683   .     S
O138   H139    0.990   .     S
S140   O142    1.504   .     D
S140   O141    1.503   .     D
O143   H144    0.991   .     S
O143   S222    1.686   .     S
S145   O147    1.503   .     D
S145   O148    1.678   .     S
S145   O146    1.497   .     D
O148   H149    0.991   .     S
S150   O151    1.501   .     D
S150   O153    1.677   .     S
S150   O152    1.503   .     D
O153   H154    0.991   .     S
S155   O157    1.502   .     D
S155   O402    1.504   1_545 S
S155   O404    1.683   1_545 S
O156   S401    1.504   .     S
O158   H159    0.990   .     S
O158   S401    1.683   .     S
S160   O162    1.502   .     D
S160   O407    1.503   .     S
S160   O409    1.683   .     S
O161   S406    1.503   1_545 S
O163   H164    0.990   .     S
O163   S406    1.683   1_545 S
C165   C185    1.460   .     S
C165   O211    1.288   .     A
C165   O209    1.299   .     A
C166   O210    1.298   .     A
C166   C186    1.474   .     S
C166   O212    1.294   .     A
C167   H199    1.079   .     S
C167   C169    1.403   .     A
C167   C175    1.413   .     A
C168   H200    1.079   .     S
C168   C176    1.412   .     A
C168   C170    1.404   .     A
C169   H201    1.079   .     S
C169   N207    1.360   .     A
C170   H202    1.080   .     S
C170   N208    1.363   .     A
C171   N207    1.361   .     A
C171   C173    1.405   .     A
C171   H203    1.082   .     S
C172   C174    1.404   .     A
C172   N208    1.362   .     A
C172   H204    1.081   .     S
C173   C175    1.414   .     A
C173   H205    1.079   .     S
C174   H206    1.079   .     S
C174   C176    1.413   .     A
C175   C668    1.520   1_554 S
C176   C667    1.520   .     S
C177   O215    1.294   .     A
C177   O213    1.278   .     A
C177   C179    1.434   .     S
C178   O216    1.285   .     A
C178   C180    1.437   .     S
C178   O214    1.288   .     A
C180   C15     1.365   1_655 S
C180   S58     1.802   1_655 S
C181   C191    1.398   .     A
C181   H195    1.084   .     S
C181   C183    1.383   .     A
C182   C192    1.398   .     A
C182   H196    1.084   .     S
C182   C184    1.383   .     A
C183   C185    1.395   .     A
C183   H197    1.083   .     S
C184   H198    1.083   .     S
C184   C186    1.399   .     A
C185   C187    1.422   .     A
C186   C188    1.424   .     A
C187   S227    1.785   .     S
C187   C189    1.420   .     A
C188   C190    1.417   .     A
C188   S232    1.783   .     S
C189   S237    1.792   .     S
C189   C191    1.416   .     A
C190   S242    1.787   .     S
C190   C192    1.414   .     A
C191   C438    1.469   1_545 S
C192   C437    1.469   .     S
Cu193  O213    1.988   .     S
Cu193  O212    1.956   .     S
Cu193  O209    1.952   .     S
Cu193  Cu194   2.675   .     S
Cu193  N208    2.010   .     S
Cu193  O216    1.982   .     S
Cu194  O215    1.982   .     S
Cu194  O211    1.956   .     S
Cu194  N207    2.010   .     S
Cu194  O210    1.952   .     S
Cu194  O214    1.988   .     S
S217   O218    1.502   .     D
S217   O219    1.504   .     D
S217   C15     1.786   1_655 S
S217   O56     1.683   1_655 S
O220   H221    0.990   .     S
S222   O224    1.504   .     D
S222   O223    1.503   .     D
O225   H226    0.991   .     S
O225   S58     1.686   1_655 S
S227   O229    1.503   .     D
S227   O230    1.678   .     S
S227   O228    1.497   .     D
O230   H231    0.991   .     S
S232   O233    1.501   .     D
S232   O235    1.677   .     S
S232   O234    1.503   .     D
O235   H236    0.991   .     S
S237   O239    1.502   .     D
S237   O484    1.504   1_545 S
S237   O486    1.683   1_545 S
O238   S483    1.504   .     S
O240   H241    0.990   .     S
O240   S483    1.683   .     S
S242   O244    1.502   .     D
S242   O489    1.503   .     S
S242   O491    1.683   .     S
O243   S488    1.503   1_545 S
O245   H246    0.990   .     S
O245   S488    1.683   1_545 S
C247   C267    1.460   .     S
C247   O293    1.288   .     A
C247   O291    1.299   .     A
C248   O292    1.298   .     A
C248   C268    1.474   .     S
C248   O294    1.294   .     A
C249   H281    1.079   .     S
C249   C251    1.403   .     A
C249   C257    1.413   .     A
C250   H282    1.079   .     S
C250   C258    1.412   .     A
C250   C252    1.404   .     A
C251   H283    1.079   .     S
C251   N289    1.360   .     A
C252   H284    1.080   .     S
C252   N290    1.363   .     A
C253   N289    1.361   .     A
C253   C255    1.405   .     A
C253   H285    1.082   .     S
C254   C256    1.404   .     A
C254   N290    1.362   .     A
C254   H286    1.081   .     S
C255   C257    1.414   .     A
C255   H287    1.079   .     S
C256   H288    1.079   .     S
C256   C258    1.413   .     A
C257   C750    1.520   1_554 S
C258   C749    1.520   .     S
C259   O297    1.294   .     A
C259   O295    1.278   .     A
C259   C261    1.434   .     S
C260   O298    1.285   .     A
C260   C262    1.437   .     S
C260   O296    1.288   .     A
C261   C426    1.365   1_455 S
C261   S463    1.786   1_455 S
C262   C343    1.365   .     S
C262   S386    1.802   .     S
C263   C273    1.398   .     A
C263   H277    1.084   .     S
C263   C265    1.383   .     A
C264   C274    1.398   .     A
C264   H278    1.084   .     S
C264   C266    1.383   .     A
C265   C267    1.395   .     A
C265   H279    1.083   .     S
C266   H280    1.083   .     S
C266   C268    1.399   .     A
C267   C269    1.422   .     A
C268   C270    1.424   .     A
C269   S309    1.785   .     S
C269   C271    1.420   .     A
C270   C272    1.417   .     A
C270   S314    1.783   .     S
C271   S319    1.792   .     S
C271   C273    1.416   .     A
C272   S324    1.787   .     S
C272   C274    1.414   .     A
C274   C27     1.469   1_565 S
Cu275  O295    1.988   .     S
Cu275  O294    1.956   .     S
Cu275  O291    1.952   .     S
Cu275  Cu276   2.675   .     S
Cu275  N290    2.010   .     S
Cu275  O298    1.982   .     S
Cu276  O297    1.982   .     S
Cu276  O293    1.956   .     S
Cu276  N289    2.010   .     S
Cu276  O292    1.952   .     S
Cu276  O296    1.988   .     S
S299   O300    1.502   .     D
S299   O301    1.504   .     D
S299   C343    1.786   .     S
S299   O384    1.683   .     S
O302   H303    0.990   .     S
O302   S463    1.683   1_455 S
S304   O306    1.504   .     D
S304   O305    1.503   .     D
S304   C426    1.802   1_455 S
S304   O471    1.686   1_455 S
O307   H308    0.991   .     S
O307   S386    1.686   .     S
S309   O311    1.503   .     D
S309   O312    1.678   .     S
S309   O310    1.497   .     D
O312   H313    0.991   .     S
S314   O315    1.501   .     D
S314   O317    1.677   .     S
S314   O316    1.503   .     D
O317   H318    0.991   .     S
S319   O321    1.502   .     D
O320   S73     1.504   1_565 S
O322   H323    0.990   .     S
O322   S73     1.683   1_565 S
S324   O326    1.502   .     D
S324   O79     1.503   1_565 S
S324   O81     1.683   1_565 S
O327   H328    0.990   .     S
C329   C349    1.460   .     S
C329   O375    1.288   .     A
C329   O373    1.299   .     A
C330   O374    1.298   .     A
C330   C350    1.474   .     S
C330   O376    1.294   .     A
C331   H363    1.079   .     S
C331   C333    1.403   .     A
C331   C339    1.413   .     A
C332   H364    1.079   .     S
C332   C340    1.412   .     A
C332   C334    1.404   .     A
C333   H365    1.079   .     S
C333   N371    1.360   .     A
C334   H366    1.080   .     S
C334   N372    1.363   .     A
C335   N371    1.361   .     A
C335   C337    1.405   .     A
C335   H367    1.082   .     S
C336   C338    1.404   .     A
C336   N372    1.362   .     A
C336   H368    1.081   .     S
C337   C339    1.414   .     A
C337   H369    1.079   .     S
C338   H370    1.079   .     S
C338   C340    1.413   .     A
C339   C832    1.520   1_554 S
C340   C831    1.520   .     S
C341   O379    1.294   .     A
C341   O377    1.278   .     A
C341   C343    1.434   .     S
C342   O380    1.285   .     A
C342   C344    1.437   .     S
C342   O378    1.288   .     A
C344   C425    1.365   .     S
C344   S468    1.802   .     S
C345   C355    1.398   .     A
C345   H359    1.084   .     S
C345   C347    1.383   .     A
C346   C356    1.398   .     A
C346   H360    1.084   .     S
C346   C348    1.383   .     A
C347   C349    1.395   .     A
C347   H361    1.083   .     S
C348   H362    1.083   .     S
C348   C350    1.399   .     A
C349   C351    1.422   .     A
C350   C352    1.424   .     A
C351   S391    1.785   .     S
C351   C353    1.420   .     A
C352   C354    1.417   .     A
C352   S396    1.783   .     S
C353   S401    1.792   .     S
C353   C355    1.416   .     A
C354   S406    1.787   .     S
C354   C356    1.414   .     A
C356   C109    1.469   1_565 S
Cu357  O377    1.988   .     S
Cu357  O376    1.956   .     S
Cu357  O373    1.952   .     S
Cu357  Cu358   2.675   .     S
Cu357  N372    2.010   .     S
Cu357  O380    1.982   .     S
Cu358  O379    1.982   .     S
Cu358  O375    1.956   .     S
Cu358  N371    2.010   .     S
Cu358  O374    1.952   .     S
Cu358  O378    1.988   .     S
S381   O382    1.502   .     D
S381   O383    1.504   .     D
S381   C425    1.786   .     S
S381   O466    1.683   .     S
O384   H385    0.990   .     S
S386   O388    1.504   .     D
S386   O387    1.503   .     D
O389   H390    0.991   .     S
O389   S468    1.686   .     S
S391   O393    1.503   .     D
S391   O394    1.678   .     S
S391   O392    1.497   .     D
O394   H395    0.991   .     S
S396   O397    1.501   .     D
S396   O399    1.677   .     S
S396   O398    1.503   .     D
O399   H400    0.991   .     S
S401   O403    1.502   .     D
O402   S155    1.504   1_565 S
O404   H405    0.990   .     S
O404   S155    1.683   1_565 S
S406   O408    1.502   .     D
S406   O161    1.503   1_565 S
S406   O163    1.683   1_565 S
O409   H410    0.990   .     S
C411   C431    1.460   .     S
C411   O457    1.288   .     A
C411   O455    1.299   .     A
C412   O456    1.298   .     A
C412   C432    1.474   .     S
C412   O458    1.294   .     A
C413   H445    1.079   .     S
C413   C415    1.403   .     A
C413   C421    1.413   .     A
C414   H446    1.079   .     S
C414   C422    1.412   .     A
C414   C416    1.404   .     A
C415   H447    1.079   .     S
C415   N453    1.360   .     A
C416   H448    1.080   .     S
C416   N454    1.363   .     A
C417   N453    1.361   .     A
C417   C419    1.405   .     A
C417   H449    1.082   .     S
C418   C420    1.404   .     A
C418   N454    1.362   .     A
C418   H450    1.081   .     S
C419   C421    1.414   .     A
C419   H451    1.079   .     S
C420   H452    1.079   .     S
C420   C422    1.413   .     A
C421   C914    1.520   1_554 S
C422   C913    1.520   .     S
C423   O461    1.294   .     A
C423   O459    1.278   .     A
C423   C425    1.434   .     S
C424   O462    1.285   .     A
C424   C426    1.437   .     S
C424   O460    1.288   .     A
C426   C261    1.365   1_655 S
C426   S304    1.802   1_655 S
C427   C437    1.398   .     A
C427   H441    1.084   .     S
C427   C429    1.383   .     A
C428   C438    1.398   .     A
C428   H442    1.084   .     S
C428   C430    1.383   .     A
C429   C431    1.395   .     A
C429   H443    1.083   .     S
C430   H444    1.083   .     S
C430   C432    1.399   .     A
C431   C433    1.422   .     A
C432   C434    1.424   .     A
C433   S473    1.785   .     S
C433   C435    1.420   .     A
C434   C436    1.417   .     A
C434   S478    1.783   .     S
C435   S483    1.792   .     S
C435   C437    1.416   .     A
C436   S488    1.787   .     S
C436   C438    1.414   .     A
C438   C191    1.469   1_565 S
Cu439  O459    1.988   .     S
Cu439  O458    1.956   .     S
Cu439  O455    1.952   .     S
Cu439  Cu440   2.675   .     S
Cu439  N454    2.010   .     S
Cu439  O462    1.982   .     S
Cu440  O461    1.982   .     S
Cu440  O457    1.956   .     S
Cu440  N453    2.010   .     S
Cu440  O456    1.952   .     S
Cu440  O460    1.988   .     S
S463   O464    1.502   .     D
S463   O465    1.504   .     D
S463   C261    1.786   1_655 S
S463   O302    1.683   1_655 S
O466   H467    0.990   .     S
S468   O470    1.504   .     D
S468   O469    1.503   .     D
O471   H472    0.991   .     S
O471   S304    1.686   1_655 S
S473   O475    1.503   .     D
S473   O476    1.678   .     S
S473   O474    1.497   .     D
O476   H477    0.991   .     S
S478   O479    1.501   .     D
S478   O481    1.677   .     S
S478   O480    1.503   .     D
O481   H482    0.991   .     S
S483   O485    1.502   .     D
O484   S237    1.504   1_565 S
O486   H487    0.990   .     S
O486   S237    1.683   1_565 S
S488   O490    1.502   .     D
S488   O243    1.503   1_565 S
S488   O245    1.683   1_565 S
O491   H492    0.990   .     S
C493   C513    1.460   .     S
C493   O539    1.288   .     A
C493   O537    1.299   .     A
C494   O538    1.298   .     A
C494   C514    1.474   .     S
C494   O540    1.294   .     A
C495   H527    1.079   .     S
C495   C497    1.403   .     A
C495   C503    1.413   .     A
C496   H528    1.079   .     S
C496   C504    1.412   .     A
C496   C498    1.404   .     A
C497   H529    1.079   .     S
C497   N535    1.360   .     A
C498   H530    1.080   .     S
C498   N536    1.363   .     A
C499   N535    1.361   .     A
C499   C501    1.405   .     A
C499   H531    1.082   .     S
C500   C502    1.404   .     A
C500   N536    1.362   .     A
C500   H532    1.081   .     S
C501   C503    1.414   .     A
C501   H533    1.079   .     S
C502   H534    1.079   .     S
C502   C504    1.413   .     A
C504   C11     1.520   1_556 S
C505   O543    1.294   .     A
C505   O541    1.278   .     A
C505   C507    1.434   .     S
C506   O544    1.285   .     A
C506   C508    1.437   .     S
C506   O542    1.288   .     A
C507   C672    1.365   1_455 S
C507   S709    1.786   1_455 S
C508   C589    1.365   .     S
C508   S632    1.802   .     S
C509   C519    1.398   .     A
C509   H523    1.084   .     S
C509   C511    1.383   .     A
C510   C520    1.398   .     A
C510   H524    1.084   .     S
C510   C512    1.383   .     A
C511   C513    1.395   .     A
C511   H525    1.083   .     S
C512   H526    1.083   .     S
C512   C514    1.399   .     A
C513   C515    1.422   .     A
C514   C516    1.424   .     A
C515   S555    1.785   .     S
C515   C517    1.420   .     A
C516   C518    1.417   .     A
C516   S560    1.783   .     S
C517   S565    1.792   .     S
C517   C519    1.416   .     A
C518   S570    1.787   .     S
C518   C520    1.414   .     A
C519   C766    1.469   1_545 S
C520   C765    1.469   .     S
Cu521  O541    1.988   .     S
Cu521  O540    1.956   .     S
Cu521  O537    1.952   .     S
Cu521  Cu522   2.675   .     S
Cu521  N536    2.010   .     S
Cu521  O544    1.982   .     S
Cu522  O543    1.982   .     S
Cu522  O539    1.956   .     S
Cu522  N535    2.010   .     S
Cu522  O538    1.952   .     S
Cu522  O542    1.988   .     S
S545   O546    1.502   .     D
S545   O547    1.504   .     D
S545   C589    1.786   .     S
S545   O630    1.683   .     S
O548   H549    0.990   .     S
O548   S709    1.683   1_455 S
S550   O552    1.504   .     D
S550   O551    1.503   .     D
S550   C672    1.802   1_455 S
S550   O717    1.686   1_455 S
O553   H554    0.991   .     S
O553   S632    1.686   .     S
S555   O557    1.503   .     D
S555   O558    1.678   .     S
S555   O556    1.497   .     D
O558   H559    0.991   .     S
S560   O561    1.501   .     D
S560   O563    1.677   .     S
S560   O562    1.503   .     D
O563   H564    0.991   .     S
S565   O567    1.502   .     D
S565   O812    1.504   1_545 S
S565   O814    1.683   1_545 S
O566   S811    1.504   .     S
O568   H569    0.990   .     S
O568   S811    1.683   .     S
S570   O572    1.502   .     D
S570   O817    1.503   .     S
S570   O819    1.683   .     S
O571   S816    1.503   1_545 S
O573   H574    0.990   .     S
O573   S816    1.683   1_545 S
C575   C595    1.460   .     S
C575   O621    1.288   .     A
C575   O619    1.299   .     A
C576   O620    1.298   .     A
C576   C596    1.474   .     S
C576   O622    1.294   .     A
C577   H609    1.079   .     S
C577   C579    1.403   .     A
C577   C585    1.413   .     A
C578   H610    1.079   .     S
C578   C586    1.412   .     A
C578   C580    1.404   .     A
C579   H611    1.079   .     S
C579   N617    1.360   .     A
C580   H612    1.080   .     S
C580   N618    1.363   .     A
C581   N617    1.361   .     A
C581   C583    1.405   .     A
C581   H613    1.082   .     S
C582   C584    1.404   .     A
C582   N618    1.362   .     A
C582   H614    1.081   .     S
C583   C585    1.414   .     A
C583   H615    1.079   .     S
C584   H616    1.079   .     S
C584   C586    1.413   .     A
C586   C93     1.520   1_556 S
C587   O625    1.294   .     A
C587   O623    1.278   .     A
C587   C589    1.434   .     S
C588   O626    1.285   .     A
C588   C590    1.437   .     S
C588   O624    1.288   .     A
C590   C671    1.365   .     S
C590   S714    1.802   .     S
C591   C601    1.398   .     A
C591   H605    1.084   .     S
C591   C593    1.383   .     A
C592   C602    1.398   .     A
C592   H606    1.084   .     S
C592   C594    1.383   .     A
C593   C595    1.395   .     A
C593   H607    1.083   .     S
C594   H608    1.083   .     S
C594   C596    1.399   .     A
C595   C597    1.422   .     A
C596   C598    1.424   .     A
C597   S637    1.785   .     S
C597   C599    1.420   .     A
C598   C600    1.417   .     A
C598   S642    1.783   .     S
C599   S647    1.792   .     S
C599   C601    1.416   .     A
C600   S652    1.787   .     S
C600   C602    1.414   .     A
C601   C848    1.469   1_545 S
C602   C847    1.469   .     S
Cu603  O623    1.988   .     S
Cu603  O622    1.956   .     S
Cu603  O619    1.952   .     S
Cu603  Cu604   2.675   .     S
Cu603  N618    2.010   .     S
Cu603  O626    1.982   .     S
Cu604  O625    1.982   .     S
Cu604  O621    1.956   .     S
Cu604  N617    2.010   .     S
Cu604  O620    1.952   .     S
Cu604  O624    1.988   .     S
S627   O628    1.502   .     D
S627   O629    1.504   .     D
S627   C671    1.786   .     S
S627   O712    1.683   .     S
O630   H631    0.990   .     S
S632   O634    1.504   .     D
S632   O633    1.503   .     D
O635   H636    0.991   .     S
O635   S714    1.686   .     S
S637   O639    1.503   .     D
S637   O640    1.678   .     S
S637   O638    1.497   .     D
O640   H641    0.991   .     S
S642   O643    1.501   .     D
S642   O645    1.677   .     S
S642   O644    1.503   .     D
O645   H646    0.991   .     S
S647   O649    1.502   .     D
S647   O894    1.504   1_545 S
S647   O896    1.683   1_545 S
O648   S893    1.504   .     S
O650   H651    0.990   .     S
O650   S893    1.683   .     S
S652   O654    1.502   .     D
S652   O899    1.503   .     S
S652   O901    1.683   .     S
O653   S898    1.503   1_545 S
O655   H656    0.990   .     S
O655   S898    1.683   1_545 S
C657   C677    1.460   .     S
C657   O703    1.288   .     A
C657   O701    1.299   .     A
C658   O702    1.298   .     A
C658   C678    1.474   .     S
C658   O704    1.294   .     A
C659   H691    1.079   .     S
C659   C661    1.403   .     A
C659   C667    1.413   .     A
C660   H692    1.079   .     S
C660   C668    1.412   .     A
C660   C662    1.404   .     A
C661   H693    1.079   .     S
C661   N699    1.360   .     A
C662   H694    1.080   .     S
C662   N700    1.363   .     A
C663   N699    1.361   .     A
C663   C665    1.405   .     A
C663   H695    1.082   .     S
C664   C666    1.404   .     A
C664   N700    1.362   .     A
C664   H696    1.081   .     S
C665   C667    1.414   .     A
C665   H697    1.079   .     S
C666   H698    1.079   .     S
C666   C668    1.413   .     A
C668   C175    1.520   1_556 S
C669   O707    1.294   .     A
C669   O705    1.278   .     A
C669   C671    1.434   .     S
C670   O708    1.285   .     A
C670   C672    1.437   .     S
C670   O706    1.288   .     A
C672   C507    1.365   1_655 S
C672   S550    1.802   1_655 S
C673   C683    1.398   .     A
C673   H687    1.084   .     S
C673   C675    1.383   .     A
C674   C684    1.398   .     A
C674   H688    1.084   .     S
C674   C676    1.383   .     A
C675   C677    1.395   .     A
C675   H689    1.083   .     S
C676   H690    1.083   .     S
C676   C678    1.399   .     A
C677   C679    1.422   .     A
C678   C680    1.424   .     A
C679   S719    1.785   .     S
C679   C681    1.420   .     A
C680   C682    1.417   .     A
C680   S724    1.783   .     S
C681   S729    1.792   .     S
C681   C683    1.416   .     A
C682   S734    1.787   .     S
C682   C684    1.414   .     A
C683   C930    1.469   1_545 S
C684   C929    1.469   .     S
Cu685  O705    1.988   .     S
Cu685  O704    1.956   .     S
Cu685  O701    1.952   .     S
Cu685  Cu686   2.675   .     S
Cu685  N700    2.010   .     S
Cu685  O708    1.982   .     S
Cu686  O707    1.982   .     S
Cu686  O703    1.956   .     S
Cu686  N699    2.010   .     S
Cu686  O702    1.952   .     S
Cu686  O706    1.988   .     S
S709   O710    1.502   .     D
S709   O711    1.504   .     D
S709   C507    1.786   1_655 S
S709   O548    1.683   1_655 S
O712   H713    0.990   .     S
S714   O716    1.504   .     D
S714   O715    1.503   .     D
O717   H718    0.991   .     S
O717   S550    1.686   1_655 S
S719   O721    1.503   .     D
S719   O722    1.678   .     S
S719   O720    1.497   .     D
O722   H723    0.991   .     S
S724   O725    1.501   .     D
S724   O727    1.677   .     S
S724   O726    1.503   .     D
O727   H728    0.991   .     S
S729   O731    1.502   .     D
S729   O976    1.504   1_545 S
S729   O978    1.683   1_545 S
O730   S975    1.504   .     S
O732   H733    0.990   .     S
O732   S975    1.683   .     S
S734   O736    1.502   .     D
S734   O981    1.503   .     S
S734   O983    1.683   .     S
O735   S980    1.503   1_545 S
O737   H738    0.990   .     S
O737   S980    1.683   1_545 S
C739   C759    1.460   .     S
C739   O785    1.288   .     A
C739   O783    1.299   .     A
C740   O784    1.298   .     A
C740   C760    1.474   .     S
C740   O786    1.294   .     A
C741   H773    1.079   .     S
C741   C743    1.403   .     A
C741   C749    1.413   .     A
C742   H774    1.079   .     S
C742   C750    1.412   .     A
C742   C744    1.404   .     A
C743   H775    1.079   .     S
C743   N781    1.360   .     A
C744   H776    1.080   .     S
C744   N782    1.363   .     A
C745   N781    1.361   .     A
C745   C747    1.405   .     A
C745   H777    1.082   .     S
C746   C748    1.404   .     A
C746   N782    1.362   .     A
C746   H778    1.081   .     S
C747   C749    1.414   .     A
C747   H779    1.079   .     S
C748   H780    1.079   .     S
C748   C750    1.413   .     A
C750   C257    1.520   1_556 S
C751   O789    1.294   .     A
C751   O787    1.278   .     A
C751   C753    1.434   .     S
C752   O790    1.285   .     A
C752   C754    1.437   .     S
C752   O788    1.288   .     A
C753   C918    1.365   1_455 S
C753   S955    1.786   1_455 S
C754   C835    1.365   .     S
C754   S878    1.802   .     S
C755   C765    1.398   .     A
C755   H769    1.084   .     S
C755   C757    1.383   .     A
C756   C766    1.398   .     A
C756   H770    1.084   .     S
C756   C758    1.383   .     A
C757   C759    1.395   .     A
C757   H771    1.083   .     S
C758   H772    1.083   .     S
C758   C760    1.399   .     A
C759   C761    1.422   .     A
C760   C762    1.424   .     A
C761   S801    1.785   .     S
C761   C763    1.420   .     A
C762   C764    1.417   .     A
C762   S806    1.783   .     S
C763   S811    1.792   .     S
C763   C765    1.416   .     A
C764   S816    1.787   .     S
C764   C766    1.414   .     A
C766   C519    1.469   1_565 S
Cu767  O787    1.988   .     S
Cu767  O786    1.956   .     S
Cu767  O783    1.952   .     S
Cu767  Cu768   2.675   .     S
Cu767  N782    2.010   .     S
Cu767  O790    1.982   .     S
Cu768  O789    1.982   .     S
Cu768  O785    1.956   .     S
Cu768  N781    2.010   .     S
Cu768  O784    1.952   .     S
Cu768  O788    1.988   .     S
S791   O792    1.502   .     D
S791   O793    1.504   .     D
S791   C835    1.786   .     S
S791   O876    1.683   .     S
O794   H795    0.990   .     S
O794   S955    1.683   1_455 S
S796   O798    1.504   .     D
S796   O797    1.503   .     D
S796   C918    1.802   1_455 S
S796   O963    1.686   1_455 S
O799   H800    0.991   .     S
O799   S878    1.686   .     S
S801   O803    1.503   .     D
S801   O804    1.678   .     S
S801   O802    1.497   .     D
O804   H805    0.991   .     S
S806   O807    1.501   .     D
S806   O809    1.677   .     S
S806   O808    1.503   .     D
O809   H810    0.991   .     S
S811   O813    1.502   .     D
O812   S565    1.504   1_565 S
O814   H815    0.990   .     S
O814   S565    1.683   1_565 S
S816   O818    1.502   .     D
S816   O571    1.503   1_565 S
S816   O573    1.683   1_565 S
O819   H820    0.990   .     S
C821   C841    1.460   .     S
C821   O867    1.288   .     A
C821   O865    1.299   .     A
C822   O866    1.298   .     A
C822   C842    1.474   .     S
C822   O868    1.294   .     A
C823   H855    1.079   .     S
C823   C825    1.403   .     A
C823   C831    1.413   .     A
C824   H856    1.079   .     S
C824   C832    1.412   .     A
C824   C826    1.404   .     A
C825   H857    1.079   .     S
C825   N863    1.360   .     A
C826   H858    1.080   .     S
C826   N864    1.363   .     A
C827   N863    1.361   .     A
C827   C829    1.405   .     A
C827   H859    1.082   .     S
C828   C830    1.404   .     A
C828   N864    1.362   .     A
C828   H860    1.081   .     S
C829   C831    1.414   .     A
C829   H861    1.079   .     S
C830   H862    1.079   .     S
C830   C832    1.413   .     A
C832   C339    1.520   1_556 S
C833   O871    1.294   .     A
C833   O869    1.278   .     A
C833   C835    1.434   .     S
C834   O872    1.285   .     A
C834   C836    1.437   .     S
C834   O870    1.288   .     A
C836   C917    1.365   .     S
C836   S960    1.802   .     S
C837   C847    1.398   .     A
C837   H851    1.084   .     S
C837   C839    1.383   .     A
C838   C848    1.398   .     A
C838   H852    1.084   .     S
C838   C840    1.383   .     A
C839   C841    1.395   .     A
C839   H853    1.083   .     S
C840   H854    1.083   .     S
C840   C842    1.399   .     A
C841   C843    1.422   .     A
C842   C844    1.424   .     A
C843   S883    1.785   .     S
C843   C845    1.420   .     A
C844   C846    1.417   .     A
C844   S888    1.783   .     S
C845   S893    1.792   .     S
C845   C847    1.416   .     A
C846   S898    1.787   .     S
C846   C848    1.414   .     A
C848   C601    1.469   1_565 S
Cu849  O869    1.988   .     S
Cu849  O868    1.956   .     S
Cu849  O865    1.952   .     S
Cu849  Cu850   2.675   .     S
Cu849  N864    2.010   .     S
Cu849  O872    1.982   .     S
Cu850  O871    1.982   .     S
Cu850  O867    1.956   .     S
Cu850  N863    2.010   .     S
Cu850  O866    1.952   .     S
Cu850  O870    1.988   .     S
S873   O874    1.502   .     D
S873   O875    1.504   .     D
S873   C917    1.786   .     S
S873   O958    1.683   .     S
O876   H877    0.990   .     S
S878   O880    1.504   .     D
S878   O879    1.503   .     D
O881   H882    0.991   .     S
O881   S960    1.686   .     S
S883   O885    1.503   .     D
S883   O886    1.678   .     S
S883   O884    1.497   .     D
O886   H887    0.991   .     S
S888   O889    1.501   .     D
S888   O891    1.677   .     S
S888   O890    1.503   .     D
O891   H892    0.991   .     S
S893   O895    1.502   .     D
O894   S647    1.504   1_565 S
O896   H897    0.990   .     S
O896   S647    1.683   1_565 S
S898   O900    1.502   .     D
S898   O653    1.503   1_565 S
S898   O655    1.683   1_565 S
O901   H902    0.990   .     S
C903   C923    1.460   .     S
C903   O949    1.288   .     A
C903   O947    1.299   .     A
C904   O948    1.298   .     A
C904   C924    1.474   .     S
C904   O950    1.294   .     A
C905   H937    1.079   .     S
C905   C907    1.403   .     A
C905   C913    1.413   .     A
C906   H938    1.079   .     S
C906   C914    1.412   .     A
C906   C908    1.404   .     A
C907   H939    1.079   .     S
C907   N945    1.360   .     A
C908   H940    1.080   .     S
C908   N946    1.363   .     A
C909   N945    1.361   .     A
C909   C911    1.405   .     A
C909   H941    1.082   .     S
C910   C912    1.404   .     A
C910   N946    1.362   .     A
C910   H942    1.081   .     S
C911   C913    1.414   .     A
C911   H943    1.079   .     S
C912   H944    1.079   .     S
C912   C914    1.413   .     A
C914   C421    1.520   1_556 S
C915   O953    1.294   .     A
C915   O951    1.278   .     A
C915   C917    1.434   .     S
C916   O954    1.285   .     A
C916   C918    1.437   .     S
C916   O952    1.288   .     A
C918   C753    1.365   1_655 S
C918   S796    1.802   1_655 S
C919   C929    1.398   .     A
C919   H933    1.084   .     S
C919   C921    1.383   .     A
C920   C930    1.398   .     A
C920   H934    1.084   .     S
C920   C922    1.383   .     A
C921   C923    1.395   .     A
C921   H935    1.083   .     S
C922   H936    1.083   .     S
C922   C924    1.399   .     A
C923   C925    1.422   .     A
C924   C926    1.424   .     A
C925   S965    1.785   .     S
C925   C927    1.420   .     A
C926   C928    1.417   .     A
C926   S970    1.783   .     S
C927   S975    1.792   .     S
C927   C929    1.416   .     A
C928   S980    1.787   .     S
C928   C930    1.414   .     A
C930   C683    1.469   1_565 S
Cu931  O951    1.988   .     S
Cu931  O950    1.956   .     S
Cu931  O947    1.952   .     S
Cu931  Cu932   2.675   .     S
Cu931  N946    2.010   .     S
Cu931  O954    1.982   .     S
Cu932  O953    1.982   .     S
Cu932  O949    1.956   .     S
Cu932  N945    2.010   .     S
Cu932  O948    1.952   .     S
Cu932  O952    1.988   .     S
S955   O956    1.502   .     D
S955   O957    1.504   .     D
S955   C753    1.786   1_655 S
S955   O794    1.683   1_655 S
O958   H959    0.990   .     S
S960   O962    1.504   .     D
S960   O961    1.503   .     D
O963   H964    0.991   .     S
O963   S796    1.686   1_655 S
S965   O967    1.503   .     D
S965   O968    1.678   .     S
S965   O966    1.497   .     D
O968   H969    0.991   .     S
S970   O971    1.501   .     D
S970   O973    1.677   .     S
S970   O972    1.503   .     D
O973   H974    0.991   .     S
S975   O977    1.502   .     D
O976   S729    1.504   1_565 S
O978   H979    0.990   .     S
O978   S729    1.683   1_565 S
S980   O982    1.502   .     D
S980   O735    1.503   1_565 S
S980   O737    1.683   1_565 S
O983   H984    0.990   .     S
